REMARK  Name = 
REMARK  5 active torsions:
REMARK  status: ('A' for Active; 'I' for Inactive)
REMARK    1  A    between atoms: C_9  and  C_13
REMARK    2  A    between atoms: C_11  and  C_15
REMARK    3  A    between atoms: C_12  and  C_14
REMARK    4  A    between atoms: C_12  and  N_20
REMARK    5  A    between atoms: C_15  and  C_18
REMARK                            x       y       z     vdW  Elec       q    Type
REMARK                         _______ _______ _______ _____ _____    ______ ____
ROOT
ATOM      1  C   UNL     1       0.357   1.650   0.000  0.00  0.00    +0.000 C 
ATOM      2  C   UNL     1       0.357   0.825   0.000  0.00  0.00    +0.000 C 
ENDROOT
BRANCH   1   6
ATOM      3  C   UNL     1      -0.357   2.888   0.000  0.00  0.00    +0.000 A 
ATOM      4  C   UNL     1      -1.072   3.300   0.000  0.00  0.00    +0.000 A 
ATOM      5  C   UNL     1      -1.072   1.650   0.000  0.00  0.00    +0.000 A 
ATOM      6  C   UNL     1      -0.357   2.062   0.000  0.00  0.00    +0.000 A 
ATOM      7  C   UNL     1      -1.786   2.888   0.000  0.00  0.00    +0.000 A 
ATOM      8  C   UNL     1      -1.786   2.062   0.000  0.00  0.00    +0.000 A 
ATOM      9  O   UNL     1      -2.501   3.300   0.000  0.00  0.00    +0.000 OA
ATOM     10  O   UNL     1      -2.501   1.650   0.000  0.00  0.00    +0.000 OA
ENDBRANCH   1   6
BRANCH   2  11
ATOM     11  C   UNL     1       1.072   0.412   0.000  0.00  0.00    +0.000 C 
ATOM     12  N   UNL     1       1.072  -0.412   0.000  0.00  0.00    +0.000 NA
ATOM     13  O   UNL     1       1.786   0.825   0.000  0.00  0.00    +0.000 OA
BRANCH  12  15
ATOM     14  C   UNL     1       2.501  -0.412   0.000  0.00  0.00    +0.000 C 
ATOM     15  C   UNL     1       1.786  -0.825   0.000  0.00  0.00    +0.000 C 
BRANCH  15  21
ATOM     16  C   UNL     1       1.786  -3.300   0.000  0.00  0.00    +0.000 A 
ATOM     17  C   UNL     1       2.501  -2.888   0.000  0.00  0.00    +0.000 A 
ATOM     18  C   UNL     1       1.072  -2.888   0.000  0.00  0.00    +0.000 A 
ATOM     19  C   UNL     1       2.501  -2.062   0.000  0.00  0.00    +0.000 A 
ATOM     20  C   UNL     1       1.072  -2.062   0.000  0.00  0.00    +0.000 A 
ATOM     21  C   UNL     1       1.786  -1.650   0.000  0.00  0.00    +0.000 A 
ENDBRANCH  15  21
ENDBRANCH  12  15
ENDBRANCH   2  11
BRANCH   2  22
ATOM     22  C   UNL     1      -0.357   0.412   0.000  0.00  0.00    +0.000 C 
ATOM     23  N   UNL     1      -1.072   0.000   0.000  0.00  0.00    +0.000 NA
ENDBRANCH   2  22
TORSDOF 5
