REMARK  Name = 
REMARK  7 active torsions:
REMARK  status: ('A' for Active; 'I' for Inactive)
REMARK    1  A    between atoms: C_3  and  C_24
REMARK    2  A    between atoms: C_6  and  C_7
REMARK    3  A    between atoms: C_7  and  O_8
REMARK    4  A    between atoms: O_8  and  C_9
REMARK    5  A    between atoms: C_9  and  C_10
REMARK    6  A    between atoms: C_9  and  C_16
REMARK    7  A    between atoms: C_10  and  N_11
REMARK                            x       y       z     vdW  Elec       q    Type
REMARK                         _______ _______ _______ _____ _____    ______ ____
ROOT
ATOM      1  C   UNL     1       0.715  -1.238   0.000  0.00  0.00    +0.000 C 
ENDROOT
BRANCH   1   2
ATOM      2  C   UNL     1       0.715  -0.412   0.000  0.00  0.00    +0.000 A 
ATOM      3  C   UNL     1       0.000   0.000   0.000  0.00  0.00    +0.000 A 
ATOM      4  C   UNL     1       0.000   0.825   0.000  0.00  0.00    +0.000 A 
ATOM      5  C   UNL     1       0.715   1.238   0.000  0.00  0.00    +0.000 A 
ATOM      6  C   UNL     1       1.429   0.825   0.000  0.00  0.00    +0.000 A 
ATOM      7  C   UNL     1       1.429   0.000   0.000  0.00  0.00    +0.000 A 
ATOM      8 CL   UNL     1       2.143  -0.412   0.000  0.00  0.00    +0.000 Cl
ATOM      9 CL   UNL     1       0.715   2.062   0.000  0.00  0.00    +0.000 Cl
ENDBRANCH   1   2
BRANCH   1  10
ATOM     10  O   UNL     1       0.000  -1.650   0.000  0.00  0.00    +0.000 OA
BRANCH  10  11
ATOM     11  C   UNL     1       0.000  -2.475   0.000  0.00  0.00    +0.000 C 
BRANCH  11  17
ATOM     12  C   UNL     1      -0.715  -3.712   0.000  0.00  0.00    +0.000 A 
ATOM     13  C   UNL     1      -1.429  -4.125   0.000  0.00  0.00    +0.000 A 
ATOM     14  C   UNL     1      -2.143  -3.712   0.000  0.00  0.00    +0.000 A 
ATOM     15  C   UNL     1      -2.143  -2.888   0.000  0.00  0.00    +0.000 A 
ATOM     16  C   UNL     1      -1.429  -2.475   0.000  0.00  0.00    +0.000 A 
ATOM     17  C   UNL     1      -0.715  -2.888   0.000  0.00  0.00    +0.000 A 
BRANCH  14  18
ATOM     18  C   UNL     1      -2.858  -4.125   0.000  0.00  0.00    +0.000 C 
ATOM     19  F   UNL     1      -3.572  -4.537   0.000  0.00  0.00    +0.000 F 
ATOM     20  F   UNL     1      -3.270  -3.410   0.000  0.00  0.00    +0.000 F 
ATOM     21  F   UNL     1      -2.445  -4.840   0.000  0.00  0.00    +0.000 F 
ENDBRANCH  14  18
ENDBRANCH  11  17
ENDBRANCH  10  11
ENDBRANCH   1  10
BRANCH   1  22
ATOM     22  C   UNL     1       1.429  -1.650   0.000  0.00  0.00    +0.000 C 
BRANCH  22  23
ATOM     23  N   UNL     1       1.429  -2.475   0.000  0.00  0.00    +0.000 N 
ATOM     24  C   UNL     1       2.096  -2.960   0.000  0.00  0.00    +0.000 A 
ATOM     25  C   UNL     1       1.841  -3.744   0.000  0.00  0.00    +0.000 A 
ATOM     26  N   UNL     1       1.016  -3.744   0.000  0.00  0.00    +0.000 NA
ATOM     27  C   UNL     1       0.761  -2.960   0.000  0.00  0.00    +0.000 A 
ENDBRANCH  22  23
ENDBRANCH   1  22
TORSDOF 7
