REMARK  Name = 
REMARK  14 active torsions:
REMARK  status: ('A' for Active; 'I' for Inactive)
REMARK    1  A    between atoms: C_2  and  N_3
REMARK    2  A    between atoms: N_3  and  C_4
REMARK    3  A    between atoms: N_3  and  C_6
REMARK    4  A    between atoms: C_6  and  C_7
REMARK    5  A    between atoms: C_7  and  N_8
REMARK    6  A    between atoms: N_8  and  C_9
REMARK    7  A    between atoms: C_9  and  C_10
REMARK    8  A    between atoms: C_13  and  C_16
REMARK    9  A    between atoms: C_19  and  C_22
REMARK   10  A    between atoms: C_26  and  C_28
REMARK   11  A    between atoms: C_28  and  N_29
REMARK   12  A    between atoms: C_35  and  S_36
REMARK   13  A    between atoms: S_36  and  C_37
REMARK   14  A    between atoms: C_37  and  C_38
REMARK                            x       y       z     vdW  Elec       q    Type
REMARK                         _______ _______ _______ _____ _____    ______ ____
ROOT
ATOM      1  N   UNL     1       5.333  -1.046   0.000  0.00  0.00    +0.000 N 
ATOM      2  C   UNL     1       5.745  -1.760   0.000  0.00  0.00    +0.000 C 
ATOM      3  O   UNL     1       6.570  -1.760   0.000  0.00  0.00    +0.000 OA
ENDROOT
BRANCH   1   4
ATOM      4  C   UNL     1       4.508  -1.046   0.000  0.00  0.00    +0.000 C 
BRANCH   4   5
ATOM      5  C   UNL     1       4.095  -1.760   0.000  0.00  0.00    +0.000 C 
BRANCH   5   6
ATOM      6  N   UNL     1       3.270  -1.760   0.000  0.00  0.00    +0.000 NA
BRANCH   6   8
ATOM      7  C   UNL     1       3.270  -0.332   0.000  0.00  0.00    +0.000 C 
ATOM      8  C   UNL     1       2.858  -1.046   0.000  0.00  0.00    +0.000 C 
ENDBRANCH   6   8
BRANCH   6   9
ATOM      9  C   UNL     1       2.858  -2.475   0.000  0.00  0.00    +0.000 C 
ATOM     10  C   UNL     1       2.033  -2.475   0.000  0.00  0.00    +0.000 C 
ENDBRANCH   6   9
ENDBRANCH   5   6
ENDBRANCH   4   5
ENDBRANCH   1   4
BRANCH   1  11
ATOM     11  C   UNL     1       5.745  -0.332   0.000  0.00  0.00    +0.000 C 
BRANCH  11  12
ATOM     12  C   UNL     1       5.333   0.383   0.000  0.00  0.00    +0.000 A 
ATOM     13  C   UNL     1       4.508   0.383   0.000  0.00  0.00    +0.000 A 
ATOM     14  C   UNL     1       4.095   1.097   0.000  0.00  0.00    +0.000 A 
ATOM     15  C   UNL     1       4.508   1.812   0.000  0.00  0.00    +0.000 A 
ATOM     16  C   UNL     1       5.333   1.812   0.000  0.00  0.00    +0.000 A 
ATOM     17  C   UNL     1       5.745   1.097   0.000  0.00  0.00    +0.000 A 
BRANCH  15  18
ATOM     18  C   UNL     1       4.095   2.526   0.000  0.00  0.00    +0.000 A 
ATOM     19  C   UNL     1       3.270   2.526   0.000  0.00  0.00    +0.000 A 
ATOM     20  C   UNL     1       2.858   3.241   0.000  0.00  0.00    +0.000 A 
ATOM     21  C   UNL     1       3.270   3.955   0.000  0.00  0.00    +0.000 A 
ATOM     22  C   UNL     1       4.095   3.955   0.000  0.00  0.00    +0.000 A 
ATOM     23  C   UNL     1       4.508   3.241   0.000  0.00  0.00    +0.000 A 
BRANCH  21  24
ATOM     24  C   UNL     1       2.858   4.670   0.000  0.00  0.00    +0.000 C 
ATOM     25  F   UNL     1       2.445   5.384   0.000  0.00  0.00    +0.000 F 
ATOM     26  F   UNL     1       2.143   4.257   0.000  0.00  0.00    +0.000 F 
ATOM     27  F   UNL     1       3.572   5.082   0.000  0.00  0.00    +0.000 F 
ENDBRANCH  21  24
ENDBRANCH  15  18
ENDBRANCH  11  12
ENDBRANCH   1  11
BRANCH   2  28
ATOM     28  C   UNL     1       5.333  -2.475   0.000  0.00  0.00    +0.000 C 
BRANCH  28  29
ATOM     29  N   UNL     1       5.745  -3.189   0.000  0.00  0.00    +0.000 N 
ATOM     30  C   UNL     1       6.570  -3.189   0.000  0.00  0.00    +0.000 A 
ATOM     31  C   UNL     1       6.983  -3.904   0.000  0.00  0.00    +0.000 A 
ATOM     32  C   UNL     1       6.570  -4.618   0.000  0.00  0.00    +0.000 A 
ATOM     33  O   UNL     1       6.983  -5.333   0.000  0.00  0.00    +0.000 OA
ATOM     34  N   UNL     1       5.745  -4.618   0.000  0.00  0.00    +0.000 NA
ATOM     35  C   UNL     1       5.333  -3.904   0.000  0.00  0.00    +0.000 A 
ATOM     36  C   UNL     1       7.790  -3.732   0.000  0.00  0.00    +0.000 C 
ATOM     37  C   UNL     1       7.876  -2.912   0.000  0.00  0.00    +0.000 C 
ATOM     38  C   UNL     1       7.122  -2.576   0.000  0.00  0.00    +0.000 C 
BRANCH  35  39
ATOM     39  S   UNL     1       4.508  -3.904   0.000  0.00  0.00    +0.000 S 
BRANCH  39  40
ATOM     40  C   UNL     1       4.095  -4.618   0.000  0.00  0.00    +0.000 C 
BRANCH  40  41
ATOM     41  C   UNL     1       4.508  -5.333   0.000  0.00  0.00    +0.000 A 
ATOM     42  C   UNL     1       5.333  -5.333   0.000  0.00  0.00    +0.000 A 
ATOM     43  C   UNL     1       5.745  -6.047   0.000  0.00  0.00    +0.000 A 
ATOM     44  C   UNL     1       5.333  -6.762   0.000  0.00  0.00    +0.000 A 
ATOM     45  C   UNL     1       4.508  -6.762   0.000  0.00  0.00    +0.000 A 
ATOM     46  C   UNL     1       4.095  -6.047   0.000  0.00  0.00    +0.000 A 
ATOM     47  F   UNL     1       5.745  -7.476   0.000  0.00  0.00    +0.000 F 
ENDBRANCH  40  41
ENDBRANCH  39  40
ENDBRANCH  35  39
ENDBRANCH  28  29
ENDBRANCH   2  28
TORSDOF 14
