REMARK  Name = 
REMARK  7 active torsions:
REMARK  status: ('A' for Active; 'I' for Inactive)
REMARK    1  A    between atoms: C_17  and  C_23
REMARK    2  A    between atoms: C_23  and  C_28
REMARK    3  A    between atoms: C_28  and  C_29
REMARK    4  A    between atoms: C_29  and  C_30
REMARK    5  A    between atoms: N_31  and  C_32
REMARK    6  A    between atoms: C_32  and  C_33
REMARK    7  A    between atoms: C_33  and  S_34
REMARK                            x       y       z     vdW  Elec       q    Type
REMARK                         _______ _______ _______ _____ _____    ______ ____
ROOT
ATOM      1  C   UNL     1      -4.601  -1.025   0.000  0.00  0.00    +0.000 C 
ATOM      2  C   UNL     1      -4.601  -1.861   0.000  0.00  0.00    +0.000 C 
ATOM      3  C   UNL     1      -3.890  -2.280   0.000  0.00  0.00    +0.000 C 
ATOM      4  C   UNL     1      -3.179  -1.861   0.000  0.00  0.00    +0.000 C 
ATOM      5  C   UNL     1      -3.179  -1.025   0.000  0.00  0.00    +0.000 C 
ATOM      6  C   UNL     1      -3.890  -0.607   0.000  0.00  0.00    +0.000 C 
ATOM      7  C   UNL     1      -2.468  -2.280   0.000  0.00  0.00    +0.000 C 
ATOM      8  C   UNL     1      -1.757  -1.861   0.000  0.00  0.00    +0.000 C 
ATOM      9  C   UNL     1      -1.757  -1.025   0.000  0.00  0.00    +0.000 C 
ATOM     10  C   UNL     1      -2.468  -0.607   0.000  0.00  0.00    +0.000 C 
ATOM     11  C   UNL     1      -1.046  -0.607   0.000  0.00  0.00    +0.000 C 
ATOM     12  C   UNL     1      -1.046   0.188   0.000  0.00  0.00    +0.000 C 
ATOM     13  C   UNL     1      -1.757   0.607   0.000  0.00  0.00    +0.000 C 
ATOM     14  C   UNL     1      -2.468   0.188   0.000  0.00  0.00    +0.000 C 
ATOM     15  C   UNL     1       0.376  -0.607   0.000  0.00  0.00    +0.000 C 
ATOM     16  C   UNL     1       0.376   0.188   0.000  0.00  0.00    +0.000 C 
ATOM     17  C   UNL     1      -0.335   0.607   0.000  0.00  0.00    +0.000 C 
ATOM     18  C   UNL     1      -3.179  -0.188   0.000  0.00  0.00    +0.000 C 
ATOM     19  O   UNL     1      -1.087  -2.238   0.000  0.00  0.00    +0.000 OA
ATOM     20  C   UNL     1      -1.046   1.025   0.000  0.00  0.00    +0.000 C 
ATOM     21  O   UNL     1      -5.354  -2.280   0.000  0.00  0.00    +0.000 OA
ENDROOT
BRANCH  17  22
ATOM     22  C   UNL     1      -0.335   1.443   0.000  0.00  0.00    +0.000 C 
ATOM     23  C   UNL     1      -1.046   1.861   0.000  0.00  0.00    +0.000 C 
BRANCH  22  24
ATOM     24  C   UNL     1       0.376   1.861   0.000  0.00  0.00    +0.000 C 
BRANCH  24  25
ATOM     25  C   UNL     1       1.087   1.443   0.000  0.00  0.00    +0.000 C 
BRANCH  25  26
ATOM     26  C   UNL     1       1.798   1.861   0.000  0.00  0.00    +0.000 C 
ATOM     27  N   UNL     1       2.510   1.443   0.000  0.00  0.00    +0.000 NA
ATOM     28  O   UNL     1       1.798   2.656   0.000  0.00  0.00    +0.000 OA
BRANCH  27  29
ATOM     29  C   UNL     1       3.221   1.861   0.000  0.00  0.00    +0.000 C 
BRANCH  29  30
ATOM     30  C   UNL     1       3.932   1.443   0.000  0.00  0.00    +0.000 C 
BRANCH  30  31
ATOM     31  S   UNL     1       4.643   1.861   0.000  0.00  0.00    +0.000 S 
ATOM     32  O   UNL     1       5.354   2.280   0.000  0.00  0.00    +0.000 OA
ATOM     33  O   UNL     1       4.224   2.572   0.000  0.00  0.00    +0.000 OA
ATOM     34  O   UNL     1       5.061   1.150   0.000  0.00  0.00    +0.000 OA
ENDBRANCH  30  31
ENDBRANCH  29  30
ENDBRANCH  27  29
ENDBRANCH  25  26
ENDBRANCH  24  25
ENDBRANCH  22  24
ENDBRANCH  17  22
TORSDOF 7
