REMARK  Name = 
REMARK  13 active torsions:
REMARK  status: ('A' for Active; 'I' for Inactive)
REMARK    1  A    between atoms: N_7  and  C_9
REMARK    2  A    between atoms: C_9  and  C_10
REMARK    3  A    between atoms: C_10  and  C_11
REMARK    4  A    between atoms: C_11  and  N_12
REMARK    5  A    between atoms: C_13  and  C_15
REMARK    6  A    between atoms: C_15  and  C_16
REMARK    7  A    between atoms: C_16  and  O_17
REMARK    8  A    between atoms: O_17  and  C_18
REMARK    9  A    between atoms: C_28  and  C_29
REMARK   10  A    between atoms: C_29  and  C_30
REMARK   11  A    between atoms: C_30  and  C_31
REMARK   12  A    between atoms: C_31  and  C_32
REMARK   13  A    between atoms: C_32  and  C_33
REMARK                            x       y       z     vdW  Elec       q    Type
REMARK                         _______ _______ _______ _____ _____    ______ ____
ROOT
ATOM      1  O   UNL     1       0.000  -0.825   0.000  0.00  0.00    +0.000 OA
ATOM      2  P   UNL     1       0.000   0.000   0.000  0.00  0.00    +0.000 P 
ATOM      3  O   UNL     1       0.000   0.825   0.000  0.00  0.00    +0.000 OA
ATOM      4  O   UNL     1       0.825   0.000   0.000  0.00  0.00    +0.000 OA
ATOM      5  O   UNL     1      -0.825   0.000   0.000  0.00  0.00    +0.000 OA
ENDROOT
TORSDOF 0
REMARK  Name = 
REMARK  13 active torsions:
REMARK  status: ('A' for Active; 'I' for Inactive)
REMARK    1  A    between atoms: N_7  and  C_9
REMARK    2  A    between atoms: C_9  and  C_10
REMARK    3  A    between atoms: C_10  and  C_11
REMARK    4  A    between atoms: C_11  and  N_12
REMARK    5  A    between atoms: C_13  and  C_15
REMARK    6  A    between atoms: C_15  and  C_16
REMARK    7  A    between atoms: C_16  and  O_17
REMARK    8  A    between atoms: O_17  and  C_18
REMARK    9  A    between atoms: C_28  and  C_29
REMARK   10  A    between atoms: C_29  and  C_30
REMARK   11  A    between atoms: C_30  and  C_31
REMARK   12  A    between atoms: C_31  and  C_32
REMARK   13  A    between atoms: C_32  and  C_33
REMARK                            x       y       z     vdW  Elec       q    Type
REMARK                         _______ _______ _______ _____ _____    ______ ____
ROOT
ATOM      1  C   UNL     1       8.183  -0.905   0.000  0.00  0.00    +0.000 C 
ATOM      2  C   UNL     1       8.898  -1.317   0.000  0.00  0.00    +0.000 C 
ENDROOT
BRANCH   1   4
ATOM      3  N   UNL     1       6.755  -0.905   0.000  0.00  0.00    +0.000 NA
ATOM      4  C   UNL     1       7.469  -1.317   0.000  0.00  0.00    +0.000 C 
ATOM      5  O   UNL     1       7.469  -2.142   0.000  0.00  0.00    +0.000 OA
BRANCH   3   6
ATOM      6  C   UNL     1       6.040  -1.317   0.000  0.00  0.00    +0.000 C 
BRANCH   6   7
ATOM      7  C   UNL     1       5.326  -0.905   0.000  0.00  0.00    +0.000 C 
BRANCH   7   8
ATOM      8  C   UNL     1       4.611  -1.317   0.000  0.00  0.00    +0.000 C 
BRANCH   8  10
ATOM      9  C   UNL     1       3.182  -1.317   0.000  0.00  0.00    +0.000 C 
ATOM     10  N   UNL     1       3.897  -0.905   0.000  0.00  0.00    +0.000 NA
ATOM     11  C   UNL     1       3.897  -0.080   0.000  0.00  0.00    +0.000 C 
ENDBRANCH   8  10
ENDBRANCH   7   8
ENDBRANCH   6   7
ENDBRANCH   3   6
ENDBRANCH   1   4
BRANCH   1  12
ATOM     12  C   UNL     1       8.183  -0.080   0.000  0.00  0.00    +0.000 C 
BRANCH  12  13
ATOM     13  O   UNL     1       7.469   0.333   0.000  0.00  0.00    +0.000 OA
BRANCH  13  14
ATOM     14  C   UNL     1       7.469   1.158   0.000  0.00  0.00    +0.000 A 
ATOM     15  C   UNL     1       6.755   1.570   0.000  0.00  0.00    +0.000 A 
ATOM     16  C   UNL     1       6.040   1.158   0.000  0.00  0.00    +0.000 A 
ATOM     17  C   UNL     1       5.326   1.570   0.000  0.00  0.00    +0.000 A 
ATOM     18  C   UNL     1       5.326   2.395   0.000  0.00  0.00    +0.000 A 
ATOM     19  C   UNL     1       6.040   2.808   0.000  0.00  0.00    +0.000 A 
ATOM     20  C   UNL     1       6.755   2.395   0.000  0.00  0.00    +0.000 A 
ATOM     21  C   UNL     1       7.469   2.808   0.000  0.00  0.00    +0.000 A 
ATOM     22  C   UNL     1       8.183   2.395   0.000  0.00  0.00    +0.000 A 
ATOM     23  C   UNL     1       8.183   1.570   0.000  0.00  0.00    +0.000 A 
ENDBRANCH  13  14
ENDBRANCH  12  13
ENDBRANCH   1  12
BRANCH   2  24
ATOM     24  C   UNL     1       9.612  -0.905   0.000  0.00  0.00    +0.000 C 
BRANCH  24  25
ATOM     25  C   UNL     1      10.327  -1.317   0.000  0.00  0.00    +0.000 C 
BRANCH  25  26
ATOM     26  C   UNL     1      11.041  -0.905   0.000  0.00  0.00    +0.000 C 
BRANCH  26  27
ATOM     27  C   UNL     1      11.756  -1.317   0.000  0.00  0.00    +0.000 C 
BRANCH  27  28
ATOM     28  C   UNL     1      12.470  -0.905   0.000  0.00  0.00    +0.000 C 
ATOM     29  O   UNL     1      12.470  -0.080   0.000  0.00  0.00    +0.000 OA
ATOM     30  N   UNL     1      13.185  -1.317   0.000  0.00  0.00    +0.000 NA
ATOM     31  O   UNL     1      13.899  -0.905   0.000  0.00  0.00    +0.000 OA
ENDBRANCH  27  28
ENDBRANCH  26  27
ENDBRANCH  25  26
ENDBRANCH  24  25
ENDBRANCH   2  24
TORSDOF 13
