REMARK  Name = 
REMARK  7 active torsions:
REMARK  status: ('A' for Active; 'I' for Inactive)
REMARK    1  A    between atoms: CA_4  and  N_9
REMARK    2  A    between atoms: CA_5  and  C_12
REMARK    3  A    between atoms: C_8  and  C_11
REMARK    4  A    between atoms: C_10  and  C_11
REMARK    5  A    between atoms: C_10  and  O_13
REMARK    6  A    between atoms: C_11  and  C_21
REMARK    7  A    between atoms: O_13  and  C_18
REMARK                            x       y       z     vdW  Elec       q    Type
REMARK                         _______ _______ _______ _____ _____    ______ ____
ROOT
ATOM      1  C   UNL     1      -0.063   0.129   0.000  0.00  0.00    +0.000 C 
ENDROOT
BRANCH   1   2
ATOM      2  C   UNL     1      -0.063   0.954   0.000  0.00  0.00    +0.000 A 
ATOM      3  C   UNL     1       0.655   1.366   0.000  0.00  0.00    +0.000 A 
ATOM      4  C   UNL     1      -0.772   1.361   0.000  0.00  0.00    +0.000 A 
ATOM      5  C   UNL     1      -0.776   2.186   0.000  0.00  0.00    +0.000 A 
ATOM      6  C   UNL     1       0.655   2.191   0.000  0.00  0.00    +0.000 A 
ATOM      7  C   UNL     1      -0.058   2.604   0.000  0.00  0.00    +0.000 A 
ENDBRANCH   1   2
BRANCH   1   8
ATOM      8  C   UNL     1       0.650  -0.284   0.000  0.00  0.00    +0.000 C 
ATOM      9  N   UNL     1       1.364   0.133   0.000  0.00  0.00    +0.000 NA
ATOM     10  O   UNL     1       0.650  -1.109   0.000  0.00  0.00    +0.000 OA
BRANCH   9  14
ATOM     11  N   UNL     1       2.917  -1.109   0.000  0.00  0.00    +0.000 N 
ATOM     12  C   UNL     1       2.917  -0.284   0.000  0.00  0.00    +0.000 C 
ATOM     13  C   UNL     1       2.087  -1.114   0.000  0.00  0.00    +0.000 C 
ATOM     14  CA  UNL     1       2.087  -0.284   0.000  0.00  0.00    +0.000 C 
ATOM     15  CA  UNL     1       3.703  -1.361   0.000  0.00  0.00    +0.000 C 
ATOM     16  S   UNL     1       3.698  -0.027   0.000  0.00  0.00    +0.000 S 
ATOM     17  C   UNL     1       4.188  -0.692   0.000  0.00  0.00    +0.000 C 
ATOM     18  O   UNL     1       1.504  -1.696   0.000  0.00  0.00    +0.000 OA
ATOM     19  C   UNL     1       4.902  -0.274   0.000  0.00  0.00    +0.000 C 
ATOM     20  C   UNL     1       4.902  -1.104   0.000  0.00  0.00    +0.000 C 
BRANCH  15  21
ATOM     21  C   UNL     1       3.693  -2.182   0.000  0.00  0.00    +0.000 C 
ATOM     22  O   UNL     1       4.407  -2.604   0.000  0.00  0.00    +0.000 OA
ATOM     23  OXT UNL     1       2.975  -2.589   0.000  0.00  0.00    +0.000 OA
ENDBRANCH  15  21
ENDBRANCH   9  14
ENDBRANCH   1   8
BRANCH   1  24
ATOM     24  C   UNL     1      -0.776  -0.284   0.000  0.00  0.00    +0.000 C 
ATOM     25  O   UNL     1      -0.776  -1.109   0.000  0.00  0.00    +0.000 OA
BRANCH  24  26
ATOM     26  O   UNL     1      -1.490   0.129   0.000  0.00  0.00    +0.000 OA
BRANCH  26  28
ATOM     27  C   UNL     1      -3.630  -0.289   0.000  0.00  0.00    +0.000 A 
ATOM     28  C   UNL     1      -2.208  -0.284   0.000  0.00  0.00    +0.000 A 
ATOM     29  C   UNL     1      -2.917   0.129   0.000  0.00  0.00    +0.000 A 
ATOM     30  C   UNL     1      -3.630  -1.114   0.000  0.00  0.00    +0.000 A 
ATOM     31  C   UNL     1      -2.917  -1.526   0.000  0.00  0.00    +0.000 A 
ATOM     32  C   UNL     1      -2.203  -1.114   0.000  0.00  0.00    +0.000 A 
ATOM     33  C   UNL     1      -4.416  -0.032   0.000  0.00  0.00    +0.000 C 
ATOM     34  C   UNL     1      -4.902  -0.696   0.000  0.00  0.00    +0.000 C 
ATOM     35  C   UNL     1      -4.416  -1.366   0.000  0.00  0.00    +0.000 C 
ENDBRANCH  26  28
ENDBRANCH  24  26
ENDBRANCH   1  24
TORSDOF 7
