REMARK  Name = 
REMARK  14 active torsions:
REMARK  status: ('A' for Active; 'I' for Inactive)
REMARK    1  A    between atoms: C_5  and  O_10
REMARK    2  A    between atoms: O_10  and  C_11
REMARK    3  A    between atoms: C_16  and  C_18
REMARK    4  A    between atoms: C_18  and  C_19
REMARK    5  A    between atoms: C_19  and  C_20
REMARK    6  A    between atoms: C_20  and  C_21
REMARK    7  A    between atoms: C_21  and  C_22
REMARK    8  A    between atoms: C_22  and  C_23
REMARK    9  A    between atoms: C_23  and  C_24
REMARK   10  A    between atoms: C_24  and  C_25
REMARK   11  A    between atoms: C_25  and  C_26
REMARK   12  A    between atoms: C_26  and  C_27
REMARK   13  A    between atoms: C_27  and  C_28
REMARK   14  A    between atoms: C_28  and  C_29
REMARK                            x       y       z     vdW  Elec       q    Type
REMARK                         _______ _______ _______ _____ _____    ______ ____
ROOT
ATOM      1  C   UNL     1      -3.402   0.414   0.000  0.00  0.00    +0.000 A 
ATOM      2  C   UNL     1      -3.402  -0.423   0.000  0.00  0.00    +0.000 A 
ATOM      3  C   UNL     1      -4.107  -0.824   0.000  0.00  0.00    +0.000 A 
ATOM      4  C   UNL     1      -4.107  -1.644   0.000  0.00  0.00    +0.000 C 
ATOM      5  C   UNL     1      -4.839  -0.423   0.000  0.00  0.00    +0.000 A 
ATOM      6  C   UNL     1      -4.839   0.414   0.000  0.00  0.00    +0.000 A 
ATOM      7  C   UNL     1      -4.107   0.820   0.000  0.00  0.00    +0.000 A 
ATOM      8  C   UNL     1      -4.107   1.644   0.000  0.00  0.00    +0.000 C 
ATOM      9  C   UNL     1      -5.557   0.820   0.000  0.00  0.00    +0.000 C 
ATOM     10  C   UNL     1      -2.688  -0.824   0.000  0.00  0.00    +0.000 C 
ATOM     11  C   UNL     1      -1.979  -0.423   0.000  0.00  0.00    +0.000 C 
ATOM     12  C   UNL     1      -1.979   0.414   0.000  0.00  0.00    +0.000 C 
ATOM     13  O   UNL     1      -2.688   0.820   0.000  0.00  0.00    +0.000 OA
ATOM     14  C   UNL     1      -1.243   0.035   0.000  0.00  0.00    +0.000 C 
ENDROOT
BRANCH   5  15
ATOM     15  O   UNL     1      -5.566  -0.824   0.000  0.00  0.00    +0.000 OA
BRANCH  15  16
ATOM     16  C   UNL     1      -6.580  -0.567   0.000  0.00  0.00    +0.000 C 
ATOM     17  O   UNL     1      -6.718   0.238   0.000  0.00  0.00    +0.000 OA
ATOM     18  C   UNL     1      -7.356  -1.084   0.000  0.00  0.00    +0.000 C 
ENDBRANCH  15  16
ENDBRANCH   5  15
BRANCH  12  19
ATOM     19  C   UNL     1      -1.265   0.829   0.000  0.00  0.00    +0.000 C 
BRANCH  19  20
ATOM     20  C   UNL     1      -0.528   0.436   0.000  0.00  0.00    +0.000 C 
BRANCH  20  21
ATOM     21  C   UNL     1       0.185   0.846   0.000  0.00  0.00    +0.000 C 
BRANCH  21  22
ATOM     22  C   UNL     1       0.904   0.436   0.000  0.00  0.00    +0.000 C 
ATOM     23  C   UNL     1       0.904  -0.384   0.000  0.00  0.00    +0.000 C 
BRANCH  22  24
ATOM     24  C   UNL     1       1.609   0.864   0.000  0.00  0.00    +0.000 C 
BRANCH  24  25
ATOM     25  C   UNL     1       2.327   0.471   0.000  0.00  0.00    +0.000 C 
BRANCH  25  26
ATOM     26  C   UNL     1       3.050   0.881   0.000  0.00  0.00    +0.000 C 
BRANCH  26  27
ATOM     27  C   UNL     1       3.768   0.476   0.000  0.00  0.00    +0.000 C 
ATOM     28  C   UNL     1       3.768  -0.344   0.000  0.00  0.00    +0.000 C 
BRANCH  27  29
ATOM     29  C   UNL     1       4.478   0.899   0.000  0.00  0.00    +0.000 C 
BRANCH  29  30
ATOM     30  C   UNL     1       5.205   0.498   0.000  0.00  0.00    +0.000 C 
BRANCH  30  31
ATOM     31  C   UNL     1       5.915   0.912   0.000  0.00  0.00    +0.000 C 
BRANCH  31  32
ATOM     32  C   UNL     1       6.638   0.515   0.000  0.00  0.00    +0.000 C 
ATOM     33  C   UNL     1       7.356   0.934   0.000  0.00  0.00    +0.000 C 
ATOM     34  C   UNL     1       6.638  -0.308   0.000  0.00  0.00    +0.000 C 
ENDBRANCH  31  32
ENDBRANCH  30  31
ENDBRANCH  29  30
ENDBRANCH  27  29
ENDBRANCH  26  27
ENDBRANCH  25  26
ENDBRANCH  24  25
ENDBRANCH  22  24
ENDBRANCH  21  22
ENDBRANCH  20  21
ENDBRANCH  19  20
ENDBRANCH  12  19
TORSDOF 14
