REMARK  Name = 
REMARK  5 active torsions:
REMARK  status: ('A' for Active; 'I' for Inactive)
REMARK    1  A    between atoms: C_2  and  N_3
REMARK    2  A    between atoms: C_2  and  C_24
REMARK    3  A    between atoms: C_6  and  C_17
REMARK    4  A    between atoms: N_9  and  C_10
REMARK    5  A    between atoms: C_10  and  C_12
REMARK                            x       y       z     vdW  Elec       q    Type
REMARK                         _______ _______ _______ _____ _____    ______ ____
ROOT
ATOM      1  N   UNL     1       0.715  -0.412   0.000  0.00  0.00    +0.000 NA
ATOM      2  C   UNL     1       0.715  -1.238   0.000  0.00  0.00    +0.000 A 
ATOM      3  N   UNL     1       1.429  -1.650   0.000  0.00  0.00    +0.000 NA
ATOM      4  C   UNL     1       1.429  -2.475   0.000  0.00  0.00    +0.000 A 
ATOM      5  N   UNL     1       0.715  -2.888   0.000  0.00  0.00    +0.000 NA
ATOM      6  C   UNL     1       0.000  -2.475   0.000  0.00  0.00    +0.000 A 
ATOM      7  N   UNL     1      -0.715  -2.888   0.000  0.00  0.00    +0.000 NA
ATOM      8  N   UNL     1       0.000  -1.650   0.000  0.00  0.00    +0.000 NA
ENDROOT
BRANCH   4   9
ATOM      9  C   UNL     1       2.143  -2.888   0.000  0.00  0.00    +0.000 A 
ATOM     10  C   UNL     1       2.858  -2.475   0.000  0.00  0.00    +0.000 A 
ATOM     11  C   UNL     1       3.572  -2.888   0.000  0.00  0.00    +0.000 A 
ATOM     12  C   UNL     1       3.572  -3.712   0.000  0.00  0.00    +0.000 A 
ATOM     13  C   UNL     1       2.858  -4.125   0.000  0.00  0.00    +0.000 A 
ATOM     14 CL   UNL     1       2.858  -4.950   0.000  0.00  0.00    +0.000 Cl
ATOM     15  N   UNL     1       2.143  -3.712   0.000  0.00  0.00    +0.000 NA
ENDBRANCH   4   9
BRANCH   1  17
ATOM     16  C   UNL     1       1.429   0.825   0.000  0.00  0.00    +0.000 C 
ATOM     17  C   UNL     1       1.429   0.000   0.000  0.00  0.00    +0.000 C 
BRANCH  17  18
ATOM     18  C   UNL     1       2.143  -0.412   0.000  0.00  0.00    +0.000 C 
ATOM     19  F   UNL     1       1.731  -1.127   0.000  0.00  0.00    +0.000 F 
ATOM     20  F   UNL     1       2.556   0.302   0.000  0.00  0.00    +0.000 F 
ATOM     21  F   UNL     1       2.858  -0.825   0.000  0.00  0.00    +0.000 F 
ENDBRANCH  17  18
ENDBRANCH   1  17
BRANCH   7  22
ATOM     22  C   UNL     1      -1.429  -2.475   0.000  0.00  0.00    +0.000 C 
ATOM     23  C   UNL     1      -1.429  -1.650   0.000  0.00  0.00    +0.000 C 
BRANCH  22  24
ATOM     24  C   UNL     1      -2.143  -2.888   0.000  0.00  0.00    +0.000 C 
ATOM     25  F   UNL     1      -2.858  -3.300   0.000  0.00  0.00    +0.000 F 
ATOM     26  F   UNL     1      -1.731  -3.602   0.000  0.00  0.00    +0.000 F 
ATOM     27  F   UNL     1      -2.556  -2.173   0.000  0.00  0.00    +0.000 F 
ENDBRANCH  22  24
ENDBRANCH   7  22
TORSDOF 5
