REMARK  Name = 
REMARK  10 active torsions:
REMARK  status: ('A' for Active; 'I' for Inactive)
REMARK    1  A    between atoms: P_1  and  O_4
REMARK    2  A    between atoms: P_1  and  O_10
REMARK    3  A    between atoms: P_2  and  O_5
REMARK    4  A    between atoms: P_3  and  O_6
REMARK    5  A    between atoms: O_4  and  C_23
REMARK    6  A    between atoms: O_5  and  C_21
REMARK    7  A    between atoms: O_6  and  C_22
REMARK    8  A    between atoms: O_10  and  C_27
REMARK    9  A    between atoms: C_27  and  C_28
REMARK   10  A    between atoms: C_28  and  C_29
REMARK                            x       y       z     vdW  Elec       q    Type
REMARK                         _______ _______ _______ _____ _____    ______ ____
ROOT
ATOM      1  O   UNL     1       1.429   1.911   0.000  0.00  0.00    +0.000 OA
ATOM      2  O   UNL     1      -1.429   0.262   0.000  0.00  0.00    +0.000 OA
ATOM      3  O   UNL     1       0.000  -0.563   0.000  0.00  0.00    +0.000 OA
ATOM      4  C   UNL     1       0.000   1.911   0.000  0.00  0.00    +0.000 C 
ATOM      5  C   UNL     1      -0.714   1.499   0.000  0.00  0.00    +0.000 C 
ATOM      6  C   UNL     1       0.715   0.674   0.000  0.00  0.00    +0.000 C 
ATOM      7  C   UNL     1       0.715   1.499   0.000  0.00  0.00    +0.000 C 
ATOM      8  C   UNL     1      -0.714   0.674   0.000  0.00  0.00    +0.000 C 
ATOM      9  C   UNL     1       0.000   0.262   0.000  0.00  0.00    +0.000 C 
ENDROOT
BRANCH   5  10
ATOM     10  O   UNL     1      -1.429   1.911   0.000  0.00  0.00    +0.000 OA
BRANCH  10  11
ATOM     11  P   UNL     1      -2.143   1.499   0.000  0.00  0.00    +0.000 P 
ATOM     12  O   UNL     1      -2.858   1.087   0.000  0.00  0.00    +0.000 OA
ATOM     13  O   UNL     1      -2.556   2.213   0.000  0.00  0.00    +0.000 OA
ATOM     14  O   UNL     1      -1.731   0.784   0.000  0.00  0.00    +0.000 OA
ENDBRANCH  10  11
ENDBRANCH   5  10
BRANCH   4  15
ATOM     15  O   UNL     1       0.000   2.736   0.000  0.00  0.00    +0.000 OA
BRANCH  15  16
ATOM     16  P   UNL     1      -0.714   3.149   0.000  0.00  0.00    +0.000 P 
ATOM     17  O   UNL     1      -0.302   3.863   0.000  0.00  0.00    +0.000 OA
ATOM     18  O   UNL     1      -1.429   3.562   0.000  0.00  0.00    +0.000 OA
ATOM     19  O   UNL     1      -1.127   2.434   0.000  0.00  0.00    +0.000 OA
ENDBRANCH  15  16
ENDBRANCH   4  15
BRANCH   6  20
ATOM     20  O   UNL     1       1.429   0.262   0.000  0.00  0.00    +0.000 OA
BRANCH  20  21
ATOM     21  P   UNL     1       1.429  -0.563   0.000  0.00  0.00    +0.000 P 
ATOM     22  O   UNL     1       2.254  -0.563   0.000  0.00  0.00    +0.000 OA
ATOM     23  O   UNL     1       0.604  -0.563   0.000  0.00  0.00    +0.000 OA
BRANCH  21  24
ATOM     24  O   UNL     1       1.429  -1.388   0.000  0.00  0.00    +0.000 OA
BRANCH  24  25
ATOM     25  C   UNL     1       2.143  -1.801   0.000  0.00  0.00    +0.000 C 
BRANCH  25  27
ATOM     26  O   UNL     1       1.429  -3.038   0.000  0.00  0.00    +0.000 OA
ATOM     27  C   UNL     1       2.143  -2.626   0.000  0.00  0.00    +0.000 C 
BRANCH  27  29
ATOM     28  O   UNL     1       2.858  -3.863   0.000  0.00  0.00    +0.000 OA
ATOM     29  C   UNL     1       2.858  -3.038   0.000  0.00  0.00    +0.000 C 
ENDBRANCH  27  29
ENDBRANCH  25  27
ENDBRANCH  24  25
ENDBRANCH  21  24
ENDBRANCH  20  21
ENDBRANCH   6  20
TORSDOF 10
