REMARK  Name = 
REMARK  1 active torsions:
REMARK  status: ('A' for Active; 'I' for Inactive)
REMARK    1  A    between atoms: C_1  and  C_2
REMARK                            x       y       z     vdW  Elec       q    Type
REMARK                         _______ _______ _______ _____ _____    ______ ____
ROOT
ATOM      1  C   UNL     1       0.352  -0.202   0.000  0.00  0.00    +0.000 C 
ATOM      2  N   UNL     1       1.077  -0.621   0.000  0.00  0.00    +0.000 NA
ATOM      3  O   UNL     1       0.352   0.621   0.000  0.00  0.00    +0.000 OA
ENDROOT
BRANCH   1   4
ATOM      4  C   UNL     1      -0.360  -0.614   0.000  0.00  0.00    +0.000 C 
ATOM      5  C   UNL     1      -1.077  -0.202   0.000  0.00  0.00    +0.000 C 
ENDBRANCH   1   4
TORSDOF 1
