REMARK  Name = 
REMARK  8 active torsions:
REMARK  status: ('A' for Active; 'I' for Inactive)
REMARK    1  A    between atoms: CA_3  and  C_22
REMARK    2  A    between atoms: C_4  and  C_14
REMARK    3  A    between atoms: CA_7  and  N_9
REMARK    4  A    between atoms: C_10  and  C_13
REMARK    5  A    between atoms: C_13  and  C_15
REMARK    6  A    between atoms: C_14  and  S_25
REMARK    7  A    between atoms: N_21  and  O_36
REMARK    8  A    between atoms: S_25  and  C_26
REMARK                            x       y       z     vdW  Elec       q    Type
REMARK                         _______ _______ _______ _____ _____    ______ ____
ROOT
ATOM      1  C   UNL     1      14.603 -10.725   0.000  0.00  0.00    +0.000 C 
ATOM      2  N   UNL     1      14.603 -11.509   0.000  0.00  0.00    +0.000 N 
ATOM      3  CA  UNL     1      15.345 -11.922   0.000  0.00  0.00    +0.000 C 
ATOM      4  C   UNL     1      16.046 -11.509   0.000  0.00  0.00    +0.000 C 
ATOM      5  C   UNL     1      16.046 -10.725   0.000  0.00  0.00    +0.000 C 
ATOM      6  S   UNL     1      15.345 -10.313   0.000  0.00  0.00    +0.000 S 
ATOM      7  CA  UNL     1      13.778 -10.725   0.000  0.00  0.00    +0.000 C 
ATOM      8  C   UNL     1      13.778 -11.509   0.000  0.00  0.00    +0.000 C 
ATOM      9  O   UNL     1      13.076 -11.922   0.000  0.00  0.00    +0.000 OA
ENDROOT
BRANCH   3  10
ATOM     10  C   UNL     1      15.345 -12.747   0.000  0.00  0.00    +0.000 C 
ATOM     11  O   UNL     1      16.046 -13.200   0.000  0.00  0.00    +0.000 OA
ATOM     12  OXT UNL     1      14.603 -13.159   0.000  0.00  0.00    +0.000 OA
ENDBRANCH   3  10
BRANCH   7  13
ATOM     13  N   UNL     1      13.076 -10.313   0.000  0.00  0.00    +0.000 NA
ATOM     14  C   UNL     1      12.375 -10.725   0.000  0.00  0.00    +0.000 C 
ATOM     15  O   UNL     1      12.375 -11.509   0.000  0.00  0.00    +0.000 OA
BRANCH  14  16
ATOM     16  C   UNL     1      11.674 -10.313   0.000  0.00  0.00    +0.000 C 
ATOM     17  N   UNL     1      11.674  -9.447   0.000  0.00  0.00    +0.000 NA
BRANCH  16  18
ATOM     18  C   UNL     1      10.931 -10.725   0.000  0.00  0.00    +0.000 A 
ATOM     19  C   UNL     1      10.271 -10.230   0.000  0.00  0.00    +0.000 A 
ATOM     20  S   UNL     1       9.611 -10.725   0.000  0.00  0.00    +0.000 S 
ATOM     21  C   UNL     1       9.859 -11.550   0.000  0.00  0.00    +0.000 A 
ATOM     22  N   UNL     1      10.684 -11.550   0.000  0.00  0.00    +0.000 NA
ATOM     23  N   UNL     1       9.364 -12.210   0.000  0.00  0.00    +0.000 NA
ENDBRANCH  16  18
BRANCH  17  24
ATOM     24  O   UNL     1      12.385  -9.028   0.000  0.00  0.00    +0.000 OA
ATOM     25  C   UNL     1      12.385  -8.203   0.000  0.00  0.00    +0.000 C 
ENDBRANCH  17  24
ENDBRANCH  14  16
ENDBRANCH   7  13
BRANCH   4  26
ATOM     26  C   UNL     1      16.748 -11.963   0.000  0.00  0.00    +0.000 C 
BRANCH  26  27
ATOM     27  S   UNL     1      17.449 -11.550   0.000  0.00  0.00    +0.000 S 
BRANCH  27  28
ATOM     28  C   UNL     1      18.150 -11.963   0.000  0.00  0.00    +0.000 A 
ATOM     29  N   UNL     1      18.150 -12.788   0.000  0.00  0.00    +0.000 NA
ATOM     30  C   UNL     1      18.851 -13.200   0.000  0.00  0.00    +0.000 A 
ATOM     31  C   UNL     1      19.594 -12.788   0.000  0.00  0.00    +0.000 A 
ATOM     32  N   UNL     1      19.594 -11.963   0.000  0.00  0.00    +0.000 NA
ATOM     33  N   UNL     1      18.851 -11.550   0.000  0.00  0.00    +0.000 N 
ATOM     34  O   UNL     1      18.851 -14.025   0.000  0.00  0.00    +0.000 OA
ATOM     35  O   UNL     1      20.295 -13.200   0.000  0.00  0.00    +0.000 OA
ATOM     36  C   UNL     1      18.851 -10.725   0.000  0.00  0.00    +0.000 C 
ENDBRANCH  27  28
ENDBRANCH  26  27
ENDBRANCH   4  26
TORSDOF 8
