REMARK  Name = 
REMARK  18 active torsions:
REMARK  status: ('A' for Active; 'I' for Inactive)
REMARK    1  A    between atoms: C_4  and  C_6
REMARK    2  A    between atoms: C_6  and  C_7
REMARK    3  A    between atoms: C_10  and  O_62
REMARK    4  A    between atoms: C_15  and  C_16
REMARK    5  A    between atoms: C_16  and  C_19
REMARK    6  A    between atoms: C_22  and  C_23
REMARK    7  A    between atoms: C_27  and  C_28
REMARK    8  A    between atoms: C_28  and  C_30
REMARK    9  A    between atoms: C_35  and  C_36
REMARK   10  A    between atoms: C_46  and  C_47
REMARK   11  A    between atoms: N_48  and  C_50
REMARK   12  A    between atoms: C_50  and  C_51
REMARK   13  A    between atoms: C_50  and  C_52
REMARK   14  A    between atoms: C_52  and  C_54
REMARK   15  A    between atoms: C_54  and  C_55
REMARK   16  A    between atoms: N_56  and  C_58
REMARK   17  A    between atoms: C_58  and  C_59
REMARK   18  A    between atoms: O_62  and  C_63
REMARK                            x       y       z     vdW  Elec       q    Type
REMARK                         _______ _______ _______ _____ _____    ______ ____
ROOT
ATOM      1  C   UNL     1       0.453   1.857   0.000  0.00  0.00    +0.000 C 
ATOM      2  O   UNL     1       0.453   2.682   0.000  0.00  0.00    +0.000 OA
ATOM      3  N   UNL     1       1.168   1.445   0.000  0.00  0.00    +0.000 NA
ATOM      4  C   UNL     1       1.882   1.857   0.000  0.00  0.00    +0.000 C 
ATOM      5  C   UNL     1       2.596   1.445   0.000  0.00  0.00    +0.000 C 
ATOM      6  O   UNL     1       2.596   0.620   0.000  0.00  0.00    +0.000 OA
ATOM      7  N   UNL     1       3.311   1.857   0.000  0.00  0.00    +0.000 NA
ATOM      8  C   UNL     1       4.026   1.445   0.000  0.00  0.00    +0.000 C 
ATOM      9  C   UNL     1       4.026   0.620   0.000  0.00  0.00    +0.000 C 
ATOM     10  O   UNL     1       3.311   0.207   0.000  0.00  0.00    +0.000 OA
ATOM     11  N   UNL     1       4.740   0.207   0.000  0.00  0.00    +0.000 NA
ATOM     12  C   UNL     1       4.740  -0.618   0.000  0.00  0.00    +0.000 C 
ATOM     13  C   UNL     1       4.026  -1.030   0.000  0.00  0.00    +0.000 C 
ATOM     14  O   UNL     1       3.311  -0.618   0.000  0.00  0.00    +0.000 OA
ATOM     15  N   UNL     1       4.026  -1.855   0.000  0.00  0.00    +0.000 NA
ATOM     16  C   UNL     1       3.311  -2.268   0.000  0.00  0.00    +0.000 C 
ATOM     17  C   UNL     1       2.596  -1.855   0.000  0.00  0.00    +0.000 C 
ATOM     18  O   UNL     1       2.596  -1.030   0.000  0.00  0.00    +0.000 OA
ATOM     19  N   UNL     1       1.882  -2.268   0.000  0.00  0.00    +0.000 NA
ATOM     20  C   UNL     1       1.168  -1.855   0.000  0.00  0.00    +0.000 C 
ATOM     21  C   UNL     1       1.168  -1.030   0.000  0.00  0.00    +0.000 C 
ATOM     22  S   UNL     1       0.453  -0.618   0.000  0.00  0.00    +0.000 S 
ATOM     23  S   UNL     1       0.453   0.207   0.000  0.00  0.00    +0.000 S 
ATOM     24  C   UNL     1      -0.261   0.620   0.000  0.00  0.00    +0.000 C 
ATOM     25  C   UNL     1      -0.261   1.445   0.000  0.00  0.00    +0.000 C 
ENDROOT
BRANCH  20  26
ATOM     26  C   UNL     1       0.453  -2.268   0.000  0.00  0.00    +0.000 C 
ATOM     27  O   UNL     1       0.453  -3.093   0.000  0.00  0.00    +0.000 OA
ATOM     28  N   UNL     1      -0.261  -1.855   0.000  0.00  0.00    +0.000 N 
ATOM     29  C   UNL     1      -0.352  -1.035   0.000  0.00  0.00    +0.000 C 
ATOM     30  C   UNL     1      -1.159  -0.864   0.000  0.00  0.00    +0.000 C 
ATOM     31  C   UNL     1      -1.019  -2.191   0.000  0.00  0.00    +0.000 C 
ATOM     32  C   UNL     1      -1.632  -1.639   0.000  0.00  0.00    +0.000 C 
BRANCH  31  33
ATOM     33  C   UNL     1      -1.192  -2.998   0.000  0.00  0.00    +0.000 C 
ATOM     34  N   UNL     1      -1.976  -3.252   0.000  0.00  0.00    +0.000 NA
ATOM     35  O   UNL     1      -0.579  -3.551   0.000  0.00  0.00    +0.000 OA
BRANCH  34  36
ATOM     36  C   UNL     1      -2.589  -2.700   0.000  0.00  0.00    +0.000 C 
BRANCH  36  37
ATOM     37  C   UNL     1      -3.374  -2.954   0.000  0.00  0.00    +0.000 C 
ATOM     38  N   UNL     1      -3.987  -2.402   0.000  0.00  0.00    +0.000 NA
ATOM     39  O   UNL     1      -3.546  -3.761   0.000  0.00  0.00    +0.000 OA
BRANCH  38  40
ATOM     40  C   UNL     1      -4.771  -2.656   0.000  0.00  0.00    +0.000 C 
BRANCH  40  41
ATOM     41  C   UNL     1      -5.384  -2.104   0.000  0.00  0.00    +0.000 C 
ATOM     42  N   UNL     1      -6.169  -2.358   0.000  0.00  0.00    +0.000 NA
ATOM     43  O   UNL     1      -5.212  -1.297   0.000  0.00  0.00    +0.000 OA
ENDBRANCH  40  41
ENDBRANCH  38  40
ENDBRANCH  36  37
BRANCH  36  44
ATOM     44  C   UNL     1      -2.417  -1.893   0.000  0.00  0.00    +0.000 C 
BRANCH  44  45
ATOM     45  C   UNL     1      -3.030  -1.341   0.000  0.00  0.00    +0.000 C 
BRANCH  45  46
ATOM     46  C   UNL     1      -2.857  -0.534   0.000  0.00  0.00    +0.000 C 
ATOM     47  N   UNL     1      -3.470   0.019   0.000  0.00  0.00    +0.000 NA
ENDBRANCH  45  46
ENDBRANCH  44  45
ENDBRANCH  36  44
ENDBRANCH  34  36
ENDBRANCH  31  33
ENDBRANCH  20  26
BRANCH  12  48
ATOM     48  C   UNL     1       5.455  -1.030   0.000  0.00  0.00    +0.000 C 
ATOM     49  C   UNL     1       6.169  -0.618   0.000  0.00  0.00    +0.000 C 
ATOM     50  O   UNL     1       5.455  -1.855   0.000  0.00  0.00    +0.000 OA
ENDBRANCH  12  48
BRANCH   8  51
ATOM     51  C   UNL     1       4.740   1.857   0.000  0.00  0.00    +0.000 C 
ATOM     52  C   UNL     1       5.455   1.445   0.000  0.00  0.00    +0.000 C 
BRANCH  51  53
ATOM     53  C   UNL     1       4.740   2.682   0.000  0.00  0.00    +0.000 C 
ATOM     54  C   UNL     1       5.455   3.095   0.000  0.00  0.00    +0.000 C 
ENDBRANCH  51  53
ENDBRANCH   8  51
BRANCH   4  55
ATOM     55  C   UNL     1       1.882   2.682   0.000  0.00  0.00    +0.000 C 
BRANCH  55  56
ATOM     56  C   UNL     1       2.596   3.095   0.000  0.00  0.00    +0.000 A 
ATOM     57  C   UNL     1       3.309   2.677   0.000  0.00  0.00    +0.000 A 
ATOM     58  C   UNL     1       4.023   3.089   0.000  0.00  0.00    +0.000 A 
ATOM     59  C   UNL     1       4.024   3.915   0.000  0.00  0.00    +0.000 A 
ATOM     60  C   UNL     1       3.304   4.327   0.000  0.00  0.00    +0.000 A 
ATOM     61  C   UNL     1       2.593   3.913   0.000  0.00  0.00    +0.000 A 
BRANCH  59  62
ATOM     62  O   UNL     1       4.738   4.328   0.000  0.00  0.00    +0.000 OA
BRANCH  62  63
ATOM     63  C   UNL     1       5.453   3.917   0.000  0.00  0.00    +0.000 C 
ATOM     64  C   UNL     1       6.167   4.330   0.000  0.00  0.00    +0.000 C 
ENDBRANCH  62  63
ENDBRANCH  59  62
ENDBRANCH  55  56
ENDBRANCH   4  55
BRANCH  16  65
ATOM     65  C   UNL     1       3.311  -3.093   0.000  0.00  0.00    +0.000 C 
BRANCH  65  66
ATOM     66  C   UNL     1       4.026  -3.505   0.000  0.00  0.00    +0.000 C 
ATOM     67  O   UNL     1       4.026  -4.330   0.000  0.00  0.00    +0.000 OA
ATOM     68  N   UNL     1       4.740  -3.093   0.000  0.00  0.00    +0.000 NA
ENDBRANCH  65  66
ENDBRANCH  16  65
TORSDOF 18
