REMARK  Name = 
REMARK  4 active torsions:
REMARK  status: ('A' for Active; 'I' for Inactive)
REMARK    1  A    between atoms: C_3  and  C_6
REMARK    2  A    between atoms: C_6  and  O_8
REMARK    3  A    between atoms: O_8  and  C_9
REMARK    4  A    between atoms: C_19  and  C_21
REMARK                            x       y       z     vdW  Elec       q    Type
REMARK                         _______ _______ _______ _____ _____    ______ ____
ROOT
ATOM      1  C   UNL     1      -0.715  -0.412   0.000  0.00  0.00    +0.000 A 
ATOM      2  C   UNL     1      -0.715  -1.238   0.000  0.00  0.00    +0.000 A 
ATOM      3  C   UNL     1       0.000  -1.650   0.000  0.00  0.00    +0.000 A 
ATOM      4  C   UNL     1       0.715  -1.238   0.000  0.00  0.00    +0.000 A 
ATOM      5  C   UNL     1       0.715  -0.412   0.000  0.00  0.00    +0.000 A 
ATOM      6  C   UNL     1       0.000   0.000   0.000  0.00  0.00    +0.000 A 
ATOM      7  C   UNL     1       1.429   0.000   0.000  0.00  0.00    +0.000 C 
ATOM      8  C   UNL     1       2.143  -0.412   0.000  0.00  0.00    +0.000 C 
ATOM      9  C   UNL     1       2.143  -1.238   0.000  0.00  0.00    +0.000 C 
ATOM     10  N   UNL     1       1.429  -1.650   0.000  0.00  0.00    +0.000 N 
ATOM     11  C   UNL     1       1.429  -2.475   0.000  0.00  0.00    +0.000 C 
ATOM     12  O   UNL     1       2.143  -2.888   0.000  0.00  0.00    +0.000 OA
ENDROOT
BRANCH  11  13
ATOM     13  C   UNL     1       0.715  -2.888   0.000  0.00  0.00    +0.000 C 
ATOM     14 CL   UNL     1       0.715  -3.712   0.000  0.00  0.00    +0.000 Cl
ATOM     15 CL   UNL     1       0.000  -2.475   0.000  0.00  0.00    +0.000 Cl
ENDBRANCH  11  13
BRANCH   1  16
ATOM     16  O   UNL     1      -1.429   0.000   0.000  0.00  0.00    +0.000 OA
BRANCH  16  17
ATOM     17  C   UNL     1      -1.429   0.825   0.000  0.00  0.00    +0.000 C 
ATOM     18  O   UNL     1      -0.715   1.238   0.000  0.00  0.00    +0.000 OA
BRANCH  17  21
ATOM     19  C   UNL     1      -3.037   2.229   0.000  0.00  0.00    +0.000 A 
ATOM     20  C   UNL     1      -2.230   2.058   0.000  0.00  0.00    +0.000 A 
ATOM     21  C   UNL     1      -2.143   1.238   0.000  0.00  0.00    +0.000 A 
ATOM     22  O   UNL     1      -2.897   0.902   0.000  0.00  0.00    +0.000 OA
ATOM     23  C   UNL     1      -3.449   1.515   0.000  0.00  0.00    +0.000 A 
ENDBRANCH  17  21
ENDBRANCH  16  17
ENDBRANCH   1  16
TORSDOF 4
