REMARK  Name = 
REMARK  6 active torsions:
REMARK  status: ('A' for Active; 'I' for Inactive)
REMARK    1  A    between atoms: N_1  and  C_3
REMARK    2  A    between atoms: C_3  and  C_7
REMARK    3  A    between atoms: C_5  and  C_9
REMARK    4  A    between atoms: C_9  and  C_12
REMARK    5  A    between atoms: C_12  and  O_16
REMARK    6  A    between atoms: O_16  and  P_18
REMARK                            x       y       z     vdW  Elec       q    Type
REMARK                         _______ _______ _______ _____ _____    ______ ____
ROOT
ATOM      1  N   UNL     1      -0.400   0.096   0.000  0.00  0.00    +0.000 N 
ATOM      2  C   UNL     1       0.354   0.432   0.000  0.00  0.00    +0.000 A 
ATOM      3  C   UNL     1      -0.313  -0.724   0.000  0.00  0.00    +0.000 A 
ATOM      4  C   UNL     1       0.906  -0.181   0.000  0.00  0.00    +0.000 A 
ATOM      5  C   UNL     1       0.526   1.239   0.000  0.00  0.00    +0.000 C 
ATOM      6  S   UNL     1       0.494  -0.896   0.000  0.00  0.00    +0.000 S 
ENDROOT
BRANCH   1   7
ATOM      7  C   UNL     1      -1.114   0.509   0.000  0.00  0.00    +0.000 C 
BRANCH   7   8
ATOM      8  C   UNL     1      -1.829   0.096   0.000  0.00  0.00    +0.000 A 
ATOM      9  C   UNL     1      -1.829  -0.729   0.000  0.00  0.00    +0.000 A 
ATOM     10  C   UNL     1      -2.543   0.509   0.000  0.00  0.00    +0.000 A 
ATOM     11  N   UNL     1      -2.543  -1.141   0.000  0.00  0.00    +0.000 NA
ATOM     12  N   UNL     1      -1.114  -1.141   0.000  0.00  0.00    +0.000 NA
ATOM     13  N   UNL     1      -3.257   0.096   0.000  0.00  0.00    +0.000 NA
ATOM     14  C   UNL     1      -3.257  -0.729   0.000  0.00  0.00    +0.000 A 
ATOM     15  C   UNL     1      -3.972  -1.141   0.000  0.00  0.00    +0.000 C 
ENDBRANCH   7   8
ENDBRANCH   1   7
BRANCH   4  16
ATOM     16  C   UNL     1       1.727  -0.095   0.000  0.00  0.00    +0.000 C 
BRANCH  16  17
ATOM     17  C   UNL     1       2.062   0.659   0.000  0.00  0.00    +0.000 C 
BRANCH  17  18
ATOM     18  O   UNL     1       2.883   0.745   0.000  0.00  0.00    +0.000 OA
BRANCH  18  19
ATOM     19  P   UNL     1       3.218   1.499   0.000  0.00  0.00    +0.000 P 
ATOM     20  O   UNL     1       3.554   2.252   0.000  0.00  0.00    +0.000 OA
ATOM     21  O   UNL     1       3.972   1.163   0.000  0.00  0.00    +0.000 OA
ATOM     22  O   UNL     1       2.465   1.834   0.000  0.00  0.00    +0.000 OA
ENDBRANCH  18  19
ENDBRANCH  17  18
ENDBRANCH  16  17
ENDBRANCH   4  16
TORSDOF 6
REMARK  Name = 
REMARK  6 active torsions:
REMARK  status: ('A' for Active; 'I' for Inactive)
REMARK    1  A    between atoms: N_1  and  C_3
REMARK    2  A    between atoms: C_3  and  C_7
REMARK    3  A    between atoms: C_5  and  C_9
REMARK    4  A    between atoms: C_9  and  C_12
REMARK    5  A    between atoms: C_12  and  O_16
REMARK    6  A    between atoms: O_16  and  P_18
REMARK                            x       y       z     vdW  Elec       q    Type
REMARK                         _______ _______ _______ _____ _____    ______ ____
ROOT
ATOM      1 CL   UNL     1       0.711  -2.252   0.000  0.00  0.00    +0.000 Cl
ENDROOT
TORSDOF 0
