REMARK  Name = 
REMARK  7 active torsions:
REMARK  status: ('A' for Active; 'I' for Inactive)
REMARK    1  A    between atoms: N_2  and  C_4
REMARK    2  A    between atoms: C_4  and  C_5
REMARK    3  A    between atoms: C_5  and  C_6
REMARK    4  A    between atoms: C_6  and  O_7
REMARK    5  A    between atoms: O_7  and  C_8
REMARK    6  A    between atoms: C_14  and  S_17
REMARK    7  A    between atoms: S_17  and  C_20
REMARK                            x       y       z     vdW  Elec       q    Type
REMARK                         _______ _______ _______ _____ _____    ______ ____
ROOT
ATOM      1  C   UNL     1      -2.765  -3.164   0.000  0.00  0.00    +0.000 A 
ATOM      2  C   UNL     1      -2.765  -2.339   0.000  0.00  0.00    +0.000 A 
ATOM      3  C   UNL     1      -2.051  -1.926   0.000  0.00  0.00    +0.000 A 
ATOM      4  C   UNL     1      -1.337  -2.339   0.000  0.00  0.00    +0.000 A 
ATOM      5  C   UNL     1      -1.337  -3.164   0.000  0.00  0.00    +0.000 A 
ATOM      6  C   UNL     1      -2.051  -3.576   0.000  0.00  0.00    +0.000 A 
ATOM      7  C   UNL     1      -0.552  -3.419   0.000  0.00  0.00    +0.000 A 
ATOM      8  N   UNL     1      -0.067  -2.751   0.000  0.00  0.00    +0.000 NA
ATOM      9  N   UNL     1      -0.552  -2.084   0.000  0.00  0.00    +0.000 NA
ENDROOT
BRANCH   7  10
ATOM     10  S   UNL     1      -0.297  -4.203   0.000  0.00  0.00    +0.000 S 
ATOM     11  O   UNL     1      -1.081  -4.458   0.000  0.00  0.00    +0.000 OA
ATOM     12  O   UNL     1       0.488  -3.948   0.000  0.00  0.00    +0.000 OA
BRANCH  10  13
ATOM     13  C   UNL     1      -0.042  -4.988   0.000  0.00  0.00    +0.000 A 
ATOM     14  C   UNL     1      -0.594  -5.601   0.000  0.00  0.00    +0.000 A 
ATOM     15  C   UNL     1      -0.339  -6.386   0.000  0.00  0.00    +0.000 A 
ATOM     16  C   UNL     1       0.468  -6.557   0.000  0.00  0.00    +0.000 A 
ATOM     17  C   UNL     1       1.020  -5.944   0.000  0.00  0.00    +0.000 A 
ATOM     18  C   UNL     1       0.765  -5.159   0.000  0.00  0.00    +0.000 A 
ATOM     19  C   UNL     1       1.317  -4.546   0.000  0.00  0.00    +0.000 A 
ATOM     20  C   UNL     1       2.124  -4.718   0.000  0.00  0.00    +0.000 A 
ATOM     21  C   UNL     1       2.379  -5.502   0.000  0.00  0.00    +0.000 A 
ATOM     22  C   UNL     1       1.827  -6.115   0.000  0.00  0.00    +0.000 A 
ENDBRANCH  10  13
ENDBRANCH   7  10
BRANCH   1  23
ATOM     23  O   UNL     1      -3.480  -3.576   0.000  0.00  0.00    +0.000 OA
BRANCH  23  24
ATOM     24  C   UNL     1      -4.194  -3.164   0.000  0.00  0.00    +0.000 C 
BRANCH  24  25
ATOM     25  C   UNL     1      -4.909  -3.576   0.000  0.00  0.00    +0.000 C 
BRANCH  25  26
ATOM     26  C   UNL     1      -5.623  -3.164   0.000  0.00  0.00    +0.000 C 
BRANCH  26  28
ATOM     27  C   UNL     1      -7.052  -3.164   0.000  0.00  0.00    +0.000 C 
ATOM     28  N   UNL     1      -6.338  -3.576   0.000  0.00  0.00    +0.000 NA
ATOM     29  C   UNL     1      -6.338  -4.401   0.000  0.00  0.00    +0.000 C 
ENDBRANCH  26  28
ENDBRANCH  25  26
ENDBRANCH  24  25
ENDBRANCH  23  24
ENDBRANCH   1  23
TORSDOF 7
