REMARK  Name = 
REMARK  5 active torsions:
REMARK  status: ('A' for Active; 'I' for Inactive)
REMARK    1  A    between atoms: C_10  and  C_13
REMARK    2  A    between atoms: C_15  and  N_16
REMARK    3  A    between atoms: C_17  and  C_19
REMARK    4  A    between atoms: C_22  and  O_23
REMARK    5  A    between atoms: O_23  and  C_24
REMARK                            x       y       z     vdW  Elec       q    Type
REMARK                         _______ _______ _______ _____ _____    ______ ____
ROOT
ATOM      1  C   UNL     1       2.143  -2.062   0.000  0.00  0.00    +0.000 A 
ATOM      2  N   UNL     1       2.811  -2.547   0.000  0.00  0.00    +0.000 NA
ATOM      3  C   UNL     1       2.556  -3.332   0.000  0.00  0.00    +0.000 A 
ATOM      4  C   UNL     1       1.731  -3.332   0.000  0.00  0.00    +0.000 A 
ATOM      5  S   UNL     1       1.476  -2.547   0.000  0.00  0.00    +0.000 S 
ENDROOT
BRANCH   1  15
ATOM      6  C   UNL     1       0.000   0.000   0.000  0.00  0.00    +0.000 C 
ATOM      7  C   UNL     1       0.715  -0.412   0.000  0.00  0.00    +0.000 C 
ATOM      8  C   UNL     1       1.429   0.000   0.000  0.00  0.00    +0.000 C 
ATOM      9  C   UNL     1       2.143  -0.412   0.000  0.00  0.00    +0.000 C 
ATOM     10  C   UNL     1       2.858   0.000   0.000  0.00  0.00    +0.000 C 
ATOM     11  S   UNL     1       3.572  -0.412   0.000  0.00  0.00    +0.000 S 
ATOM     12  C   UNL     1       3.572  -1.238   0.000  0.00  0.00    +0.000 C 
ATOM     13  N   UNL     1       4.287  -1.650   0.000  0.00  0.00    +0.000 NA
ATOM     14  N   UNL     1       2.858  -1.650   0.000  0.00  0.00    +0.000 NA
ATOM     15  C   UNL     1       2.143  -1.238   0.000  0.00  0.00    +0.000 C 
ATOM     16  C   UNL     1       1.429  -1.650   0.000  0.00  0.00    +0.000 C 
ATOM     17  O   UNL     1       0.715  -1.238   0.000  0.00  0.00    +0.000 OA
ENDBRANCH   1  15
BRANCH   3  18
ATOM     18  N   UNL     1       3.041  -3.999   0.000  0.00  0.00    +0.000 NA
ATOM     19  C   UNL     1       3.861  -3.913   0.000  0.00  0.00    +0.000 C 
ATOM     20  O   UNL     1       4.197  -3.160   0.000  0.00  0.00    +0.000 OA
BRANCH  19  21
ATOM     21  C   UNL     1       4.346  -4.581   0.000  0.00  0.00    +0.000 A 
ATOM     22  N   UNL     1       5.167  -4.495   0.000  0.00  0.00    +0.000 NA
ATOM     23  C   UNL     1       5.652  -5.162   0.000  0.00  0.00    +0.000 A 
ATOM     24  C   UNL     1       5.316  -5.916   0.000  0.00  0.00    +0.000 A 
ATOM     25  C   UNL     1       4.496  -6.002   0.000  0.00  0.00    +0.000 A 
ATOM     26  C   UNL     1       4.011  -5.334   0.000  0.00  0.00    +0.000 A 
BRANCH  24  27
ATOM     27  O   UNL     1       5.801  -6.583   0.000  0.00  0.00    +0.000 OA
BRANCH  27  28
ATOM     28  C   UNL     1       5.465  -7.337   0.000  0.00  0.00    +0.000 C 
ATOM     29  F   UNL     1       5.950  -8.004   0.000  0.00  0.00    +0.000 F 
ATOM     30  F   UNL     1       4.645  -7.423   0.000  0.00  0.00    +0.000 F 
ENDBRANCH  27  28
ENDBRANCH  24  27
ENDBRANCH  19  21
ENDBRANCH   3  18
TORSDOF 5
