REMARK  Name = 
REMARK  3 active torsions:
REMARK  status: ('A' for Active; 'I' for Inactive)
REMARK    1  A    between atoms: N_1  and  N_2
REMARK    2  A    between atoms: N_3  and  N_4
REMARK    3  A    between atoms: C_9  and  C_10
REMARK                            x       y       z     vdW  Elec       q    Type
REMARK                         _______ _______ _______ _____ _____    ______ ____
ROOT
ATOM      1  N   UNL     1      -1.031  -0.357   0.000  0.00  0.00    +0.000 NA
ATOM      2  C   UNL     1      -0.206  -0.357   0.000  0.00  0.00    +0.000 C 
ATOM      3  C   UNL     1       0.206  -1.072   0.000  0.00  0.00    +0.000 C 
ENDROOT
BRANCH   1   4
ATOM      4  N   UNL     1      -1.444  -1.072   0.000  0.00  0.00    +0.000 NA
ATOM      5  N   UNL     1      -2.681  -1.786   0.000  0.00  0.00    +0.000 NA
ATOM      6  N   UNL     1      -2.681  -0.357   0.000  0.00  0.00    +0.000 NA
ATOM      7  C   UNL     1      -2.269  -1.072   0.000  0.00  0.00    +0.000 C 
ENDBRANCH   1   4
BRANCH   2   9
ATOM      8  N   UNL     1       1.031   0.357   0.000  0.00  0.00    +0.000 NA
ATOM      9  C   UNL     1       0.206   0.357   0.000  0.00  0.00    +0.000 C 
BRANCH   8  10
ATOM     10  N   UNL     1       1.444   1.072   0.000  0.00  0.00    +0.000 NA
ATOM     11  N   UNL     1       2.681   1.786   0.000  0.00  0.00    +0.000 NA
ATOM     12  N   UNL     1       2.681   0.357   0.000  0.00  0.00    +0.000 NA
ATOM     13  C   UNL     1       2.269   1.072   0.000  0.00  0.00    +0.000 C 
ENDBRANCH   8  10
ENDBRANCH   2   9
TORSDOF 3
