REMARK  Name = 
REMARK  7 active torsions:
REMARK  status: ('A' for Active; 'I' for Inactive)
REMARK    1  A    between atoms: O_1  and  C_11
REMARK    2  A    between atoms: O_1  and  C_17
REMARK    3  A    between atoms: N_3  and  C_8
REMARK    4  A    between atoms: C_6  and  C_7
REMARK    5  A    between atoms: C_7  and  C_8
REMARK    6  A    between atoms: C_8  and  C_11
REMARK    7  A    between atoms: C_18  and  C_20
REMARK                            x       y       z     vdW  Elec       q    Type
REMARK                         _______ _______ _______ _____ _____    ______ ____
ROOT
ATOM      1  O   UNL     1      -0.275   0.192   0.000  0.00  0.00    +0.000 OA
ENDROOT
BRANCH   1   3
ATOM      2  N   UNL     1       1.154  -1.458   0.000  0.00  0.00    +0.000 NA
ATOM      3  C   UNL     1       0.439  -0.221   0.000  0.00  0.00    +0.000 A 
ATOM      4  C   UNL     1       1.868  -0.221   0.000  0.00  0.00    +0.000 A 
ATOM      5  C   UNL     1       1.154   0.192   0.000  0.00  0.00    +0.000 A 
ATOM      6  C   UNL     1       0.439  -1.046   0.000  0.00  0.00    +0.000 A 
ATOM      7  C   UNL     1       1.868  -1.046   0.000  0.00  0.00    +0.000 A 
BRANCH   4   9
ATOM      8  N   UNL     1       5.497   1.034   0.000  0.00  0.00    +0.000 NA
ATOM      9  C   UNL     1       2.583   0.192   0.000  0.00  0.00    +0.000 A 
ATOM     10  C   UNL     1       4.012   0.192   0.000  0.00  0.00    +0.000 A 
ATOM     11  C   UNL     1       3.297  -0.221   0.000  0.00  0.00    +0.000 A 
ATOM     12  C   UNL     1       4.012   1.017   0.000  0.00  0.00    +0.000 A 
ATOM     13  C   UNL     1       2.583   1.017   0.000  0.00  0.00    +0.000 A 
ATOM     14  C   UNL     1       3.297   1.429   0.000  0.00  0.00    +0.000 A 
ATOM     15  C   UNL     1       4.749  -0.249   0.000  0.00  0.00    +0.000 A 
ATOM     16  C   UNL     1       4.749   1.458   0.000  0.00  0.00    +0.000 A 
ATOM     17  C   UNL     1       5.497   0.175   0.000  0.00  0.00    +0.000 A 
ENDBRANCH   4   9
ENDBRANCH   1   3
BRANCH   1  18
ATOM     18  C   UNL     1      -0.990  -0.221   0.000  0.00  0.00    +0.000 C 
BRANCH  18  19
ATOM     19  C   UNL     1      -1.704   0.192   0.000  0.00  0.00    +0.000 C 
BRANCH  19  20
ATOM     20  N   UNL     1      -1.704   1.017   0.000  0.00  0.00    +0.000 NA
ATOM     21  H   UNL     1      -2.147   1.273   0.000  0.00  0.00    +0.000 HD
ATOM     22  H   UNL     1      -1.261   1.273   0.000  0.00  0.00    +0.000 HD
ENDBRANCH  19  20
BRANCH  19  23
ATOM     23  C   UNL     1      -2.419  -0.221   0.000  0.00  0.00    +0.000 C 
BRANCH  23  25
ATOM     24  N   UNL     1      -4.020   1.180   0.000  0.00  0.00    +0.000 NA
ATOM     25  C   UNL     1      -3.133   0.192   0.000  0.00  0.00    +0.000 C 
ATOM     26  C   UNL     1      -3.882  -0.142   0.000  0.00  0.00    +0.000 A 
ATOM     27  C   UNL     1      -3.218   1.008   0.000  0.00  0.00    +0.000 C 
ATOM     28  C   UNL     1      -4.433   0.472   0.000  0.00  0.00    +0.000 A 
ATOM     29  C   UNL     1      -4.138  -0.926   0.000  0.00  0.00    +0.000 A 
ATOM     30  C   UNL     1      -5.240   0.302   0.000  0.00  0.00    +0.000 A 
ATOM     31  C   UNL     1      -4.946  -1.097   0.000  0.00  0.00    +0.000 A 
ATOM     32  C   UNL     1      -5.497  -0.482   0.000  0.00  0.00    +0.000 A 
ENDBRANCH  23  25
ENDBRANCH  19  23
ENDBRANCH  18  19
ENDBRANCH   1  18
TORSDOF 7
