REMARK  Name = 
REMARK  6 active torsions:
REMARK  status: ('A' for Active; 'I' for Inactive)
REMARK    1  A    between atoms: C_5  and  C_12
REMARK    2  A    between atoms: C_5  and  C_13
REMARK    3  A    between atoms: C_12  and  N_24
REMARK    4  A    between atoms: C_13  and  N_26
REMARK    5  A    between atoms: C_18  and  C_19
REMARK    6  A    between atoms: C_18  and  N_25
REMARK                            x       y       z     vdW  Elec       q    Type
REMARK                         _______ _______ _______ _____ _____    ______ ____
ROOT
ATOM      1  C   UNL     1       6.124  -0.026   0.000  0.00  0.00    +0.000 A 
ATOM      2  C   UNL     1       1.484  -0.026   0.000  0.00  0.00    +0.000 A 
ATOM      3  C   UNL     1       5.940  -0.830   0.000  0.00  0.00    +0.000 A 
ATOM      4  C   UNL     1       1.667  -0.830   0.000  0.00  0.00    +0.000 A 
ATOM      5  C   UNL     1       5.519   0.535   0.000  0.00  0.00    +0.000 A 
ATOM      6  C   UNL     1       2.088   0.535   0.000  0.00  0.00    +0.000 A 
ATOM      7  C   UNL     1       5.152  -1.073   0.000  0.00  0.00    +0.000 A 
ATOM      8  C   UNL     1       2.456  -1.073   0.000  0.00  0.00    +0.000 A 
ATOM      9  C   UNL     1       4.216   0.937   0.000  0.00  0.00    +0.000 C 
ATOM     10  C   UNL     1       3.391   0.937   0.000  0.00  0.00    +0.000 C 
ATOM     11  C   UNL     1       4.731   0.292   0.000  0.00  0.00    +0.000 A 
ATOM     12  C   UNL     1       2.877   0.292   0.000  0.00  0.00    +0.000 A 
ATOM     13  C   UNL     1       4.547  -0.512   0.000  0.00  0.00    +0.000 A 
ATOM     14  C   UNL     1       3.060  -0.512   0.000  0.00  0.00    +0.000 A 
ATOM     15  N   UNL     1       3.804  -0.870   0.000  0.00  0.00    +0.000 N 
ENDROOT
BRANCH  15  16
ATOM     16  C   UNL     1       3.804  -1.695   0.000  0.00  0.00    +0.000 C 
BRANCH  16  17
ATOM     17  C   UNL     1       4.518  -2.108   0.000  0.00  0.00    +0.000 C 
BRANCH  17  18
ATOM     18  C   UNL     1       4.518  -2.933   0.000  0.00  0.00    +0.000 C 
BRANCH  18  23
ATOM     19  C   UNL     1       5.233  -4.170   0.000  0.00  0.00    +0.000 C 
ATOM     20  C   UNL     1       5.947  -2.933   0.000  0.00  0.00    +0.000 C 
ATOM     21  C   UNL     1       5.947  -4.583   0.000  0.00  0.00    +0.000 C 
ATOM     22  C   UNL     1       6.662  -3.345   0.000  0.00  0.00    +0.000 C 
ATOM     23  N   UNL     1       5.233  -3.345   0.000  0.00  0.00    +0.000 NA
ATOM     24  N   UNL     1       6.662  -4.170   0.000  0.00  0.00    +0.000 NA
BRANCH  24  25
ATOM     25  C   UNL     1       7.376  -4.583   0.000  0.00  0.00    +0.000 C 
BRANCH  25  26
ATOM     26  C   UNL     1       7.376  -5.408   0.000  0.00  0.00    +0.000 C 
ATOM     27  O   UNL     1       8.091  -5.820   0.000  0.00  0.00    +0.000 OA
ENDBRANCH  25  26
ENDBRANCH  24  25
ENDBRANCH  18  23
ENDBRANCH  17  18
ENDBRANCH  16  17
ENDBRANCH  15  16
TORSDOF 6
