REMARK  Name = 
REMARK  11 active torsions:
REMARK  status: ('A' for Active; 'I' for Inactive)
REMARK    1  A    between atoms: C_2  and  S_4
REMARK    2  A    between atoms: S_4  and  C_5
REMARK    3  A    between atoms: C_5  and  C_6
REMARK    4  A    between atoms: C_6  and  C_7
REMARK    5  A    between atoms: C_6  and  C_14
REMARK    6  A    between atoms: C_7  and  C_8
REMARK    7  A    between atoms: N_16  and  C_17
REMARK    8  A    between atoms: C_17  and  C_18
REMARK    9  A    between atoms: C_18  and  O_20
REMARK   10  A    between atoms: O_20  and  C_21
REMARK   11  A    between atoms: C_21  and  C_22
REMARK                            x       y       z     vdW  Elec       q    Type
REMARK                         _______ _______ _______ _____ _____    ______ ____
ROOT
ATOM      1  C   UNL     1       1.969  -6.509   0.000  0.00  0.00    +0.000 C 
ATOM      2  O   UNL     1       2.239  -7.289   0.000  0.00  0.00    +0.000 OA
ATOM      3  N   UNL     1       2.509  -5.886   0.000  0.00  0.00    +0.000 NA
ENDROOT
BRANCH   1   4
ATOM      4  C   UNL     1       1.159  -6.353   0.000  0.00  0.00    +0.000 C 
BRANCH   4   5
ATOM      5  C   UNL     1       0.889  -5.574   0.000  0.00  0.00    +0.000 C 
BRANCH   5   6
ATOM      6  S   UNL     1       1.429  -4.950   0.000  0.00  0.00    +0.000 S 
BRANCH   6   8
ATOM      7  C   UNL     1       0.349  -4.014   0.000  0.00  0.00    +0.000 C 
ATOM      8  C   UNL     1       1.159  -4.170   0.000  0.00  0.00    +0.000 C 
ATOM      9  O   UNL     1       1.699  -3.547   0.000  0.00  0.00    +0.000 OA
ENDBRANCH   6   8
ENDBRANCH   5   6
ENDBRANCH   4   5
BRANCH   4  10
ATOM     10  C   UNL     1       0.619  -6.977   0.000  0.00  0.00    +0.000 C 
BRANCH  10  11
ATOM     11  C   UNL     1      -0.191  -6.821   0.000  0.00  0.00    +0.000 A 
ATOM     12  C   UNL     1      -0.731  -7.445   0.000  0.00  0.00    +0.000 A 
ATOM     13  C   UNL     1      -1.542  -7.289   0.000  0.00  0.00    +0.000 A 
ATOM     14  C   UNL     1      -1.812  -6.509   0.000  0.00  0.00    +0.000 A 
ATOM     15  C   UNL     1      -1.272  -5.886   0.000  0.00  0.00    +0.000 A 
ATOM     16  C   UNL     1      -0.461  -6.041   0.000  0.00  0.00    +0.000 A 
ENDBRANCH  10  11
ENDBRANCH   4  10
ENDBRANCH   1   4
BRANCH   3  17
ATOM     17  C   UNL     1       3.319  -6.041   0.000  0.00  0.00    +0.000 C 
BRANCH  17  18
ATOM     18  C   UNL     1       3.859  -5.418   0.000  0.00  0.00    +0.000 C 
ATOM     19  O   UNL     1       3.589  -4.638   0.000  0.00  0.00    +0.000 OA
BRANCH  18  20
ATOM     20  O   UNL     1       4.670  -5.574   0.000  0.00  0.00    +0.000 OA
BRANCH  20  21
ATOM     21  C   UNL     1       5.210  -4.950   0.000  0.00  0.00    +0.000 C 
BRANCH  21  22
ATOM     22  C   UNL     1       6.020  -5.106   0.000  0.00  0.00    +0.000 A 
ATOM     23  C   UNL     1       6.560  -4.482   0.000  0.00  0.00    +0.000 A 
ATOM     24  C   UNL     1       7.370  -4.638   0.000  0.00  0.00    +0.000 A 
ATOM     25  C   UNL     1       7.640  -5.418   0.000  0.00  0.00    +0.000 A 
ATOM     26  C   UNL     1       7.100  -6.041   0.000  0.00  0.00    +0.000 A 
ATOM     27  C   UNL     1       6.290  -5.886   0.000  0.00  0.00    +0.000 A 
ENDBRANCH  21  22
ENDBRANCH  20  21
ENDBRANCH  18  20
ENDBRANCH  17  18
ENDBRANCH   3  17
TORSDOF 11
