REMARK  Name = 
REMARK  5 active torsions:
REMARK  status: ('A' for Active; 'I' for Inactive)
REMARK    1  A    between atoms: C_2  and  C_3
REMARK    2  A    between atoms: C_2  and  N_10
REMARK    3  A    between atoms: N_10  and  C_11
REMARK    4  A    between atoms: C_13  and  C_24
REMARK    5  A    between atoms: N_17  and  C_18
REMARK                            x       y       z     vdW  Elec       q    Type
REMARK                         _______ _______ _______ _____ _____    ______ ____
ROOT
ATOM      1  C   UNL     1       2.858  -1.650   0.000  0.00  0.00    +0.000 A 
ATOM      2  C   UNL     1       2.858  -2.475   0.000  0.00  0.00    +0.000 A 
ATOM      3  C   UNL     1       2.143  -2.888   0.000  0.00  0.00    +0.000 A 
ATOM      4  C   UNL     1       1.429  -2.475   0.000  0.00  0.00    +0.000 A 
ATOM      5  C   UNL     1       1.429  -1.650   0.000  0.00  0.00    +0.000 A 
ATOM      6  N   UNL     1       2.143  -1.238   0.000  0.00  0.00    +0.000 NA
ATOM      7  N   UNL     1       0.715  -1.238   0.000  0.00  0.00    +0.000 NA
ENDROOT
BRANCH   7   8
ATOM      8  C   UNL     1       0.715  -0.412   0.000  0.00  0.00    +0.000 A 
ATOM      9  C   UNL     1       0.000   0.000   0.000  0.00  0.00    +0.000 A 
ATOM     10  N   UNL     1       0.000   0.825   0.000  0.00  0.00    +0.000 NA
ATOM     11  C   UNL     1       0.715   1.238   0.000  0.00  0.00    +0.000 A 
ATOM     12  C   UNL     1       1.429   0.825   0.000  0.00  0.00    +0.000 A 
ATOM     13  N   UNL     1       1.429   0.000   0.000  0.00  0.00    +0.000 NA
ENDBRANCH   7   8
BRANCH   3  14
ATOM     14  C   UNL     1       2.143  -3.712   0.000  0.00  0.00    +0.000 A 
ATOM     15  C   UNL     1       2.811  -4.197   0.000  0.00  0.00    +0.000 A 
ATOM     16  N   UNL     1       2.556  -4.982   0.000  0.00  0.00    +0.000 NA
ATOM     17  N   UNL     1       1.731  -4.982   0.000  0.00  0.00    +0.000 N 
ATOM     18  C   UNL     1       1.476  -4.197   0.000  0.00  0.00    +0.000 A 
ATOM     19  C   UNL     1       1.246  -5.649   0.000  0.00  0.00    +0.000 C 
ENDBRANCH   3  14
BRANCH   1  20
ATOM     20  N   UNL     1       3.572  -1.238   0.000  0.00  0.00    +0.000 NA
BRANCH  20  22
ATOM     21  C   UNL     1       4.287  -2.475   0.000  0.00  0.00    +0.000 C 
ATOM     22  C   UNL     1       4.287  -1.650   0.000  0.00  0.00    +0.000 C 
BRANCH  22  23
ATOM     23  C   UNL     1       5.001  -1.238   0.000  0.00  0.00    +0.000 A 
ATOM     24  C   UNL     1       5.001  -0.412   0.000  0.00  0.00    +0.000 A 
ATOM     25  C   UNL     1       5.716   0.000   0.000  0.00  0.00    +0.000 A 
ATOM     26  C   UNL     1       6.430  -0.412   0.000  0.00  0.00    +0.000 A 
ATOM     27  C   UNL     1       6.430  -1.238   0.000  0.00  0.00    +0.000 A 
ATOM     28  C   UNL     1       5.716  -1.650   0.000  0.00  0.00    +0.000 A 
ATOM     29  F   UNL     1       7.145   0.000   0.000  0.00  0.00    +0.000 F 
ENDBRANCH  22  23
ENDBRANCH  20  22
ENDBRANCH   1  20
TORSDOF 5
