REMARK  Name = 
REMARK  0 active torsions:
REMARK  status: ('A' for Active; 'I' for Inactive)
REMARK                            x       y       z     vdW  Elec       q    Type
REMARK                         _______ _______ _______ _____ _____    ______ ____
ROOT
ATOM      1 MO   UNL     1       2.383  -0.045   0.000  0.00  0.00    +0.000 Mo
ATOM      2  S   UNL     1       2.383   0.780   0.000  0.00  0.00    +0.000 SA
ATOM      3  S   UNL     1       3.208  -0.045   0.000  0.00  0.00    +0.000 S 
ATOM      4  S   UNL     1       1.558  -0.045   0.000  0.00  0.00    +0.000 S 
ATOM      5  S   UNL     1       2.383  -0.870   0.000  0.00  0.00    +0.000 SA
ENDROOT
TORSDOF 0
