REMARK  Name = 
REMARK  3 active torsions:
REMARK  status: ('A' for Active; 'I' for Inactive)
REMARK    1  A    between atoms: C_3  and  C_8
REMARK    2  A    between atoms: C_3  and  C_19
REMARK    3  A    between atoms: C_5  and  C_14
REMARK                            x       y       z     vdW  Elec       q    Type
REMARK                         _______ _______ _______ _____ _____    ______ ____
ROOT
ATOM      1  C   UNL     1      -0.351   1.085   0.000  0.00  0.00    +0.000 A 
ATOM      2  C   UNL     1      -0.352   0.258   0.000  0.00  0.00    +0.000 A 
ATOM      3  C   UNL     1       0.362  -0.154   0.000  0.00  0.00    +0.000 A 
ATOM      4  C   UNL     1       1.078   0.259   0.000  0.00  0.00    +0.000 A 
ATOM      5  C   UNL     1       1.075   1.089   0.000  0.00  0.00    +0.000 A 
ATOM      6  C   UNL     1       0.360   1.498   0.000  0.00  0.00    +0.000 A 
ATOM      7  F   UNL     1      -1.070   1.502   0.000  0.00  0.00    +0.000 F 
ENDROOT
BRANCH   2  12
ATOM      8  C   UNL     1      -2.492  -0.160   0.000  0.00  0.00    +0.000 A 
ATOM      9  C   UNL     1      -2.493  -0.987   0.000  0.00  0.00    +0.000 A 
ATOM     10  C   UNL     1      -1.779  -1.400   0.000  0.00  0.00    +0.000 A 
ATOM     11  C   UNL     1      -1.062  -0.987   0.000  0.00  0.00    +0.000 A 
ATOM     12  C   UNL     1      -1.065  -0.156   0.000  0.00  0.00    +0.000 A 
ATOM     13  C   UNL     1      -1.780   0.253   0.000  0.00  0.00    +0.000 A 
ATOM     14 CL   UNL     1      -3.211  -1.393   0.000  0.00  0.00    +0.000 Cl
ATOM     15 CL   UNL     1      -1.787  -2.221   0.000  0.00  0.00    +0.000 Cl
ENDBRANCH   2  12
BRANCH   5  18
ATOM     16  C   UNL     1       1.374   2.221   0.000  0.00  0.00    +0.000 C 
ATOM     17  C   UNL     1       2.199   2.221   0.000  0.00  0.00    +0.000 C 
ATOM     18  C   UNL     1       1.786   1.506   0.000  0.00  0.00    +0.000 C 
BRANCH  18  19
ATOM     19  C   UNL     1       2.499   1.093   0.000  0.00  0.00    +0.000 C 
ATOM     20  O   UNL     1       3.211   1.510   0.000  0.00  0.00    +0.000 OA
ATOM     21  O   UNL     1       2.495   0.269   0.000  0.00  0.00    +0.000 OA
ENDBRANCH  18  19
ENDBRANCH   5  18
TORSDOF 3
