REMARK  Name = 
REMARK  3 active torsions:
REMARK  status: ('A' for Active; 'I' for Inactive)
REMARK    1  A    between atoms: C_2  and  C_7
REMARK    2  A    between atoms: C_5  and  O_9
REMARK    3  A    between atoms: O_9  and  C_10
REMARK                            x       y       z     vdW  Elec       q    Type
REMARK                         _______ _______ _______ _____ _____    ______ ____
ROOT
ATOM      1  C   UNL     1       0.716   0.639   0.000  0.00  0.00    +0.000 A 
ATOM      2  C   UNL     1       1.438   1.060   0.000  0.00  0.00    +0.000 A 
ATOM      3  C   UNL     1       2.150   0.639   0.000  0.00  0.00    +0.000 A 
ATOM      4  C   UNL     1       2.150  -0.183   0.000  0.00  0.00    +0.000 A 
ATOM      5  C   UNL     1       1.438  -0.604   0.000  0.00  0.00    +0.000 A 
ATOM      6  C   UNL     1       0.716  -0.183   0.000  0.00  0.00    +0.000 A 
ATOM      7  C   UNL     1       2.932   0.890   0.000  0.00  0.00    +0.000 C 
ATOM      8  O   UNL     1       3.413   0.238   0.000  0.00  0.00    +0.000 OA
ATOM      9  B   UNL     1       2.932  -0.434   0.000  0.00  0.00    +0.000 B 
ATOM     10  O   UNL     1       3.139  -1.060   0.000  0.00  0.00    +0.000 OA
ENDROOT
BRANCH   1  11
ATOM     11  O   UNL     1      -0.003   1.046   0.000  0.00  0.00    +0.000 OA
BRANCH  11  16
ATOM     12  C   UNL     1      -1.416  -0.618   0.000  0.00  0.00    +0.000 A 
ATOM     13  C   UNL     1      -2.135  -0.212   0.000  0.00  0.00    +0.000 A 
ATOM     14  C   UNL     1      -2.143   0.613   0.000  0.00  0.00    +0.000 A 
ATOM     15  C   UNL     1      -1.433   1.032   0.000  0.00  0.00    +0.000 A 
ATOM     16  C   UNL     1      -0.714   0.627   0.000  0.00  0.00    +0.000 A 
ATOM     17  C   UNL     1      -0.706  -0.198   0.000  0.00  0.00    +0.000 A 
BRANCH  13  18
ATOM     18  C   UNL     1      -2.845  -0.632   0.000  0.00  0.00    +0.000 C 
ATOM     19  N   UNL     1      -3.413  -0.968   0.000  0.00  0.00    +0.000 NA
ENDBRANCH  13  18
ENDBRANCH  11  16
ENDBRANCH   1  11
TORSDOF 3
