REMARK  Name = 
REMARK  9 active torsions:
REMARK  status: ('A' for Active; 'I' for Inactive)
REMARK    1  A    between atoms: C_5  and  O_45
REMARK    2  A    between atoms: C_6  and  N_8
REMARK    3  A    between atoms: C_17  and  N_21
REMARK    4  A    between atoms: C_25  and  O_43
REMARK    5  A    between atoms: C_26  and  O_32
REMARK    6  A    between atoms: O_32  and  C_33
REMARK    7  A    between atoms: C_33  and  C_34
REMARK    8  A    between atoms: C_34  and  C_35
REMARK    9  A    between atoms: C_35  and  N_36
REMARK                            x       y       z     vdW  Elec       q    Type
REMARK                         _______ _______ _______ _____ _____    ______ ____
ROOT
ATOM      1  N   UNL     1       1.429   0.825   0.000  0.00  0.00    +0.000 NA
ATOM      2  C   UNL     1       1.429   0.000   0.000  0.00  0.00    +0.000 A 
ATOM      3  C   UNL     1       2.143  -0.412   0.000  0.00  0.00    +0.000 A 
ATOM      4  C   UNL     1       2.858   0.000   0.000  0.00  0.00    +0.000 A 
ATOM      5  C   UNL     1       3.572  -0.412   0.000  0.00  0.00    +0.000 A 
ATOM      6  C   UNL     1       3.572  -1.238   0.000  0.00  0.00    +0.000 A 
ATOM      7  C   UNL     1       2.858  -1.650   0.000  0.00  0.00    +0.000 A 
ATOM      8  C   UNL     1       2.143  -1.238   0.000  0.00  0.00    +0.000 A 
ATOM      9  N   UNL     1       1.429  -1.650   0.000  0.00  0.00    +0.000 NA
ATOM     10  C   UNL     1       0.715  -1.238   0.000  0.00  0.00    +0.000 A 
ATOM     11  N   UNL     1       0.715  -0.412   0.000  0.00  0.00    +0.000 NA
ENDROOT
BRANCH   1  21
ATOM     12  N   UNL     1      -4.046   2.365   0.000  0.00  0.00    +0.000 NA
ATOM     13  C   UNL     1      -3.221   2.365   0.000  0.00  0.00    +0.000 C 
ATOM     14  O   UNL     1      -2.809   3.079   0.000  0.00  0.00    +0.000 OA
ATOM     15  N   UNL     1      -2.809   1.650   0.000  0.00  0.00    +0.000 NA
ATOM     16  C   UNL     1      -1.984   1.650   0.000  0.00  0.00    +0.000 A 
ATOM     17  N   UNL     1      -1.499   2.317   0.000  0.00  0.00    +0.000 NA
ATOM     18  C   UNL     1      -0.715   2.062   0.000  0.00  0.00    +0.000 A 
ATOM     19  C   UNL     1       0.000   2.475   0.000  0.00  0.00    +0.000 A 
ATOM     20  C   UNL     1       0.715   2.062   0.000  0.00  0.00    +0.000 A 
ATOM     21  C   UNL     1       0.715   1.238   0.000  0.00  0.00    +0.000 A 
ATOM     22  C   UNL     1       0.000   0.825   0.000  0.00  0.00    +0.000 A 
ATOM     23  C   UNL     1      -0.715   1.238   0.000  0.00  0.00    +0.000 A 
ATOM     24  S   UNL     1      -1.499   0.983   0.000  0.00  0.00    +0.000 S 
BRANCH  12  30
ATOM     25  C   UNL     1      -6.521   3.793   0.000  0.00  0.00    +0.000 C 
ATOM     26  C   UNL     1      -5.697   3.793   0.000  0.00  0.00    +0.000 A 
ATOM     27  C   UNL     1      -5.284   4.508   0.000  0.00  0.00    +0.000 A 
ATOM     28  C   UNL     1      -4.459   4.508   0.000  0.00  0.00    +0.000 A 
ATOM     29  C   UNL     1      -4.046   3.793   0.000  0.00  0.00    +0.000 A 
ATOM     30  C   UNL     1      -4.459   3.079   0.000  0.00  0.00    +0.000 A 
ATOM     31  C   UNL     1      -5.284   3.079   0.000  0.00  0.00    +0.000 A 
BRANCH  29  32
ATOM     32  O   UNL     1      -3.221   3.793   0.000  0.00  0.00    +0.000 OA
ATOM     33  C   UNL     1      -2.809   4.508   0.000  0.00  0.00    +0.000 C 
ENDBRANCH  29  32
ENDBRANCH  12  30
ENDBRANCH   1  21
BRANCH   5  34
ATOM     34  O   UNL     1       4.287   0.000   0.000  0.00  0.00    +0.000 OA
ATOM     35  C   UNL     1       5.001  -0.412   0.000  0.00  0.00    +0.000 C 
ENDBRANCH   5  34
BRANCH   6  36
ATOM     36  O   UNL     1       4.287  -1.650   0.000  0.00  0.00    +0.000 OA
BRANCH  36  37
ATOM     37  C   UNL     1       5.001  -1.238   0.000  0.00  0.00    +0.000 C 
BRANCH  37  38
ATOM     38  C   UNL     1       5.716  -1.650   0.000  0.00  0.00    +0.000 C 
BRANCH  38  39
ATOM     39  C   UNL     1       6.430  -1.238   0.000  0.00  0.00    +0.000 C 
BRANCH  39  40
ATOM     40  N   UNL     1       7.145  -1.650   0.000  0.00  0.00    +0.000 NA
ATOM     41  C   UNL     1       7.859  -1.238   0.000  0.00  0.00    +0.000 C 
ATOM     42  C   UNL     1       8.574  -1.650   0.000  0.00  0.00    +0.000 C 
ATOM     43  N   UNL     1       8.574  -2.475   0.000  0.00  0.00    +0.000 NA
ATOM     44  C   UNL     1       7.859  -2.888   0.000  0.00  0.00    +0.000 C 
ATOM     45  C   UNL     1       7.145  -2.475   0.000  0.00  0.00    +0.000 C 
ATOM     46  C   UNL     1       9.288  -2.888   0.000  0.00  0.00    +0.000 C 
ENDBRANCH  39  40
ENDBRANCH  38  39
ENDBRANCH  37  38
ENDBRANCH  36  37
ENDBRANCH   6  36
TORSDOF 9
