REMARK  Name = 
REMARK  17 active torsions:
REMARK  status: ('A' for Active; 'I' for Inactive)
REMARK    1  A    between atoms: S_1  and  O_2
REMARK    2  A    between atoms: S_1  and  C_16
REMARK    3  A    between atoms: O_2  and  C_30
REMARK    4  A    between atoms: O_6  and  C_29
REMARK    5  A    between atoms: O_6  and  C_37
REMARK    6  A    between atoms: N_10  and  C_13
REMARK    7  A    between atoms: N_11  and  C_18
REMARK    8  A    between atoms: N_12  and  C_40
REMARK    9  A    between atoms: C_13  and  C_14
REMARK   10  A    between atoms: C_13  and  C_15
REMARK   11  A    between atoms: C_14  and  C_16
REMARK   12  A    between atoms: C_15  and  C_17
REMARK   13  A    between atoms: C_17  and  C_20
REMARK   14  A    between atoms: C_18  and  C_19
REMARK   15  A    between atoms: C_18  and  C_21
REMARK   16  A    between atoms: C_21  and  C_22
REMARK   17  A    between atoms: C_37  and  C_41
REMARK                            x       y       z     vdW  Elec       q    Type
REMARK                         _______ _______ _______ _____ _____    ______ ____
ROOT
ATOM      1  O   UNL     1       0.000   1.238   0.000  0.00  0.00    +0.000 OA
ATOM      2  N   UNL     1      -1.429   1.238   0.000  0.00  0.00    +0.000 N 
ATOM      3  C   UNL     1      -0.715   1.650   0.000  0.00  0.00    +0.000 C 
ATOM      4  H   UNL     1      -1.872   1.493   0.000  0.00  0.00    +0.000 HD
ENDROOT
BRANCH   2   5
ATOM      5  C   UNL     1      -1.429   0.412   0.000  0.00  0.00    +0.000 C 
BRANCH   5   6
ATOM      6  C   UNL     1      -0.715   0.000   0.000  0.00  0.00    +0.000 C 
BRANCH   6   7
ATOM      7  C   UNL     1       0.000   0.412   0.000  0.00  0.00    +0.000 C 
BRANCH   7   8
ATOM      8  C   UNL     1       0.715   0.000   0.000  0.00  0.00    +0.000 A 
ATOM      9  C   UNL     1       1.429   0.412   0.000  0.00  0.00    +0.000 A 
ATOM     10  C   UNL     1       0.715  -0.825   0.000  0.00  0.00    +0.000 A 
ATOM     11  C   UNL     1       2.143   0.000   0.000  0.00  0.00    +0.000 A 
ATOM     12  C   UNL     1       1.429  -1.238   0.000  0.00  0.00    +0.000 A 
ATOM     13  C   UNL     1       2.143  -0.825   0.000  0.00  0.00    +0.000 A 
ENDBRANCH   7   8
ENDBRANCH   6   7
ENDBRANCH   5   6
BRANCH   5  14
ATOM     14  C   UNL     1      -2.143   0.000   0.000  0.00  0.00    +0.000 C 
BRANCH  14  15
ATOM     15  C   UNL     1      -2.143  -0.825   0.000  0.00  0.00    +0.000 C 
BRANCH  15  16
ATOM     16  S   UNL     1      -2.858  -1.238   0.000  0.00  0.00    +0.000 S 
ATOM     17  O   UNL     1      -2.445  -1.952   0.000  0.00  0.00    +0.000 OA
ATOM     18  O   UNL     1      -3.270  -0.523   0.000  0.00  0.00    +0.000 OA
BRANCH  16  19
ATOM     19  O   UNL     1      -3.572  -1.650   0.000  0.00  0.00    +0.000 OA
BRANCH  19  20
ATOM     20  C   UNL     1      -3.572  -2.475   0.000  0.00  0.00    +0.000 A 
ATOM     21  C   UNL     1      -4.287  -2.888   0.000  0.00  0.00    +0.000 A 
ATOM     22  C   UNL     1      -2.858  -2.888   0.000  0.00  0.00    +0.000 A 
ATOM     23  C   UNL     1      -4.287  -3.712   0.000  0.00  0.00    +0.000 A 
ATOM     24  C   UNL     1      -2.858  -3.712   0.000  0.00  0.00    +0.000 A 
ATOM     25  C   UNL     1      -3.572  -4.125   0.000  0.00  0.00    +0.000 A 
BRANCH  25  28
ATOM     26  O   UNL     1      -4.287  -5.362   0.000  0.00  0.00    +0.000 OA
ATOM     27  O   UNL     1      -2.858  -5.362   0.000  0.00  0.00    +0.000 OA
ATOM     28  N   UNL     1      -3.572  -4.950   0.000  0.00  0.00    +0.000 N 
ENDBRANCH  25  28
ENDBRANCH  19  20
ENDBRANCH  16  19
ENDBRANCH  15  16
ENDBRANCH  14  15
ENDBRANCH   5  14
ENDBRANCH   2   5
BRANCH   3  29
ATOM     29  C   UNL     1      -0.715   2.475   0.000  0.00  0.00    +0.000 C 
BRANCH  29  31
ATOM     30  O   UNL     1       0.715   1.650   0.000  0.00  0.00    +0.000 OA
ATOM     31  N   UNL     1       0.000   2.888   0.000  0.00  0.00    +0.000 N 
ATOM     32  C   UNL     1       0.715   2.475   0.000  0.00  0.00    +0.000 C 
ATOM     33  H   UNL     1       0.000   3.399   0.000  0.00  0.00    +0.000 HD
BRANCH  32  34
ATOM     34  O   UNL     1       1.429   2.888   0.000  0.00  0.00    +0.000 OA
BRANCH  34  35
ATOM     35  C   UNL     1       2.143   2.475   0.000  0.00  0.00    +0.000 C 
BRANCH  35  36
ATOM     36  C   UNL     1       2.858   2.888   0.000  0.00  0.00    +0.000 A 
ATOM     37  C   UNL     1       3.572   2.475   0.000  0.00  0.00    +0.000 A 
ATOM     38  C   UNL     1       2.858   3.712   0.000  0.00  0.00    +0.000 A 
ATOM     39  C   UNL     1       4.287   2.888   0.000  0.00  0.00    +0.000 A 
ATOM     40  C   UNL     1       3.572   4.125   0.000  0.00  0.00    +0.000 A 
ATOM     41  C   UNL     1       4.287   3.712   0.000  0.00  0.00    +0.000 A 
ENDBRANCH  35  36
ENDBRANCH  34  35
ENDBRANCH  32  34
ENDBRANCH  29  31
BRANCH  29  42
ATOM     42  C   UNL     1      -1.429   2.888   0.000  0.00  0.00    +0.000 C 
BRANCH  42  43
ATOM     43  C   UNL     1      -1.429   3.712   0.000  0.00  0.00    +0.000 A 
ATOM     44  C   UNL     1      -2.143   4.125   0.000  0.00  0.00    +0.000 A 
ATOM     45  C   UNL     1      -0.715   4.125   0.000  0.00  0.00    +0.000 A 
ATOM     46  C   UNL     1      -2.143   4.950   0.000  0.00  0.00    +0.000 A 
ATOM     47  C   UNL     1      -0.715   4.950   0.000  0.00  0.00    +0.000 A 
ATOM     48  C   UNL     1      -1.429   5.362   0.000  0.00  0.00    +0.000 A 
ENDBRANCH  42  43
ENDBRANCH  29  42
ENDBRANCH   3  29
TORSDOF 17
