REMARK  Name = 
REMARK  10 active torsions:
REMARK  status: ('A' for Active; 'I' for Inactive)
REMARK    1  A    between atoms: C_2  and  C_4
REMARK    2  A    between atoms: C_5  and  N_6
REMARK    3  A    between atoms: N_9  and  C_10
REMARK    4  A    between atoms: C_10  and  C_11
REMARK    5  A    between atoms: C_11  and  C_12
REMARK    6  A    between atoms: C_12  and  C_13
REMARK    7  A    between atoms: C_13  and  N_14
REMARK    8  A    between atoms: C_21  and  O_22
REMARK    9  A    between atoms: O_22  and  C_23
REMARK   10  A    between atoms: C_23  and  C_24
REMARK                            x       y       z     vdW  Elec       q    Type
REMARK                         _______ _______ _______ _____ _____    ______ ____
ROOT
ATOM      1  C   UNL     1      -1.615   0.265   0.000  0.00  0.00    +0.000 A 
ATOM      2  C   UNL     1      -0.808   0.093   0.000  0.00  0.00    +0.000 A 
ATOM      3  S   UNL     1      -0.395   0.808   0.000  0.00  0.00    +0.000 S 
ATOM      4  N   UNL     1      -0.947   1.421   0.000  0.00  0.00    +0.000 NA
ATOM      5  C   UNL     1      -1.690   1.079   0.000  0.00  0.00    +0.000 A 
ENDROOT
BRANCH   2   6
ATOM      6  N   UNL     1      -0.471  -0.658   0.000  0.00  0.00    +0.000 NA
ATOM      7  C   UNL     1       0.350  -0.744   0.000  0.00  0.00    +0.000 C 
ATOM      8  O   UNL     1       0.737  -0.209   0.000  0.00  0.00    +0.000 OA
ATOM      9  N   UNL     1       0.687  -1.497   0.000  0.00  0.00    +0.000 NA
BRANCH   9  10
ATOM     10  C   UNL     1       1.508  -1.582   0.000  0.00  0.00    +0.000 C 
BRANCH  10  11
ATOM     11  C   UNL     1       1.846  -2.335   0.000  0.00  0.00    +0.000 C 
BRANCH  11  12
ATOM     12  C   UNL     1       2.667  -2.421   0.000  0.00  0.00    +0.000 C 
BRANCH  12  13
ATOM     13  C   UNL     1       3.004  -3.174   0.000  0.00  0.00    +0.000 C 
BRANCH  13  14
ATOM     14  N   UNL     1       3.825  -3.259   0.000  0.00  0.00    +0.000 NA
ATOM     15  C   UNL     1       4.228  -3.971   0.000  0.00  0.00    +0.000 C 
ATOM     16  C   UNL     1       5.035  -3.797   0.000  0.00  0.00    +0.000 C 
ATOM     17  C   UNL     1       5.118  -2.976   0.000  0.00  0.00    +0.000 C 
ATOM     18  C   UNL     1       4.363  -2.643   0.000  0.00  0.00    +0.000 C 
ENDBRANCH  13  14
ENDBRANCH  12  13
ENDBRANCH  11  12
ENDBRANCH  10  11
ENDBRANCH   9  10
ENDBRANCH   2   6
BRANCH   1  20
ATOM     19  N   UNL     1      -2.101  -0.927   0.000  0.00  0.00    +0.000 NA
ATOM     20  C   UNL     1      -2.232  -0.280   0.000  0.00  0.00    +0.000 C 
ATOM     21  O   UNL     1      -2.858  -0.070   0.000  0.00  0.00    +0.000 OA
ENDBRANCH   1  20
BRANCH   5  22
ATOM     22  O   UNL     1      -2.405   1.494   0.000  0.00  0.00    +0.000 OA
BRANCH  22  23
ATOM     23  C   UNL     1      -2.403   2.319   0.000  0.00  0.00    +0.000 C 
BRANCH  23  24
ATOM     24  C   UNL     1      -3.117   2.733   0.000  0.00  0.00    +0.000 A 
ATOM     25  C   UNL     1      -3.117   3.558   0.000  0.00  0.00    +0.000 A 
ATOM     26  F   UNL     1      -2.546   3.888   0.000  0.00  0.00    +0.000 F 
ATOM     27  C   UNL     1      -3.832   3.971   0.000  0.00  0.00    +0.000 A 
ATOM     28  C   UNL     1      -4.546   3.558   0.000  0.00  0.00    +0.000 A 
ATOM     29 BR   UNL     1      -5.118   3.888   0.000  0.00  0.00    +0.000 Br
ATOM     30  C   UNL     1      -4.546   2.733   0.000  0.00  0.00    +0.000 A 
ATOM     31  C   UNL     1      -3.832   2.321   0.000  0.00  0.00    +0.000 A 
ATOM     32  F   UNL     1      -3.832   1.661   0.000  0.00  0.00    +0.000 F 
ENDBRANCH  23  24
ENDBRANCH  22  23
ENDBRANCH   5  22
TORSDOF 10
