REMARK  Name = 
REMARK  0 active torsions:
REMARK  status: ('A' for Active; 'I' for Inactive)
REMARK                            x       y       z     vdW  Elec       q    Type
REMARK                         _______ _______ _______ _____ _____    ______ ____
ROOT
ATOM      1 CA   UNL     1       1.532   0.646   0.000  0.00  0.00    +0.000 Ca
ENDROOT
TORSDOF 0
REMARK  Name = 
REMARK  0 active torsions:
REMARK  status: ('A' for Active; 'I' for Inactive)
REMARK                            x       y       z     vdW  Elec       q    Type
REMARK                         _______ _______ _______ _____ _____    ______ ____
ROOT
ATOM      1 CA   UNL     1      -0.722   1.250   0.000  0.00  0.00    +0.000 Ca
ENDROOT
TORSDOF 0
REMARK  Name = 
REMARK  0 active torsions:
REMARK  status: ('A' for Active; 'I' for Inactive)
REMARK                            x       y       z     vdW  Elec       q    Type
REMARK                         _______ _______ _______ _____ _____    ______ ____
ROOT
ATOM      1 CA   UNL     1      -1.326  -1.004   0.000  0.00  0.00    +0.000 Ca
ENDROOT
TORSDOF 0
REMARK  Name = 
REMARK  0 active torsions:
REMARK  status: ('A' for Active; 'I' for Inactive)
REMARK                            x       y       z     vdW  Elec       q    Type
REMARK                         _______ _______ _______ _____ _____    ______ ____
ROOT
ATOM      1  O   UNL     1       0.818   0.234   0.000  0.00  0.00    +0.000 OA
ATOM      2  O   UNL     1      -0.309   0.536   0.000  0.00  0.00    +0.000 OA
ATOM      3  O   UNL     1      -0.611  -0.591   0.000  0.00  0.00    +0.000 OA
ATOM      4  O   UNL     1       0.516  -0.893   0.000  0.00  0.00    +0.000 OA
ATOM      5  P   UNL     1       0.103  -0.179   0.000  0.00  0.00    +0.000 P 
ENDROOT
TORSDOF 0
REMARK  Name = 
REMARK  0 active torsions:
REMARK  status: ('A' for Active; 'I' for Inactive)
REMARK                            x       y       z     vdW  Elec       q    Type
REMARK                         _______ _______ _______ _____ _____    ______ ____
ROOT
ATOM      1  O   UNL     1       4.596   0.825   0.000  0.00  0.00    +0.000 OA
ATOM      2  O   UNL     1       4.596  -0.825   0.000  0.00  0.00    +0.000 OA
ATOM      3  O   UNL     1       3.771   0.000   0.000  0.00  0.00    +0.000 OA
ATOM      4  O   UNL     1       5.421   0.000   0.000  0.00  0.00    +0.000 OA
ATOM      5  P   UNL     1       4.596   0.000   0.000  0.00  0.00    +0.000 P 
ENDROOT
TORSDOF 0
