REMARK  Name = 
REMARK  6 active torsions:
REMARK  status: ('A' for Active; 'I' for Inactive)
REMARK    1  A    between atoms: C_1  and  C_4
REMARK    2  A    between atoms: C_4  and  O_7
REMARK    3  A    between atoms: O_7  and  C_10
REMARK    4  A    between atoms: C_9  and  N_11
REMARK    5  A    between atoms: C_13  and  C_14
REMARK    6  A    between atoms: C_14  and  N_16
REMARK                            x       y       z     vdW  Elec       q    Type
REMARK                         _______ _______ _______ _____ _____    ______ ____
ROOT
ATOM      1  C   UNL     1       1.426  -0.001   0.000  0.00  0.00    +0.000 A 
ATOM      2  C   UNL     1       0.688   0.396   0.000  0.00  0.00    +0.000 A 
ATOM      3  C   UNL     1       1.426  -0.826   0.000  0.00  0.00    +0.000 A 
ATOM      4  C   UNL     1      -0.005  -0.001   0.000  0.00  0.00    +0.000 A 
ATOM      5  C   UNL     1       0.688  -1.226   0.000  0.00  0.00    +0.000 A 
ATOM      6  C   UNL     1      -0.005  -0.826   0.000  0.00  0.00    +0.000 A 
ENDROOT
BRANCH   6   7
ATOM      7  N   UNL     1      -0.722  -1.240   0.000  0.00  0.00    +0.000 NA
ATOM      8  C   UNL     1      -1.429  -0.809   0.000  0.00  0.00    +0.000 C 
ATOM      9  O   UNL     1      -1.414   0.008   0.000  0.00  0.00    +0.000 OA
BRANCH   8  10
ATOM     10  C   UNL     1      -2.148  -1.201   0.000  0.00  0.00    +0.000 C 
BRANCH  10  11
ATOM     11  N   UNL     1      -2.841  -0.780   0.000  0.00  0.00    +0.000 NA
ATOM     12  C   UNL     1      -3.574  -1.180   0.000  0.00  0.00    +0.000 C 
ATOM     13  C   UNL     1      -2.841   0.020   0.000  0.00  0.00    +0.000 C 
ATOM     14  C   UNL     1      -4.281  -0.780   0.000  0.00  0.00    +0.000 C 
ATOM     15  C   UNL     1      -3.541   0.434   0.000  0.00  0.00    +0.000 C 
ATOM     16  C   UNL     1      -4.281   0.052   0.000  0.00  0.00    +0.000 C 
ENDBRANCH  10  11
ENDBRANCH   8  10
ENDBRANCH   6   7
BRANCH   1  17
ATOM     17  C   UNL     1       2.158   0.412   0.000  0.00  0.00    +0.000 C 
ATOM     18  O   UNL     1       2.158   1.240   0.000  0.00  0.00    +0.000 OA
BRANCH  17  19
ATOM     19  O   UNL     1       2.857  -0.001   0.000  0.00  0.00    +0.000 OA
BRANCH  19  20
ATOM     20  C   UNL     1       3.564   0.396   0.000  0.00  0.00    +0.000 C 
ATOM     21  C   UNL     1       4.281  -0.023   0.000  0.00  0.00    +0.000 C 
ENDBRANCH  19  20
ENDBRANCH  17  19
ENDBRANCH   1  17
TORSDOF 6
