REMARK  Name = 
REMARK  5 active torsions:
REMARK  status: ('A' for Active; 'I' for Inactive)
REMARK    1  A    between atoms: C_3  and  N_9
REMARK    2  A    between atoms: C_13  and  C_20
REMARK    3  A    between atoms: C_14  and  C_16
REMARK    4  A    between atoms: N_22  and  C_23
REMARK    5  A    between atoms: C_23  and  C_24
REMARK                            x       y       z     vdW  Elec       q    Type
REMARK                         _______ _______ _______ _____ _____    ______ ____
ROOT
ATOM      1  N   UNL     1       5.716  -4.950   0.000  0.00  0.00    +0.000 NA
ATOM      2  C   UNL     1       5.001  -5.362   0.000  0.00  0.00    +0.000 A 
ATOM      3  N   UNL     1       5.001  -6.188   0.000  0.00  0.00    +0.000 NA
ATOM      4  C   UNL     1       4.287  -6.600   0.000  0.00  0.00    +0.000 A 
ATOM      5  C   UNL     1       3.572  -6.188   0.000  0.00  0.00    +0.000 A 
ATOM      6  C   UNL     1       3.572  -5.362   0.000  0.00  0.00    +0.000 A 
ATOM      7  N   UNL     1       4.287  -4.950   0.000  0.00  0.00    +0.000 NA
ENDROOT
BRANCH   1  10
ATOM      8  C   UNL     1       6.430  -2.888   0.000  0.00  0.00    +0.000 A 
ATOM      9  C   UNL     1       6.430  -3.712   0.000  0.00  0.00    +0.000 A 
ATOM     10  C   UNL     1       5.716  -4.125   0.000  0.00  0.00    +0.000 A 
ATOM     11  C   UNL     1       5.001  -3.712   0.000  0.00  0.00    +0.000 A 
ATOM     12  C   UNL     1       5.001  -2.888   0.000  0.00  0.00    +0.000 A 
ATOM     13  C   UNL     1       5.716  -2.475   0.000  0.00  0.00    +0.000 A 
ATOM     14 CL   UNL     1       5.716  -1.650   0.000  0.00  0.00    +0.000 Cl
ATOM     15 CL   UNL     1       4.287  -4.125   0.000  0.00  0.00    +0.000 Cl
ENDBRANCH   1  10
BRANCH   6  16
ATOM     16  C   UNL     1       2.858  -4.950   0.000  0.00  0.00    +0.000 C 
ATOM     17  F   UNL     1       2.143  -4.537   0.000  0.00  0.00    +0.000 F 
ATOM     18  F   UNL     1       3.270  -4.236   0.000  0.00  0.00    +0.000 F 
ATOM     19  F   UNL     1       2.445  -5.665   0.000  0.00  0.00    +0.000 F 
ENDBRANCH   6  16
BRANCH   5  20
ATOM     20  C   UNL     1       2.858  -6.600   0.000  0.00  0.00    +0.000 C 
ATOM     21  O   UNL     1       2.858  -7.425   0.000  0.00  0.00    +0.000 OA
ATOM     22  N   UNL     1       2.143  -6.188   0.000  0.00  0.00    +0.000 NA
BRANCH  22  23
ATOM     23  C   UNL     1       1.429  -6.600   0.000  0.00  0.00    +0.000 C 
BRANCH  23  24
ATOM     24  C   UNL     1       0.715  -6.188   0.000  0.00  0.00    +0.000 C 
ATOM     25  C   UNL     1       0.000  -6.600   0.000  0.00  0.00    +0.000 C 
ATOM     26  C   UNL     1      -0.715  -6.188   0.000  0.00  0.00    +0.000 C 
ATOM     27  O   UNL     1      -0.715  -5.362   0.000  0.00  0.00    +0.000 OA
ATOM     28  C   UNL     1       0.000  -4.950   0.000  0.00  0.00    +0.000 C 
ATOM     29  C   UNL     1       0.715  -5.362   0.000  0.00  0.00    +0.000 C 
ENDBRANCH  23  24
ENDBRANCH  22  23
ENDBRANCH   5  20
TORSDOF 5
