REMARK  Name = 
REMARK  4 active torsions:
REMARK  status: ('A' for Active; 'I' for Inactive)
REMARK    1  A    between atoms: C_2  and  C_3
REMARK    2  A    between atoms: C_9  and  C_10
REMARK    3  A    between atoms: C_9  and  C_14
REMARK    4  A    between atoms: C_10  and  C_11
REMARK                            x       y       z     vdW  Elec       q    Type
REMARK                         _______ _______ _______ _____ _____    ______ ____
ROOT
ATOM      1  C   UNL     1       1.947   1.345   0.000  0.00  0.00    +0.000 C 
ATOM      2  C   UNL     1       1.462   0.677   0.000  0.00  0.00    +0.000 C 
ATOM      3  C   UNL     1       0.677   0.932   0.000  0.00  0.00    +0.000 C 
ATOM      4  C   UNL     1       0.677   1.757   0.000  0.00  0.00    +0.000 C 
ATOM      5  C   UNL     1       1.462   2.012   0.000  0.00  0.00    +0.000 C 
ATOM      6  C   UNL     1      -0.148   1.757   0.000  0.00  0.00    +0.000 C 
ATOM      7  C   UNL     1      -0.148   0.932   0.000  0.00  0.00    +0.000 C 
ENDROOT
BRANCH   1   9
ATOM      8  C   UNL     1       3.184   2.059   0.000  0.00  0.00    +0.000 C 
ATOM      9  C   UNL     1       2.772   1.345   0.000  0.00  0.00    +0.000 C 
ENDBRANCH   1   9
BRANCH   7  10
ATOM     10  C   UNL     1      -0.340   0.130   0.000  0.00  0.00    +0.000 C 
ATOM     11  N   UNL     1       0.258  -0.438   0.000  0.00  0.00    +0.000 NA
ENDBRANCH   7  10
BRANCH   7  12
ATOM     12  C   UNL     1      -0.950   0.740   0.000  0.00  0.00    +0.000 C 
BRANCH  12  13
ATOM     13  C   UNL     1      -1.518   1.338   0.000  0.00  0.00    +0.000 C 
ATOM     14  O   UNL     1      -2.320   1.145   0.000  0.00  0.00    +0.000 OA
ATOM     15  O   UNL     1      -1.283   2.129   0.000  0.00  0.00    +0.000 OA
ENDBRANCH  12  13
ENDBRANCH   7  12
TORSDOF 4
