REMARK  Name = 
REMARK  11 active torsions:
REMARK  status: ('A' for Active; 'I' for Inactive)
REMARK    1  A    between atoms: O_4  and  C_36
REMARK    2  A    between atoms: O_4  and  C_39
REMARK    3  A    between atoms: N_23  and  C_32
REMARK    4  A    between atoms: N_29  and  C_74
REMARK    5  A    between atoms: N_30  and  C_75
REMARK    6  A    between atoms: C_47  and  C_56
REMARK    7  A    between atoms: C_72  and  C_80
REMARK    8  A    between atoms: C_75  and  C_76
REMARK    9  A    between atoms: C_75  and  C_81
REMARK   10  A    between atoms: C_76  and  C_77
REMARK   11  A    between atoms: C_80  and  C_90
REMARK                            x       y       z     vdW  Elec       q    Type
REMARK                         _______ _______ _______ _____ _____    ______ ____
ROOT
ATOM      1 CL   UNK A   1      -3.144   3.122   0.000  0.00  0.00    +0.000 Cl
ATOM      2 CL   UNK A   1       2.571   3.122   0.000  0.00  0.00    +0.000 Cl
ATOM      3  O   UNK A   1      -6.113  -0.590   0.000  0.00  0.00    +0.000 OA
ATOM      4  O   UNK A   1      -2.432   0.239   0.000  0.00  0.00    +0.000 OA
ATOM      5  O   UNK A   1      -1.715   2.297   0.000  0.00  0.00    +0.000 OA
ATOM      6  O   UNK A   1      -1.002  -1.415   0.000  0.00  0.00    +0.000 OA
ATOM      7  O   UNK A   1      -2.430  -3.890   0.000  0.00  0.00    +0.000 OA
ATOM      8  O   UNK A   2      -3.144  -4.303   0.000  0.00  0.00    +0.000 OA
ATOM      9  O   UNK A   2      -6.002  -4.303   0.000  0.00  0.00    +0.000 OA
ATOM     10  O   UNK A   1       1.142   2.297   0.000  0.00  0.00    +0.000 OA
ATOM     11  O   UNK A   1      -0.286   3.122   0.000  0.00  0.00    +0.000 OA
ATOM     12  O   UNK A   1       1.142   0.647   0.000  0.00  0.00    +0.000 OA
ATOM     13  O   UNK A   1       4.584   1.231   0.000  0.00  0.00    +0.000 OA
ATOM     14  O   UNK A   1       3.286  -1.415   0.000  0.00  0.00    +0.000 OA
ATOM     15  N   UNK A   1      -3.859  -0.590   0.000  0.00  0.00    +0.000 N 
ATOM     16  N   UNK A   2      -5.288  -1.415   0.000  0.00  0.00    +0.000 N 
ATOM     17  N   UNK A   1      -1.715  -0.178   0.000  0.00  0.00    +0.000 N 
ATOM     18  N   UNK A   1       0.428  -0.590   0.000  0.00  0.00    +0.000 N 
ATOM     19  N   UNK A   1       2.571  -0.178   0.000  0.00  0.00    +0.000 N 
ATOM     20  C   UNK A   1      -4.573   0.647   0.000  0.00  0.00    +0.000 C 
ATOM     21  C   UNK A   1      -4.573  -0.178   0.000  0.00  0.00    +0.000 C 
ATOM     22  C   UNK A   1      -3.859   1.060   0.000  0.00  0.00    +0.000 A 
ATOM     23  C   UNK A   1      -5.288  -0.590   0.000  0.00  0.00    +0.000 C 
ATOM     24  C   UNK A   1      -3.859   1.885   0.000  0.00  0.00    +0.000 A 
ATOM     25  C   UNK A   1      -3.144   0.647   0.000  0.00  0.00    +0.000 A 
ATOM     26  C   UNK A   1      -3.144  -0.178   0.000  0.00  0.00    +0.000 C 
ATOM     27  C   UNK A   1      -2.430  -0.590   0.000  0.00  0.00    +0.000 C 
ATOM     28  C   UNK A   2      -4.573  -1.828   0.000  0.00  0.00    +0.000 C 
ATOM     29  C   UNK A   1      -3.144   2.297   0.000  0.00  0.00    +0.000 A 
ATOM     30  C   UNK A   1      -2.430   1.060   0.000  0.00  0.00    +0.000 A 
ATOM     31  C   UNK A   1      -2.430   1.885   0.000  0.00  0.00    +0.000 A 
ATOM     32  C   UNK A   1      -2.430  -1.415   0.000  0.00  0.00    +0.000 A 
ATOM     33  C   UNK A   2      -4.573  -2.653   0.000  0.00  0.00    +0.000 A 
ATOM     34  C   UNK A   2      -3.859  -3.065   0.000  0.00  0.00    +0.000 A 
ATOM     35  C   UNK A   2      -3.144  -2.653   0.000  0.00  0.00    +0.000 A 
ATOM     36  C   UNK A   2      -3.144  -1.828   0.000  0.00  0.00    +0.000 A 
ATOM     37  C   UNK A   1      -1.715  -1.828   0.000  0.00  0.00    +0.000 A 
ATOM     38  C   UNK A   1      -1.001  -0.590   0.000  0.00  0.00    +0.000 C 
ATOM     39  C   UNK A   1      -0.286  -0.178   0.000  0.00  0.00    +0.000 C 
ATOM     40  C   UNK A   2      -5.288  -3.065   0.000  0.00  0.00    +0.000 A 
ATOM     41  C   UNK A   1      -2.430  -3.065   0.000  0.00  0.00    +0.000 A 
ATOM     42  C   UNK A   2      -3.859  -3.890   0.000  0.00  0.00    +0.000 A 
ATOM     43  C   UNK A   1      -1.001   1.885   0.000  0.00  0.00    +0.000 A 
ATOM     44  C   UNK A   1      -0.286   0.647   0.000  0.00  0.00    +0.000 A 
ATOM     45  C   UNK A   1      -1.715  -2.653   0.000  0.00  0.00    +0.000 A 
ATOM     46  C   UNK A   2      -5.288  -3.890   0.000  0.00  0.00    +0.000 A 
ATOM     47  C   UNK A   1      -1.001   1.060   0.000  0.00  0.00    +0.000 A 
ATOM     48  C   UNK A   2      -4.573  -4.303   0.000  0.00  0.00    +0.000 A 
ATOM     49  C   UNK A   1      -0.286   2.297   0.000  0.00  0.00    +0.000 A 
ATOM     50  C   UNK A   1       0.428   1.060   0.000  0.00  0.00    +0.000 A 
ATOM     51  C   UNK A   1       0.428   1.885   0.000  0.00  0.00    +0.000 A 
ATOM     52  C   UNK A   1       1.857  -0.590   0.000  0.00  0.00    +0.000 C 
ATOM     53  C   UNK A   1       1.142  -0.178   0.000  0.00  0.00    +0.000 C 
ATOM     54  C   UNK A   1       4.000  -0.178   0.000  0.00  0.00    +0.000 C 
ATOM     55  C   UNK A   1       4.000   0.647   0.000  0.00  0.00    +0.000 C 
ATOM     56  C   UNK A   1       3.286  -0.590   0.000  0.00  0.00    +0.000 C 
ATOM     57  C   UNK A   1       3.286   1.060   0.000  0.00  0.00    +0.000 A 
ATOM     58  C   UNK A   1       1.857   1.885   0.000  0.00  0.00    +0.000 A 
ATOM     59  C   UNK A   1       3.286   1.885   0.000  0.00  0.00    +0.000 A 
ATOM     60  C   UNK A   1       2.571   0.647   0.000  0.00  0.00    +0.000 A 
ATOM     61  C   UNK A   1       2.571   2.297   0.000  0.00  0.00    +0.000 A 
ATOM     62  C   UNK A   1       1.857   1.060   0.000  0.00  0.00    +0.000 A 
ATOM     63  H   UNK A   1      -3.859  -1.102   0.000  0.00  0.00    +0.000 HD
ATOM     64  H   UNK A   2      -5.731  -1.671   0.000  0.00  0.00    +0.000 HD
ATOM     65  H   UNK A   1      -1.715   0.334   0.000  0.00  0.00    +0.000 HD
ATOM     66  H   UNK A   1       0.428  -1.102   0.000  0.00  0.00    +0.000 HD
ATOM     67  H   UNK A   1       2.163   0.130   0.000  0.00  0.00    +0.000 HD
ENDROOT
BRANCH  54  69
ATOM     68  O   UNK A   1       4.427  -1.771   0.000  0.00  0.00    +0.000 OA
ATOM     69  N   UNK A   1       4.797  -0.391   0.000  0.00  0.00    +0.000 N 
ATOM     70  C   UNK A   1       5.011  -1.188   0.000  0.00  0.00    +0.000 C 
ATOM     71  H   UNK A   1       5.159  -0.029   0.000  0.00  0.00    +0.000 HD
BRANCH  70  72
ATOM     72  C   UNK A   1       5.808  -1.401   0.000  0.00  0.00    +0.000 C 
BRANCH  72  73
ATOM     73  N   UNK A   1       6.021  -2.198   0.000  0.00  0.00    +0.000 NA
ATOM     74  C   ACE A   0       6.818  -2.412   0.000  0.00  0.00    +0.000 C 
ATOM     75  H   UNK A   1       5.660  -2.560   0.000  0.00  0.00    +0.000 HD
ENDBRANCH  72  73
BRANCH  72  76
ATOM     76  C   UNK A   1       6.391  -0.818   0.000  0.00  0.00    +0.000 C 
BRANCH  76  77
ATOM     77  C   UNK A   1       7.188  -1.032   0.000  0.00  0.00    +0.000 C 
ATOM     78  C   UNK A   1       7.401  -1.829   0.000  0.00  0.00    +0.000 C 
ATOM     79  C   UNK A   1       7.771  -0.448   0.000  0.00  0.00    +0.000 C 
ENDBRANCH  76  77
ENDBRANCH  72  76
ENDBRANCH  70  72
ENDBRANCH  54  69
BRANCH  28  82
ATOM     80  O   UNK A   2      -3.130  -2.220   0.000  0.00  0.00    +0.000 OA
ATOM     81  O   UNK A   2      -3.228  -1.058   0.000  0.00  0.00    +0.000 OA
ATOM     82  C   UNK A   2      -3.760  -1.688   0.000  0.00  0.00    +0.000 C 
ENDBRANCH  28  82
BRANCH  20  83
ATOM     83  O   UNK A   1      -4.922   1.395   0.000  0.00  0.00    +0.000 OA
BRANCH  83  91
ATOM     84  O   UNK A   1      -6.345   1.520   0.000  0.00  0.00    +0.000 OA
ATOM     85  O   UNK A   1      -7.298   3.562   0.000  0.00  0.00    +0.000 OA
ATOM     86  O   UNK A   1      -7.771   2.886   0.000  0.00  0.00    +0.000 OA
ATOM     87  C   UNK A   1      -6.202   3.163   0.000  0.00  0.00    +0.000 C 
ATOM     88  C   UNK A   1      -6.949   2.815   0.000  0.00  0.00    +0.000 C 
ATOM     89  C   UNK A   1      -5.526   2.690   0.000  0.00  0.00    +0.000 C 
ATOM     90  C   UNK A   1      -7.021   1.993   0.000  0.00  0.00    +0.000 C 
ATOM     91  C   UNK A   1      -5.598   1.868   0.000  0.00  0.00    +0.000 C 
ATOM     92  C   UNK A   1      -6.550   3.911   0.000  0.00  0.00    +0.000 C 
ATOM     93  C   UNK A   1      -7.769   1.644   0.000  0.00  0.00    +0.000 C 
BRANCH  87  94
ATOM     94  N   UNK A   1      -5.728   3.839   0.000  0.00  0.00    +0.000 NA
ATOM     95  H   UNK A   1      -5.219   3.795   0.000  0.00  0.00    +0.000 HD
ATOM     96  H   UNK A   1      -5.945   4.303   0.000  0.00  0.00    +0.000 HD
ENDBRANCH  87  94
ENDBRANCH  83  91
ENDBRANCH  20  83
BRANCH  52  97
ATOM     97  C   UNK A   1       2.330  -1.266   0.000  0.00  0.00    +0.000 C 
BRANCH  97 100
ATOM     98  O   UNK A   1       1.160  -2.086   0.000  0.00  0.00    +0.000 OA
ATOM     99  N   UNK A   1       2.455  -2.689   0.000  0.00  0.00    +0.000 N 
ATOM    100  C   UNK A   1       1.981  -2.014   0.000  0.00  0.00    +0.000 C 
ATOM    101  H   UNK A   1       2.239  -3.153   0.000  0.00  0.00    +0.000 HD
ATOM    102  H   UNK A   1       2.964  -2.645   0.000  0.00  0.00    +0.000 HD
ENDBRANCH  97 100
ENDBRANCH  52  97
TORSDOF 11
