REMARK  Name = 
REMARK  6 active torsions:
REMARK  status: ('A' for Active; 'I' for Inactive)
REMARK    1  A    between atoms: C_8  and  C_11
REMARK    2  A    between atoms: C_17  and  C_28
REMARK    3  A    between atoms: C_18  and  O_40
REMARK    4  A    between atoms: C_20  and  O_41
REMARK    5  A    between atoms: C_23  and  C_49
REMARK    6  A    between atoms: C_27  and  O_43
REMARK                            x       y       z     vdW  Elec       q    Type
REMARK                         _______ _______ _______ _____ _____    ______ ____
ROOT
ATOM      1  C   UNL     1      -3.211  -0.655   0.000  0.00  0.00    +0.000 C 
ATOM      2  C   UNL     1      -3.211   0.170   0.000  0.00  0.00    +0.000 C 
ATOM      3  C   UNL     1      -2.497   0.582   0.000  0.00  0.00    +0.000 C 
ATOM      4  N   UNL     1      -2.497   1.407   0.000  0.00  0.00    +0.000 N 
ATOM      5  O   UNL     1      -2.497  -1.058   0.000  0.00  0.00    +0.000 OA
ATOM      6  O   UNL     1      -0.352   1.825   0.000  0.00  0.00    +0.000 OA
ATOM      7  C   UNL     1      -1.065   1.412   0.000  0.00  0.00    +0.000 C 
ATOM      8  C   UNL     1       0.361   1.412   0.000  0.00  0.00    +0.000 C 
ATOM      9  C   UNL     1      -2.502  -1.888   0.000  0.00  0.00    +0.000 C 
ATOM     10  C   UNL     1      -1.784   1.820   0.000  0.00  0.00    +0.000 C 
ATOM     11  C   UNL     1       0.361   0.587   0.000  0.00  0.00    +0.000 C 
ATOM     12  C   UNL     1      -3.929  -1.063   0.000  0.00  0.00    +0.000 C 
ATOM     13  C   UNL     1       1.793  -1.063   0.000  0.00  0.00    +0.000 C 
ATOM     14  C   UNL     1       1.075   0.175   0.000  0.00  0.00    +0.000 C 
ATOM     15  C   UNL     1       1.075  -0.650   0.000  0.00  0.00    +0.000 C 
ATOM     16  C   UNL     1      -3.216  -2.301   0.000  0.00  0.00    +0.000 C 
ATOM     17  C   UNL     1       1.080  -2.301   0.000  0.00  0.00    +0.000 C 
ATOM     18  C   UNL     1      -1.958  -2.844   0.000  0.00  0.00    +0.000 C 
ATOM     19  C   UNL     1       1.080  -3.126   0.000  0.00  0.00    +0.000 C 
ATOM     20  C   UNL     1      -3.929  -1.883   0.000  0.00  0.00    +0.000 C 
ATOM     21  C   UNL     1       1.793  -1.888   0.000  0.00  0.00    +0.000 C 
ATOM     22  O   UNL     1      -3.924   0.582   0.000  0.00  0.00    +0.000 OA
ATOM     23  O   UNL     1      -1.779   0.170   0.000  0.00  0.00    +0.000 OA
ATOM     24  O   UNL     1      -1.065   0.587   0.000  0.00  0.00    +0.000 OA
ATOM     25  C   UNL     1      -1.133  -2.844   0.000  0.00  0.00    +0.000 C 
ATOM     26  O   UNL     1      -3.929  -0.238   0.000  0.00  0.00    +0.000 OA
ATOM     27  O   UNL     1       2.507  -0.650   0.000  0.00  0.00    +0.000 OA
ATOM     28  C   UNL     1       0.235  -3.558   0.000  0.00  0.00    +0.000 C 
ATOM     29  C   UNL     1      -0.590  -3.558   0.000  0.00  0.00    +0.000 C 
ATOM     30  C   UNL     1      -3.211   1.820   0.000  0.00  0.00    +0.000 C 
ATOM     31  O   UNL     1       1.793   0.587   0.000  0.00  0.00    +0.000 OA
ATOM     32  C   UNL     1      -0.352   0.175   0.000  0.00  0.00    +0.000 C 
ATOM     33  C   UNL     1      -1.784   2.645   0.000  0.00  0.00    +0.000 C 
ATOM     34  C   UNL     1      -4.643  -0.646   0.000  0.00  0.00    +0.000 C 
ATOM     35  C   UNL     1       1.793  -3.538   0.000  0.00  0.00    +0.000 C 
ATOM     36  C   UNL     1      -0.959  -4.295   0.000  0.00  0.00    +0.000 C 
ATOM     37  C   UNL     1      -3.211   2.645   0.000  0.00  0.00    +0.000 C 
ATOM     38  C   UNL     1      -2.497   3.058   0.000  0.00  0.00    +0.000 C 
ENDROOT
BRANCH   8  39
ATOM     39  C   UNL     1       1.075   1.825   0.000  0.00  0.00    +0.000 C 
ATOM     40  C   UNL     1       1.075   2.650   0.000  0.00  0.00    +0.000 C 
ATOM     41  C   UNL     1       1.788   1.412   0.000  0.00  0.00    +0.000 C 
BRANCH  40  43
ATOM     42  C   UNL     1       3.211   3.058   0.000  0.00  0.00    +0.000 C 
ATOM     43  C   UNL     1       1.788   3.063   0.000  0.00  0.00    +0.000 C 
ATOM     44  C   UNL     1       2.502   2.645   0.000  0.00  0.00    +0.000 C 
ATOM     45  C   UNL     1       3.216   3.883   0.000  0.00  0.00    +0.000 C 
ATOM     46  C   UNL     1       2.502   4.295   0.000  0.00  0.00    +0.000 C 
ATOM     47  C   UNL     1       1.784   3.883   0.000  0.00  0.00    +0.000 C 
ATOM     48 CL   UNL     1       3.934   4.291   0.000  0.00  0.00    +0.000 Cl
BRANCH  42  49
ATOM     49  O   UNL     1       3.924   2.640   0.000  0.00  0.00    +0.000 OA
ATOM     50  C   UNL     1       4.643   3.053   0.000  0.00  0.00    +0.000 C 
ENDBRANCH  42  49
ENDBRANCH  40  43
ENDBRANCH   8  39
BRANCH  16  51
ATOM     51  O   UNL     1      -3.220  -3.126   0.000  0.00  0.00    +0.000 OA
ATOM     52  C   UNL     1      -3.934  -3.533   0.000  0.00  0.00    +0.000 C 
ENDBRANCH  16  51
BRANCH  18  53
ATOM     53  O   UNL     1      -2.376  -3.553   0.000  0.00  0.00    +0.000 OA
ATOM     54  C   UNL     1      -1.968  -4.271   0.000  0.00  0.00    +0.000 C 
ENDBRANCH  18  53
BRANCH  21  55
ATOM     55  C   UNL     1       2.507  -2.301   0.000  0.00  0.00    +0.000 C 
ATOM     56  C   UNL     1       3.220  -1.888   0.000  0.00  0.00    +0.000 C 
ENDBRANCH  21  55
TORSDOF 6
