REMARK  Name = 
REMARK  36 active torsions:
REMARK  status: ('A' for Active; 'I' for Inactive)
REMARK    1  A    between atoms: P_1  and  O_2
REMARK    2  A    between atoms: P_1  and  O_8
REMARK    3  A    between atoms: O_2  and  C_9
REMARK    4  A    between atoms: C_3  and  O_7
REMARK    5  A    between atoms: C_3  and  C_23
REMARK    6  A    between atoms: C_5  and  O_12
REMARK    7  A    between atoms: C_5  and  C_36
REMARK    8  A    between atoms: N_6  and  C_16
REMARK    9  A    between atoms: O_7  and  C_13
REMARK   10  A    between atoms: O_8  and  C_14
REMARK   11  A    between atoms: C_9  and  C_13
REMARK   12  A    between atoms: O_12  and  C_15
REMARK   13  A    between atoms: C_13  and  C_15
REMARK   14  A    between atoms: C_14  and  C_16
REMARK   15  A    between atoms: C_19  and  C_21
REMARK   16  A    between atoms: C_19  and  C_26
REMARK   17  A    between atoms: C_20  and  C_27
REMARK   18  A    between atoms: C_21  and  C_23
REMARK   19  A    between atoms: C_24  and  C_26
REMARK   20  A    between atoms: C_24  and  C_30
REMARK   21  A    between atoms: C_25  and  C_27
REMARK   22  A    between atoms: C_25  and  C_31
REMARK   23  A    between atoms: C_28  and  C_29
REMARK   24  A    between atoms: C_28  and  C_30
REMARK   25  A    between atoms: C_29  and  C_31
REMARK   26  A    between atoms: C_32  and  C_34
REMARK   27  A    between atoms: C_32  and  C_39
REMARK   28  A    between atoms: C_33  and  C_40
REMARK   29  A    between atoms: C_34  and  C_36
REMARK   30  A    between atoms: C_37  and  C_39
REMARK   31  A    between atoms: C_37  and  C_43
REMARK   32  A    between atoms: C_38  and  C_40
REMARK   33  A    between atoms: C_38  and  C_44
REMARK   34  A    between atoms: C_41  and  C_42
REMARK   35  A    between atoms: C_41  and  C_43
REMARK   36  A    between atoms: C_42  and  C_44
REMARK                            x       y       z     vdW  Elec       q    Type
REMARK                         _______ _______ _______ _____ _____    ______ ____
ROOT
ATOM      1  C   UNL     1       0.000  -1.502   0.000  0.00  0.00    +0.000 C 
ENDROOT
BRANCH   1   2
ATOM      2  C   UNL     1       0.000  -0.677   0.000  0.00  0.00    +0.000 C 
BRANCH   2   3
ATOM      3  O   UNL     1      -0.714  -0.264   0.000  0.00  0.00    +0.000 OA
BRANCH   3   4
ATOM      4  P   UNL     1      -0.714   0.561   0.000  0.00  0.00    +0.000 P 
ATOM      5  O   UNL     1      -1.429   0.973   0.000  0.00  0.00    +0.000 OA
ATOM      6  O   UNL     1       0.003   0.140   0.000  0.00  0.00    +0.000 OA
BRANCH   4   7
ATOM      7  O   UNL     1       0.000   0.973   0.000  0.00  0.00    +0.000 OA
BRANCH   7   8
ATOM      8  C   UNL     1       0.000   1.798   0.000  0.00  0.00    +0.000 C 
BRANCH   8   9
ATOM      9  C   UNL     1       0.714   2.211   0.000  0.00  0.00    +0.000 C 
BRANCH   9  10
ATOM     10  N   UNL     1       0.714   3.036   0.000  0.00  0.00    +0.000 N 
ATOM     11  C   UNL     1       1.429   3.448   0.000  0.00  0.00    +0.000 C 
ATOM     12  C   UNL     1       0.000   3.448   0.000  0.00  0.00    +0.000 C 
ATOM     13  C   UNL     1       0.709   3.977   0.000  0.00  0.00    +0.000 C 
ENDBRANCH   9  10
ENDBRANCH   8   9
ENDBRANCH   7   8
ENDBRANCH   4   7
ENDBRANCH   3   4
ENDBRANCH   2   3
ENDBRANCH   1   2
BRANCH   1  14
ATOM     14  C   UNL     1      -0.714  -1.914   0.000  0.00  0.00    +0.000 C 
BRANCH  14  15
ATOM     15  O   UNL     1      -0.714  -2.739   0.000  0.00  0.00    +0.000 OA
BRANCH  15  16
ATOM     16  C   UNL     1      -1.429  -3.152   0.000  0.00  0.00    +0.000 C 
ATOM     17  O   UNL     1      -1.429  -3.977   0.000  0.00  0.00    +0.000 OA
BRANCH  16  18
ATOM     18  C   UNL     1      -2.143  -2.739   0.000  0.00  0.00    +0.000 C 
BRANCH  18  19
ATOM     19  C   UNL     1      -2.858  -3.152   0.000  0.00  0.00    +0.000 C 
BRANCH  19  20
ATOM     20  C   UNL     1      -3.572  -2.739   0.000  0.00  0.00    +0.000 C 
BRANCH  20  21
ATOM     21  C   UNL     1      -4.287  -3.152   0.000  0.00  0.00    +0.000 C 
BRANCH  21  22
ATOM     22  C   UNL     1      -5.001  -2.739   0.000  0.00  0.00    +0.000 C 
BRANCH  22  23
ATOM     23  C   UNL     1      -5.716  -3.152   0.000  0.00  0.00    +0.000 C 
BRANCH  23  24
ATOM     24  C   UNL     1      -6.430  -2.739   0.000  0.00  0.00    +0.000 C 
BRANCH  24  25
ATOM     25  C   UNL     1      -6.430  -1.914   0.000  0.00  0.00    +0.000 C 
BRANCH  25  26
ATOM     26  C   UNL     1      -5.716  -1.502   0.000  0.00  0.00    +0.000 C 
BRANCH  26  27
ATOM     27  C   UNL     1      -5.001  -1.914   0.000  0.00  0.00    +0.000 C 
BRANCH  27  28
ATOM     28  C   UNL     1      -4.287  -1.502   0.000  0.00  0.00    +0.000 C 
BRANCH  28  29
ATOM     29  C   UNL     1      -3.572  -1.914   0.000  0.00  0.00    +0.000 C 
ATOM     30  C   UNL     1      -2.858  -1.502   0.000  0.00  0.00    +0.000 C 
ENDBRANCH  28  29
ENDBRANCH  27  28
ENDBRANCH  26  27
ENDBRANCH  25  26
ENDBRANCH  24  25
ENDBRANCH  23  24
ENDBRANCH  22  23
ENDBRANCH  21  22
ENDBRANCH  20  21
ENDBRANCH  19  20
ENDBRANCH  18  19
ENDBRANCH  16  18
ENDBRANCH  15  16
ENDBRANCH  14  15
ENDBRANCH   1  14
BRANCH   1  31
ATOM     31  O   UNL     1       0.714  -1.914   0.000  0.00  0.00    +0.000 OA
BRANCH  31  32
ATOM     32  C   UNL     1       1.429  -1.502   0.000  0.00  0.00    +0.000 C 
ATOM     33  O   UNL     1       1.429  -0.677   0.000  0.00  0.00    +0.000 OA
BRANCH  32  34
ATOM     34  C   UNL     1       2.143  -1.914   0.000  0.00  0.00    +0.000 C 
BRANCH  34  35
ATOM     35  C   UNL     1       2.858  -1.502   0.000  0.00  0.00    +0.000 C 
BRANCH  35  36
ATOM     36  C   UNL     1       3.572  -1.914   0.000  0.00  0.00    +0.000 C 
BRANCH  36  37
ATOM     37  C   UNL     1       4.287  -1.502   0.000  0.00  0.00    +0.000 C 
BRANCH  37  38
ATOM     38  C   UNL     1       5.001  -1.914   0.000  0.00  0.00    +0.000 C 
BRANCH  38  39
ATOM     39  C   UNL     1       5.716  -1.502   0.000  0.00  0.00    +0.000 C 
BRANCH  39  40
ATOM     40  C   UNL     1       6.430  -1.914   0.000  0.00  0.00    +0.000 C 
BRANCH  40  41
ATOM     41  C   UNL     1       6.430  -2.739   0.000  0.00  0.00    +0.000 C 
BRANCH  41  42
ATOM     42  C   UNL     1       5.716  -3.152   0.000  0.00  0.00    +0.000 C 
BRANCH  42  43
ATOM     43  C   UNL     1       5.001  -2.739   0.000  0.00  0.00    +0.000 C 
BRANCH  43  44
ATOM     44  C   UNL     1       4.287  -3.152   0.000  0.00  0.00    +0.000 C 
BRANCH  44  45
ATOM     45  C   UNL     1       3.572  -2.739   0.000  0.00  0.00    +0.000 C 
ATOM     46  C   UNL     1       2.858  -3.152   0.000  0.00  0.00    +0.000 C 
ENDBRANCH  44  45
ENDBRANCH  43  44
ENDBRANCH  42  43
ENDBRANCH  41  42
ENDBRANCH  40  41
ENDBRANCH  39  40
ENDBRANCH  38  39
ENDBRANCH  37  38
ENDBRANCH  36  37
ENDBRANCH  35  36
ENDBRANCH  34  35
ENDBRANCH  32  34
ENDBRANCH  31  32
ENDBRANCH   1  31
TORSDOF 36
