REMARK  Name = 
REMARK  4 active torsions:
REMARK  status: ('A' for Active; 'I' for Inactive)
REMARK    1  A    between atoms: N_8  and  C_13
REMARK    2  A    between atoms: C_13  and  C_18
REMARK    3  A    between atoms: C_15  and  C_22
REMARK    4  A    between atoms: C_25  and  C_26
REMARK                            x       y       z     vdW  Elec       q    Type
REMARK                         _______ _______ _______ _____ _____    ______ ____
ROOT
ATOM      1  O   UNL     1       1.537   1.871   0.000  0.00  0.00    +0.000 OA
ATOM      2  O   UNL     1       2.194   2.082   0.000  0.00  0.00    +0.000 OA
ATOM      3  O   UNL     1       0.152   0.194   0.000  0.00  0.00    +0.000 OA
ATOM      4  O   UNL     1       4.223   0.405   0.000  0.00  0.00    +0.000 OA
ATOM      5  N   UNL     1       2.194   0.698   0.000  0.00  0.00    +0.000 N 
ATOM      6  N   UNL     1       3.589   1.472   0.000  0.00  0.00    +0.000 N 
ATOM      7  C   UNL     1       2.194   1.472   0.000  0.00  0.00    +0.000 C 
ATOM      8  C   UNL     1       2.909   1.871   0.000  0.00  0.00    +0.000 C 
ATOM      9  C   UNL     1       0.845   1.472   0.000  0.00  0.00    +0.000 C 
ATOM     10  C   UNL     1       0.845   0.698   0.000  0.00  0.00    +0.000 C 
ATOM     11  C   UNL     1       2.897   0.299   0.000  0.00  0.00    +0.000 C 
ATOM     12  C   UNL     1       3.589   0.686   0.000  0.00  0.00    +0.000 C 
ATOM     13  C   UNL     1       2.909   2.610   0.000  0.00  0.00    +0.000 C 
ATOM     14  C   UNL     1       4.235   1.847   0.000  0.00  0.00    +0.000 C 
ATOM     15  C   UNL     1       4.235   2.598   0.000  0.00  0.00    +0.000 C 
ENDROOT
BRANCH   9  17
ATOM     16  O   UNL     1      -1.806   1.847   0.000  0.00  0.00    +0.000 OA
ATOM     17  N   UNL     1      -0.411   1.988   0.000  0.00  0.00    +0.000 NA
ATOM     18  C   UNL     1      -1.361   1.566   0.000  0.00  0.00    +0.000 C 
BRANCH  18  24
ATOM     19  N   UNL     1      -0.633  -0.252   0.000  0.00  0.00    +0.000 NA
ATOM     20  N   UNL     1      -3.320  -2.762   0.000  0.00  0.00    +0.000 NA
ATOM     21  C   UNL     1      -2.076  -0.287   0.000  0.00  0.00    +0.000 C 
ATOM     22  C   UNL     1      -1.361  -0.698   0.000  0.00  0.00    +0.000 C 
ATOM     23  C   UNL     1      -2.792  -0.698   0.000  0.00  0.00    +0.000 A 
ATOM     24  C   UNL     1      -1.361   1.015   0.000  0.00  0.00    +0.000 C 
ATOM     25  C   UNL     1      -2.792  -1.484   0.000  0.00  0.00    +0.000 A 
ATOM     26  C   UNL     1      -2.076   0.592   0.000  0.00  0.00    +0.000 C 
ATOM     27  C   UNL     1      -2.076  -1.906   0.000  0.00  0.00    +0.000 A 
ATOM     28  C   UNL     1      -1.361  -1.484   0.000  0.00  0.00    +0.000 C 
ATOM     29  C   UNL     1      -0.633   0.592   0.000  0.00  0.00    +0.000 C 
ATOM     30  C   UNL     1      -3.495  -1.906   0.000  0.00  0.00    +0.000 A 
ATOM     31  C   UNL     1      -3.519  -0.287   0.000  0.00  0.00    +0.000 A 
ATOM     32  C   UNL     1      -2.264  -2.762   0.000  0.00  0.00    +0.000 A 
ATOM     33  C   UNL     1      -4.235  -1.484   0.000  0.00  0.00    +0.000 A 
ATOM     34  C   UNL     1      -4.235  -0.674   0.000  0.00  0.00    +0.000 A 
ATOM     35  C   UNL     1       0.235  -0.651   0.000  0.00  0.00    +0.000 C 
ENDBRANCH  18  24
ENDBRANCH   9  17
BRANCH   9  36
ATOM     36  C   UNL     1       0.833   2.317   0.000  0.00  0.00    +0.000 C 
ATOM     37  C   UNL     1       0.141   2.762   0.000  0.00  0.00    +0.000 C 
ATOM     38  C   UNL     1       1.560   2.727   0.000  0.00  0.00    +0.000 C 
ENDBRANCH   9  36
BRANCH  11  39
ATOM     39  C   UNL     1       2.874  -0.381   0.000  0.00  0.00    +0.000 C 
ATOM     40  C   UNL     1       3.578  -0.815   0.000  0.00  0.00    +0.000 C 
ATOM     41  C   UNL     1       2.135  -0.768   0.000  0.00  0.00    +0.000 C 
ENDBRANCH  11  39
TORSDOF 4
