REMARK  Name = 
REMARK  7 active torsions:
REMARK  status: ('A' for Active; 'I' for Inactive)
REMARK    1  A    between atoms: C_2  and  C_4
REMARK    2  A    between atoms: C_2  and  N_22
REMARK    3  A    between atoms: C_4  and  O_5
REMARK    4  A    between atoms: O_5  and  C_6
REMARK    5  A    between atoms: C_6  and  C_8
REMARK    6  A    between atoms: C_8  and  C_9
REMARK    7  A    between atoms: C_8  and  C_15
REMARK                            x       y       z     vdW  Elec       q    Type
REMARK                         _______ _______ _______ _____ _____    ______ ____
ROOT
ATOM      1  C   UNL     1       2.365   0.412   0.000  0.00  0.00    +0.000 C 
ATOM      2  O   UNL     1       1.540   0.412   0.000  0.00  0.00    +0.000 OA
ENDROOT
BRANCH   1   3
ATOM      3  C   UNL     1       3.189   0.412   0.000  0.00  0.00    +0.000 A 
ATOM      4  C   UNL     1       3.602   1.127   0.000  0.00  0.00    +0.000 A 
ATOM      5  C   UNL     1       4.427   1.127   0.000  0.00  0.00    +0.000 A 
ATOM      6  C   UNL     1       4.840   0.412   0.000  0.00  0.00    +0.000 A 
ATOM      7  C   UNL     1       4.427  -0.302   0.000  0.00  0.00    +0.000 A 
ATOM      8  C   UNL     1       3.602  -0.302   0.000  0.00  0.00    +0.000 A 
ENDBRANCH   1   3
BRANCH   1   9
ATOM      9  C   UNL     1       2.365  -0.412   0.000  0.00  0.00    +0.000 A 
ATOM     10  C   UNL     1       3.079  -0.825   0.000  0.00  0.00    +0.000 A 
ATOM     11  C   UNL     1       3.079  -1.650   0.000  0.00  0.00    +0.000 A 
ATOM     12  C   UNL     1       2.365  -2.062   0.000  0.00  0.00    +0.000 A 
ATOM     13  C   UNL     1       1.650  -1.650   0.000  0.00  0.00    +0.000 A 
ATOM     14  C   UNL     1       1.650  -0.825   0.000  0.00  0.00    +0.000 A 
ENDBRANCH   1   9
BRANCH   1  15
ATOM     15  C   UNL     1       2.365   1.238   0.000  0.00  0.00    +0.000 C 
ATOM     16  O   UNL     1       1.650   1.650   0.000  0.00  0.00    +0.000 OA
BRANCH  15  17
ATOM     17  O   UNL     1       3.079   1.650   0.000  0.00  0.00    +0.000 OA
BRANCH  17  18
ATOM     18  C   UNL     1       3.079   2.475   0.000  0.00  0.00    +0.000 C 
BRANCH  18  20
ATOM     19  C   UNL     1       4.206   2.173   0.000  0.00  0.00    +0.000 C 
ATOM     20  C   UNL     1       3.793   2.888   0.000  0.00  0.00    +0.000 C 
ATOM     21  C   UNL     1       3.381   3.602   0.000  0.00  0.00    +0.000 C 
BRANCH  20  22
ATOM     22  N   UNL     1       4.508   3.300   0.000  0.00  0.00    +0.000 NA
ATOM     23  C   UNL     1       4.508   4.125   0.000  0.00  0.00    +0.000 C 
ATOM     24  C   UNL     1       5.222   2.888   0.000  0.00  0.00    +0.000 C 
ENDBRANCH  20  22
ENDBRANCH  18  20
ENDBRANCH  17  18
ENDBRANCH  15  17
ENDBRANCH   1  15
TORSDOF 7
