REMARK  Name = 
REMARK  9 active torsions:
REMARK  status: ('A' for Active; 'I' for Inactive)
REMARK    1  A    between atoms: C_3  and  C_15
REMARK    2  A    between atoms: C_5  and  O_7
REMARK    3  A    between atoms: O_7  and  C_8
REMARK    4  A    between atoms: C_8  and  C_9
REMARK    5  A    between atoms: C_9  and  C_10
REMARK    6  A    between atoms: C_15  and  N_16
REMARK    7  A    between atoms: N_16  and  C_17
REMARK    8  A    between atoms: C_17  and  C_18
REMARK    9  A    between atoms: C_18  and  C_19
REMARK                            x       y       z     vdW  Elec       q    Type
REMARK                         _______ _______ _______ _____ _____    ______ ____
ROOT
ATOM      1  C   UNL     1      -4.923   0.415   0.000  0.00  0.00    +0.000 A 
ATOM      2  C   UNL     1      -4.208   0.003   0.000  0.00  0.00    +0.000 A 
ATOM      3  C   UNL     1      -4.208  -0.822   0.000  0.00  0.00    +0.000 A 
ATOM      4  C   UNL     1      -4.923  -1.235   0.000  0.00  0.00    +0.000 A 
ATOM      5  C   UNL     1      -5.637  -0.822   0.000  0.00  0.00    +0.000 A 
ATOM      6  C   UNL     1      -5.637   0.003   0.000  0.00  0.00    +0.000 A 
ENDROOT
BRANCH   5   7
ATOM      7  O   UNL     1      -6.351  -1.235   0.000  0.00  0.00    +0.000 OA
BRANCH   7   8
ATOM      8  C   UNL     1      -7.066  -0.822   0.000  0.00  0.00    +0.000 C 
BRANCH   8   9
ATOM      9  C   UNL     1      -7.780  -1.235   0.000  0.00  0.00    +0.000 C 
ATOM     10  F   UNL     1      -7.368  -1.949   0.000  0.00  0.00    +0.000 F 
ATOM     11  F   UNL     1      -8.193  -0.520   0.000  0.00  0.00    +0.000 F 
BRANCH   9  12
ATOM     12  C   UNL     1      -8.495  -1.647   0.000  0.00  0.00    +0.000 C 
ATOM     13  F   UNL     1      -9.209  -1.235   0.000  0.00  0.00    +0.000 F 
ATOM     14  F   UNL     1      -8.495  -2.472   0.000  0.00  0.00    +0.000 F 
ENDBRANCH   9  12
ENDBRANCH   8   9
ENDBRANCH   7   8
ENDBRANCH   5   7
BRANCH   3  15
ATOM     15  C   UNL     1      -3.494  -1.235   0.000  0.00  0.00    +0.000 C 
BRANCH  15  16
ATOM     16  N   UNL     1      -2.779  -0.822   0.000  0.00  0.00    +0.000 NA
BRANCH  16  17
ATOM     17  C   UNL     1      -2.065  -1.235   0.000  0.00  0.00    +0.000 C 
BRANCH  17  18
ATOM     18  C   UNL     1      -1.350  -0.822   0.000  0.00  0.00    +0.000 C 
BRANCH  18  19
ATOM     19  C   UNL     1      -0.636  -1.235   0.000  0.00  0.00    +0.000 A 
ATOM     20  C   UNL     1      -0.549  -2.055   0.000  0.00  0.00    +0.000 A 
ATOM     21  N   UNL     1       0.258  -2.227   0.000  0.00  0.00    +0.000 NA
ATOM     22  C   UNL     1       0.670  -1.512   0.000  0.00  0.00    +0.000 A 
ATOM     23  C   UNL     1       0.118  -0.899   0.000  0.00  0.00    +0.000 A 
ATOM     24  C   UNL     1       0.373  -0.114   0.000  0.00  0.00    +0.000 A 
ATOM     25  C   UNL     1       1.180   0.057   0.000  0.00  0.00    +0.000 A 
ATOM     26  C   UNL     1       1.732  -0.556   0.000  0.00  0.00    +0.000 A 
ATOM     27  C   UNL     1       1.477  -1.341   0.000  0.00  0.00    +0.000 A 
ATOM     28  F   UNL     1       2.539  -0.384   0.000  0.00  0.00    +0.000 F 
ENDBRANCH  18  19
ENDBRANCH  17  18
ENDBRANCH  16  17
ENDBRANCH  15  16
ENDBRANCH   3  15
TORSDOF 9
