REMARK  Name = 
REMARK  17 active torsions:
REMARK  status: ('A' for Active; 'I' for Inactive)
REMARK    1  A    between atoms: C_2  and  C_4
REMARK    2  A    between atoms: C_4  and  C_5
REMARK    3  A    between atoms: C_5  and  C_6
REMARK    4  A    between atoms: C_6  and  C_7
REMARK    5  A    between atoms: C_7  and  N_8
REMARK    6  A    between atoms: N_8  and  C_9
REMARK    7  A    between atoms: N_8  and  C_33
REMARK    8  A    between atoms: C_9  and  C_10
REMARK    9  A    between atoms: C_10  and  C_11
REMARK   10  A    between atoms: C_12  and  O_13
REMARK   11  A    between atoms: O_13  and  C_14
REMARK   12  A    between atoms: C_14  and  C_15
REMARK   13  A    between atoms: C_18  and  C_19
REMARK   14  A    between atoms: C_19  and  C_20
REMARK   15  A    between atoms: C_20  and  C_21
REMARK   16  A    between atoms: C_33  and  C_34
REMARK   17  A    between atoms: C_37  and  C_40
REMARK                            x       y       z     vdW  Elec       q    Type
REMARK                         _______ _______ _______ _____ _____    ______ ____
ROOT
ATOM      1  C   UNL     1       7.174  -0.935   0.000  0.00  0.00    +0.000 A 
ATOM      2  C   UNL     1       6.762  -0.221   0.000  0.00  0.00    +0.000 A 
ATOM      3  C   UNL     1       7.174   0.493   0.000  0.00  0.00    +0.000 A 
ATOM      4  C   UNL     1       7.999   0.493   0.000  0.00  0.00    +0.000 A 
ATOM      5  C   UNL     1       8.412  -0.221   0.000  0.00  0.00    +0.000 A 
ATOM      6  C   UNL     1       7.999  -0.935   0.000  0.00  0.00    +0.000 A 
ENDROOT
BRANCH   1   7
ATOM      7  C   UNL     1       6.762  -1.650   0.000  0.00  0.00    +0.000 C 
BRANCH   7   8
ATOM      8  C   UNL     1       7.174  -2.365   0.000  0.00  0.00    +0.000 C 
BRANCH   8   9
ATOM      9  N   UNL     1       6.762  -3.079   0.000  0.00  0.00    +0.000 NA
BRANCH   9  10
ATOM     10  C   UNL     1       5.937  -3.079   0.000  0.00  0.00    +0.000 C 
BRANCH  10  11
ATOM     11  C   UNL     1       5.524  -2.365   0.000  0.00  0.00    +0.000 C 
BRANCH  11  12
ATOM     12  C   UNL     1       4.699  -2.365   0.000  0.00  0.00    +0.000 C 
BRANCH  12  13
ATOM     13  C   UNL     1       4.287  -1.650   0.000  0.00  0.00    +0.000 C 
BRANCH  13  15
ATOM     14  O   UNL     1       3.049  -2.365   0.000  0.00  0.00    +0.000 OA
ATOM     15  C   UNL     1       3.462  -1.650   0.000  0.00  0.00    +0.000 C 
ATOM     16  O   UNL     1       3.049  -0.935   0.000  0.00  0.00    +0.000 OA
ENDBRANCH  13  15
ENDBRANCH  12  13
ENDBRANCH  11  12
ENDBRANCH  10  11
ENDBRANCH   9  10
BRANCH   9  17
ATOM     17  C   UNL     1       7.174  -3.793   0.000  0.00  0.00    +0.000 C 
BRANCH  17  18
ATOM     18  C   UNL     1       6.762  -4.508   0.000  0.00  0.00    +0.000 A 
ATOM     19  C   UNL     1       7.174  -5.222   0.000  0.00  0.00    +0.000 A 
ATOM     20  C   UNL     1       6.762  -5.937   0.000  0.00  0.00    +0.000 A 
ATOM     21  C   UNL     1       5.937  -5.937   0.000  0.00  0.00    +0.000 A 
ATOM     22  C   UNL     1       5.524  -5.222   0.000  0.00  0.00    +0.000 A 
ATOM     23  C   UNL     1       5.937  -4.508   0.000  0.00  0.00    +0.000 A 
BRANCH  21  24
ATOM     24  C   UNL     1       5.524  -6.651   0.000  0.00  0.00    +0.000 C 
ATOM     25  O   UNL     1       5.937  -7.366   0.000  0.00  0.00    +0.000 OA
ATOM     26  O   UNL     1       4.699  -6.651   0.000  0.00  0.00    +0.000 OA
ENDBRANCH  21  24
ENDBRANCH  17  18
ENDBRANCH   9  17
ENDBRANCH   8   9
ENDBRANCH   7   8
ENDBRANCH   1   7
BRANCH   2  27
ATOM     27  O   UNL     1       5.937  -0.221   0.000  0.00  0.00    +0.000 OA
BRANCH  27  28
ATOM     28  C   UNL     1       5.524   0.493   0.000  0.00  0.00    +0.000 C 
BRANCH  28  29
ATOM     29  C   UNL     1       4.699   0.493   0.000  0.00  0.00    +0.000 A 
ATOM     30  C   UNL     1       4.287  -0.221   0.000  0.00  0.00    +0.000 A 
ATOM     31  C   UNL     1       3.462  -0.221   0.000  0.00  0.00    +0.000 A 
ATOM     32  C   UNL     1       3.049   0.493   0.000  0.00  0.00    +0.000 A 
ATOM     33  C   UNL     1       3.462   1.208   0.000  0.00  0.00    +0.000 A 
ATOM     34  C   UNL     1       4.287   1.208   0.000  0.00  0.00    +0.000 A 
BRANCH  32  35
ATOM     35  C   UNL     1       2.224   0.493   0.000  0.00  0.00    +0.000 C 
BRANCH  35  36
ATOM     36  C   UNL     1       1.812   1.208   0.000  0.00  0.00    +0.000 C 
BRANCH  36  37
ATOM     37  C   UNL     1       0.987   1.208   0.000  0.00  0.00    +0.000 A 
ATOM     38  C   UNL     1       0.574   0.493   0.000  0.00  0.00    +0.000 A 
ATOM     39  C   UNL     1      -0.251   0.493   0.000  0.00  0.00    +0.000 A 
ATOM     40  C   UNL     1      -0.663   1.208   0.000  0.00  0.00    +0.000 A 
ATOM     41  C   UNL     1      -0.251   1.922   0.000  0.00  0.00    +0.000 A 
ATOM     42  C   UNL     1       0.574   1.922   0.000  0.00  0.00    +0.000 A 
ENDBRANCH  36  37
ENDBRANCH  35  36
ENDBRANCH  32  35
ENDBRANCH  28  29
ENDBRANCH  27  28
ENDBRANCH   2  27
TORSDOF 17
