REMARK  Name = 
REMARK  1 active torsions:
REMARK  status: ('A' for Active; 'I' for Inactive)
REMARK    1  A    between atoms: C_12  and  C_21
REMARK                            x       y       z     vdW  Elec       q    Type
REMARK                         _______ _______ _______ _____ _____    ______ ____
ROOT
ATOM      1  C   UNL     1       3.338  -2.857   0.000  0.00  0.00    +0.000 C 
ATOM      2  C   UNL     1       0.822  -3.259   0.000  0.00  0.00    +0.000 C 
ATOM      3  C   UNL     1       4.962  -2.566   0.000  0.00  0.00    +0.000 C 
ATOM      4  C   UNL     1       2.526  -3.002   0.000  0.00  0.00    +0.000 C 
ATOM      5  C   UNL     1       0.811  -1.234   0.000  0.00  0.00    +0.000 C 
ATOM      6  C   UNL     1       4.150  -2.711   0.000  0.00  0.00    +0.000 C 
ATOM      7  C   UNL     1       1.714  -3.147   0.000  0.00  0.00    +0.000 C 
ATOM      8  C   UNL     1       0.128  -1.697   0.000  0.00  0.00    +0.000 C 
ATOM      9  C   UNL     1       4.710  -1.159   0.000  0.00  0.00    +0.000 C 
ATOM     10  C   UNL     1       2.554  -0.819   0.000  0.00  0.00    +0.000 C 
ATOM     11  C   UNL     1       5.242  -1.790   0.000  0.00  0.00    +0.000 C 
ATOM     12  C   UNL     1       2.274  -1.595   0.000  0.00  0.00    +0.000 C 
ATOM     13  C   UNL     1       2.806  -2.226   0.000  0.00  0.00    +0.000 C 
ATOM     14  C   UNL     1       1.462  -1.740   0.000  0.00  0.00    +0.000 C 
ATOM     15  C   UNL     1       3.898  -1.305   0.000  0.00  0.00    +0.000 C 
ATOM     16  C   UNL     1       3.366  -0.674   0.000  0.00  0.00    +0.000 C 
ATOM     17  C   UNL     1       3.618  -2.081   0.000  0.00  0.00    +0.000 C 
ATOM     18  C   UNL     1       1.182  -2.516   0.000  0.00  0.00    +0.000 C 
ATOM     19  C   UNL     1       0.357  -2.490   0.000  0.00  0.00    +0.000 C 
ATOM     20 CL   UNL     1       3.647   0.102   0.000  0.00  0.00    +0.000 Cl
ATOM     21  O   UNL     1       6.054  -1.645   0.000  0.00  0.00    +0.000 OA
ATOM     22  O   UNL     1       0.417  -3.312   0.000  0.00  0.00    +0.000 OA
ENDROOT
BRANCH  19  24
ATOM     23  C   UNL     1      -0.735  -3.411   0.000  0.00  0.00    +0.000 C 
ATOM     24  C   UNL     1      -0.455  -2.635   0.000  0.00  0.00    +0.000 C 
ATOM     25  O   UNL     1      -0.987  -2.004   0.000  0.00  0.00    +0.000 OA
ENDBRANCH  19  24
TORSDOF 1
