REMARK  Name = 
REMARK  4 active torsions:
REMARK  status: ('A' for Active; 'I' for Inactive)
REMARK    1  A    between atoms: C_12  and  C_22
REMARK    2  A    between atoms: C_12  and  O_30
REMARK    3  A    between atoms: C_16  and  N_26
REMARK    4  A    between atoms: C_19  and  O_30
REMARK                            x       y       z     vdW  Elec       q    Type
REMARK                         _______ _______ _______ _____ _____    ______ ____
ROOT
ATOM      1  C   UNL     1       0.481  -0.632   0.000  0.00  0.00    +0.000 C 
ATOM      2  C   UNL     1      -2.034  -0.230   0.000  0.00  0.00    +0.000 C 
ATOM      3  C   UNL     1      -3.687   2.243   0.000  0.00  0.00    +0.000 C 
ATOM      4  C   UNL     1      -1.251   1.807   0.000  0.00  0.00    +0.000 C 
ATOM      5  C   UNL     1       0.493   1.392   0.000  0.00  0.00    +0.000 C 
ATOM      6  C   UNL     1       1.175   0.929   0.000  0.00  0.00    +0.000 C 
ATOM      7  C   UNL     1      -2.063   1.952   0.000  0.00  0.00    +0.000 C 
ATOM      8  C   UNL     1      -1.222  -0.375   0.000  0.00  0.00    +0.000 C 
ATOM      9  C   UNL     1      -3.659   0.060   0.000  0.00  0.00    +0.000 C 
ATOM     10  C   UNL     1      -0.410  -0.521   0.000  0.00  0.00    +0.000 C 
ATOM     11  C   UNL     1      -2.846  -0.085   0.000  0.00  0.00    +0.000 C 
ATOM     12  C   UNL     1      -0.971   1.031   0.000  0.00  0.00    +0.000 C 
ATOM     13  C   UNL     1      -0.159   0.886   0.000  0.00  0.00    +0.000 C 
ATOM     14  C   UNL     1      -1.503   0.400   0.000  0.00  0.00    +0.000 C 
ATOM     15  C   UNL     1       0.946   0.137   0.000  0.00  0.00    +0.000 C 
ATOM     16  C   UNL     1      -2.595   1.322   0.000  0.00  0.00    +0.000 C 
ATOM     17  C   UNL     1      -3.939   0.836   0.000  0.00  0.00    +0.000 C 
ATOM     18  C   UNL     1       0.122   0.110   0.000  0.00  0.00    +0.000 C 
ATOM     19  C   UNL     1      -2.315   0.546   0.000  0.00  0.00    +0.000 C 
ATOM     20  N   UNL     1      -3.407   1.467   0.000  0.00  0.00    +0.000 N 
ATOM     21  O   UNL     1      -4.751   0.981   0.000  0.00  0.00    +0.000 OA
ENDROOT
BRANCH  15  23
ATOM     22  C   UNL     1       2.270  -0.402   0.000  0.00  0.00    +0.000 C 
ATOM     23  N   UNL     1       1.452  -0.514   0.000  0.00  0.00    +0.000 NA
ATOM     24  O   UNL     1       2.581   0.362   0.000  0.00  0.00    +0.000 OA
BRANCH  22  25
ATOM     25  O   UNL     1       2.776  -1.053   0.000  0.00  0.00    +0.000 OA
BRANCH  25  26
ATOM     26  C   UNL     1       3.593  -0.940   0.000  0.00  0.00    +0.000 C 
BRANCH  26  27
ATOM     27  C   UNL     1       4.100  -1.591   0.000  0.00  0.00    +0.000 C 
ATOM     28  F   UNL     1       4.606  -2.243   0.000  0.00  0.00    +0.000 F 
ATOM     29  F   UNL     1       4.751  -1.085   0.000  0.00  0.00    +0.000 F 
ATOM     30  F   UNL     1       3.448  -2.098   0.000  0.00  0.00    +0.000 F 
ENDBRANCH  26  27
ENDBRANCH  25  26
ENDBRANCH  22  25
ENDBRANCH  15  23
TORSDOF 4
