REMARK  Name = 
REMARK  13 active torsions:
REMARK  status: ('A' for Active; 'I' for Inactive)
REMARK    1  A    between atoms: CA_1  and  N_2
REMARK    2  A    between atoms: CA_1  and  C_3
REMARK    3  A    between atoms: CA_1  and  C_27
REMARK    4  A    between atoms: C_3  and  C_4
REMARK    5  A    between atoms: C_4  and  C_5
REMARK    6  A    between atoms: C_8  and  CA_10
REMARK    7  A    between atoms: CA_10  and  N_11
REMARK    8  A    between atoms: CA_10  and  CB_12
REMARK    9  A    between atoms: CB_12  and  CG_13
REMARK   10  A    between atoms: C_16  and  CA_18
REMARK   11  A    between atoms: CA_18  and  N_19
REMARK   12  A    between atoms: CA_18  and  CB_20
REMARK   13  A    between atoms: CB_20  and  CG_21
REMARK                            x       y       z     vdW  Elec       q    Type
REMARK                         _______ _______ _______ _____ _____    ______ ____
ROOT
ATOM      1  CA  LEU A   1       0.356  -0.412   0.000  0.00  0.00    +0.000 C 
ENDROOT
BRANCH   1   3
ATOM      2  N   LEU A   1       1.790  -0.408   0.000  0.00  0.00    +0.000 NA
ATOM      3  C   LEU A   1       1.073  -0.002   0.000  0.00  0.00    +0.000 C 
ATOM      4  O   LEU A   1       1.069   0.823   0.000  0.00  0.00    +0.000 OA
BRANCH   2   5
ATOM      5  CA  LEU A   1       2.503   0.003   0.000  0.00  0.00    +0.000 C 
BRANCH   5   7
ATOM      6  O   LEU A   1       3.211  -1.229   0.000  0.00  0.00    +0.000 OA
ATOM      7  C   LEU A   1       3.212  -0.408   0.000  0.00  0.00    +0.000 C 
ENDBRANCH   5   7
BRANCH   5   8
ATOM      8  C   LEU A   1       2.503   0.828   0.000  0.00  0.00    +0.000 C 
BRANCH   8   9
ATOM      9  C   LEU A   1       3.214   1.242   0.000  0.00  0.00    +0.000 C 
BRANCH   9  10
ATOM     10  C   LEU A   1       3.214   2.067   0.000  0.00  0.00    +0.000 C 
ATOM     11  C   LEU A   1       3.929   2.477   0.000  0.00  0.00    +0.000 C 
ENDBRANCH   9  10
ENDBRANCH   8   9
ENDBRANCH   5   8
ENDBRANCH   2   5
ENDBRANCH   1   3
BRANCH   1  12
ATOM     12  N   LEU A   1      -0.358  -0.001   0.000  0.00  0.00    +0.000 NA
ATOM     13  C   LEU A   1      -1.076  -0.407   0.000  0.00  0.00    +0.000 C 
ATOM     14  O   LEU A   1      -1.080  -1.232   0.000  0.00  0.00    +0.000 OA
BRANCH  13  15
ATOM     15  CA  LEU A   1      -1.793   0.003   0.000  0.00  0.00    +0.000 C 
BRANCH  15  16
ATOM     16  N   LEU A   1      -2.507  -0.408   0.000  0.00  0.00    +0.000 NA
ATOM     17  C   UNK A   0      -3.218   0.003   0.000  0.00  0.00    +0.000 C 
ATOM     18  C   UNK A   0      -3.929  -0.406   0.000  0.00  0.00    +0.000 C 
ATOM     19  O   UNK A   0      -3.217   0.824   0.000  0.00  0.00    +0.000 OA
ENDBRANCH  15  16
BRANCH  15  20
ATOM     20  CB  LEU A   1      -1.794   0.828   0.000  0.00  0.00    +0.000 C 
BRANCH  20  21
ATOM     21  CG  LEU A   1      -1.079   1.244   0.000  0.00  0.00    +0.000 C 
ATOM     22  CD1 LEU A   1      -1.080   2.069   0.000  0.00  0.00    +0.000 C 
ATOM     23  CD2 LEU A   1      -0.364   0.830   0.000  0.00  0.00    +0.000 C 
ENDBRANCH  20  21
ENDBRANCH  15  20
ENDBRANCH  13  15
ENDBRANCH   1  12
BRANCH   1  24
ATOM     24  CB  LEU A   1       0.355  -1.237   0.000  0.00  0.00    +0.000 C 
BRANCH  24  25
ATOM     25  CG  LEU A   1       1.069  -1.652   0.000  0.00  0.00    +0.000 C 
ATOM     26  CD1 LEU A   1       1.068  -2.477   0.000  0.00  0.00    +0.000 C 
ATOM     27  CD2 LEU A   1       1.785  -1.239   0.000  0.00  0.00    +0.000 C 
ENDBRANCH  24  25
ENDBRANCH   1  24
TORSDOF 13
