REMARK  Name = 
REMARK  15 active torsions:
REMARK  status: ('A' for Active; 'I' for Inactive)
REMARK    1  A    between atoms: S_1  and  N_11
REMARK    2  A    between atoms: S_1  and  C_20
REMARK    3  A    between atoms: O_6  and  N_11
REMARK    4  A    between atoms: O_6  and  C_38
REMARK    5  A    between atoms: N_9  and  C_12
REMARK    6  A    between atoms: N_10  and  C_19
REMARK    7  A    between atoms: C_12  and  C_13
REMARK    8  A    between atoms: C_12  and  C_14
REMARK    9  A    between atoms: C_13  and  C_20
REMARK   10  A    between atoms: C_14  and  C_21
REMARK   11  A    between atoms: C_19  and  C_22
REMARK   12  A    between atoms: C_19  and  C_24
REMARK   13  A    between atoms: C_21  and  C_26
REMARK   14  A    between atoms: C_24  and  C_27
REMARK   15  A    between atoms: C_38  and  C_39
REMARK                            x       y       z     vdW  Elec       q    Type
REMARK                         _______ _______ _______ _____ _____    ______ ____
ROOT
ATOM      1  C   UNL     1       1.429  -0.619   0.000  0.00  0.00    +0.000 C 
ENDROOT
BRANCH   1   3
ATOM      2  O   UNL     1       2.858  -1.444   0.000  0.00  0.00    +0.000 OA
ATOM      3  N   UNL     1       2.143  -0.206   0.000  0.00  0.00    +0.000 N 
ATOM      4  C   UNL     1       2.858  -0.619   0.000  0.00  0.00    +0.000 C 
ATOM      5  H   UNL     1       2.143   0.305   0.000  0.00  0.00    +0.000 HD
BRANCH   4   6
ATOM      6  C   UNL     1       3.572  -0.206   0.000  0.00  0.00    +0.000 C 
BRANCH   6  10
ATOM      7  O   UNL     1       5.001   0.619   0.000  0.00  0.00    +0.000 OA
ATOM      8  N   UNL     1       4.287   1.856   0.000  0.00  0.00    +0.000 N 
ATOM      9  N   UNL     1       4.287   3.506   0.000  0.00  0.00    +0.000 NA
ATOM     10  N   UNL     1       3.572   0.619   0.000  0.00  0.00    +0.000 N 
ATOM     11  C   UNL     1       3.572   2.269   0.000  0.00  0.00    +0.000 C 
ATOM     12  C   UNL     1       5.001   2.269   0.000  0.00  0.00    +0.000 C 
ATOM     13  C   UNL     1       3.572   3.094   0.000  0.00  0.00    +0.000 C 
ATOM     14  C   UNL     1       5.001   3.094   0.000  0.00  0.00    +0.000 C 
ATOM     15  C   UNL     1       4.287   1.031   0.000  0.00  0.00    +0.000 C 
ATOM     16  C   UNL     1       4.287   4.331   0.000  0.00  0.00    +0.000 C 
ATOM     17  H   UNL     1       3.129   0.875   0.000  0.00  0.00    +0.000 HD
ENDBRANCH   6  10
BRANCH   6  18
ATOM     18  C   UNL     1       4.287  -0.619   0.000  0.00  0.00    +0.000 C 
BRANCH  18  19
ATOM     19  C   UNL     1       4.287  -1.444   0.000  0.00  0.00    +0.000 A 
ATOM     20  C   UNL     1       5.001  -1.856   0.000  0.00  0.00    +0.000 A 
ATOM     21  C   UNL     1       3.572  -1.856   0.000  0.00  0.00    +0.000 A 
ATOM     22  C   UNL     1       5.001  -2.681   0.000  0.00  0.00    +0.000 A 
ATOM     23  C   UNL     1       3.572  -2.681   0.000  0.00  0.00    +0.000 A 
ATOM     24  C   UNL     1       4.287  -3.094   0.000  0.00  0.00    +0.000 A 
ENDBRANCH  18  19
ENDBRANCH   6  18
ENDBRANCH   4   6
ENDBRANCH   1   3
BRANCH   1  25
ATOM     25  C   UNL     1       1.429  -1.444   0.000  0.00  0.00    +0.000 C 
BRANCH  25  26
ATOM     26  C   UNL     1       0.714  -1.856   0.000  0.00  0.00    +0.000 C 
BRANCH  26  27
ATOM     27  C   UNL     1       0.714  -2.681   0.000  0.00  0.00    +0.000 A 
ATOM     28  C   UNL     1       1.429  -3.094   0.000  0.00  0.00    +0.000 A 
ATOM     29  C   UNL     1       0.000  -3.094   0.000  0.00  0.00    +0.000 A 
ATOM     30  C   UNL     1       1.429  -3.919   0.000  0.00  0.00    +0.000 A 
ATOM     31  C   UNL     1       0.000  -3.919   0.000  0.00  0.00    +0.000 A 
ATOM     32  C   UNL     1       0.714  -4.331   0.000  0.00  0.00    +0.000 A 
ENDBRANCH  26  27
ENDBRANCH  25  26
ENDBRANCH   1  25
BRANCH   1  33
ATOM     33  C   UNL     1       0.714  -0.206   0.000  0.00  0.00    +0.000 C 
BRANCH  33  34
ATOM     34  C   UNL     1       0.000  -0.619   0.000  0.00  0.00    +0.000 C 
BRANCH  34  35
ATOM     35  S   UNL     1      -0.714  -0.206   0.000  0.00  0.00    +0.000 S 
ATOM     36  O   UNL     1      -0.302   0.508   0.000  0.00  0.00    +0.000 OA
ATOM     37  O   UNL     1      -1.127  -0.921   0.000  0.00  0.00    +0.000 OA
BRANCH  35  38
ATOM     38  N   UNL     1      -1.429   0.206   0.000  0.00  0.00    +0.000 NA
ATOM     39  H   UNL     1      -1.429   0.718   0.000  0.00  0.00    +0.000 HD
BRANCH  38  40
ATOM     40  O   UNL     1      -2.143  -0.206   0.000  0.00  0.00    +0.000 OA
BRANCH  40  41
ATOM     41  C   UNL     1      -2.858   0.206   0.000  0.00  0.00    +0.000 C 
BRANCH  41  42
ATOM     42  C   UNL     1      -3.572  -0.206   0.000  0.00  0.00    +0.000 A 
ATOM     43  C   UNL     1      -3.572  -1.031   0.000  0.00  0.00    +0.000 A 
ATOM     44  C   UNL     1      -4.287   0.206   0.000  0.00  0.00    +0.000 A 
ATOM     45  C   UNL     1      -4.287  -1.444   0.000  0.00  0.00    +0.000 A 
ATOM     46  C   UNL     1      -5.001  -0.206   0.000  0.00  0.00    +0.000 A 
ATOM     47  C   UNL     1      -5.001  -1.031   0.000  0.00  0.00    +0.000 A 
ENDBRANCH  41  42
ENDBRANCH  40  41
ENDBRANCH  38  40
ENDBRANCH  35  38
ENDBRANCH  34  35
ENDBRANCH  33  34
ENDBRANCH   1  33
TORSDOF 15
