REMARK  Name = 
REMARK  4 active torsions:
REMARK  status: ('A' for Active; 'I' for Inactive)
REMARK    1  A    between atoms: C_2  and  C_3
REMARK    2  A    between atoms: C_2  and  C_7
REMARK    3  A    between atoms: C_3  and  C_4
REMARK    4  A    between atoms: C_4  and  C_5
REMARK                            x       y       z     vdW  Elec       q    Type
REMARK                         _______ _______ _______ _____ _____    ______ ____
ROOT
ATOM      1  O   UNL     1      -0.490  -4.195   0.000  0.00  0.00    +0.000 OA
ATOM      2  C   UNL     1      -0.490  -3.370   0.000  0.00  0.00    +0.000 C 
ENDROOT
BRANCH   2   3
ATOM      3  C   UNL     1       0.224  -2.958   0.000  0.00  0.00    +0.000 C 
ATOM      4  O   UNL     1       0.224  -2.132   0.000  0.00  0.00    +0.000 OA
ATOM      5  O   UNL     1       0.939  -3.370   0.000  0.00  0.00    +0.000 OA
ENDBRANCH   2   3
BRANCH   2   6
ATOM      6  C   UNL     1      -1.205  -2.958   0.000  0.00  0.00    +0.000 C 
BRANCH   6   7
ATOM      7  C   UNL     1      -1.919  -3.370   0.000  0.00  0.00    +0.000 C 
BRANCH   7   8
ATOM      8  C   UNL     1      -2.634  -2.958   0.000  0.00  0.00    +0.000 C 
ATOM      9  O   UNL     1      -2.634  -2.132   0.000  0.00  0.00    +0.000 OA
ATOM     10  O   UNL     1      -3.348  -3.370   0.000  0.00  0.00    +0.000 OA
ENDBRANCH   7   8
ENDBRANCH   6   7
ENDBRANCH   2   6
TORSDOF 4
