REMARK  Name = 
REMARK  9 active torsions:
REMARK  status: ('A' for Active; 'I' for Inactive)
REMARK    1  A    between atoms: C_4  and  N_22
REMARK    2  A    between atoms: C_5  and  N_22
REMARK    3  A    between atoms: C_16  and  C_17
REMARK    4  A    between atoms: C_16  and  N_22
REMARK    5  A    between atoms: C_17  and  O_25
REMARK    6  A    between atoms: C_18  and  C_21
REMARK    7  A    between atoms: C_19  and  C_21
REMARK    8  A    between atoms: C_20  and  C_21
REMARK    9  A    between atoms: C_20  and  O_25
REMARK                            x       y       z     vdW  Elec       q    Type
REMARK                         _______ _______ _______ _____ _____    ______ ____
ROOT
ATOM      1  C   UNL     1       1.318   4.316   0.000  0.00  0.00    +0.000 C 
ATOM      2  O   UNL     1       0.493   4.316   0.000  0.00  0.00    +0.000 OA
ENDROOT
BRANCH   1   8
ATOM      3  C   UNL     1       1.318   1.841   0.000  0.00  0.00    +0.000 A 
ATOM      4  C   UNL     1       2.033   2.254   0.000  0.00  0.00    +0.000 A 
ATOM      5  C   UNL     1       0.604   2.254   0.000  0.00  0.00    +0.000 A 
ATOM      6  C   UNL     1       2.033   3.079   0.000  0.00  0.00    +0.000 A 
ATOM      7  C   UNL     1       0.604   3.079   0.000  0.00  0.00    +0.000 A 
ATOM      8  C   UNL     1       1.318   3.491   0.000  0.00  0.00    +0.000 A 
ENDBRANCH   1   8
BRANCH   1  14
ATOM      9  C   UNL     1       3.793   4.316   0.000  0.00  0.00    +0.000 A 
ATOM     10  C   UNL     1       3.381   5.031   0.000  0.00  0.00    +0.000 A 
ATOM     11  C   UNL     1       3.381   3.602   0.000  0.00  0.00    +0.000 A 
ATOM     12  C   UNL     1       2.556   5.031   0.000  0.00  0.00    +0.000 A 
ATOM     13  C   UNL     1       2.556   3.602   0.000  0.00  0.00    +0.000 A 
ATOM     14  C   UNL     1       2.143   4.316   0.000  0.00  0.00    +0.000 A 
ENDBRANCH   1  14
BRANCH   1  15
ATOM     15  C   UNL     1       1.318   5.141   0.000  0.00  0.00    +0.000 C 
ATOM     16  O   UNL     1       2.033   5.554   0.000  0.00  0.00    +0.000 OA
BRANCH  15  17
ATOM     17  O   UNL     1       0.604   5.554   0.000  0.00  0.00    +0.000 OA
BRANCH  17  18
ATOM     18  C   UNL     1       0.604   6.379   0.000  0.00  0.00    +0.000 C 
BRANCH  18  19
ATOM     19  C   UNL     1      -0.111   6.791   0.000  0.00  0.00    +0.000 C 
BRANCH  19  21
ATOM     20  C   UNL     1      -0.935   7.616   0.000  0.00  0.00    +0.000 C 
ATOM     21  N   UNL     1      -0.111   7.616   0.000  0.00  0.00    +0.000 N 
BRANCH  21  23
ATOM     22  C   UNL     1      -0.825   8.854   0.000  0.00  0.00    +0.000 C 
ATOM     23  C   UNL     1      -0.111   8.441   0.000  0.00  0.00    +0.000 C 
ENDBRANCH  21  23
BRANCH  21  25
ATOM     24  C   UNL     1       1.127   6.902   0.000  0.00  0.00    +0.000 C 
ATOM     25  C   UNL     1       0.715   7.616   0.000  0.00  0.00    +0.000 C 
ENDBRANCH  21  25
ENDBRANCH  19  21
ENDBRANCH  18  19
ENDBRANCH  17  18
ENDBRANCH  15  17
ENDBRANCH   1  15
TORSDOF 9
