REMARK  Name = 
REMARK  4 active torsions:
REMARK  status: ('A' for Active; 'I' for Inactive)
REMARK    1  A    between atoms: N_2  and  C_4
REMARK    2  A    between atoms: C_4  and  C_5
REMARK    3  A    between atoms: C_5  and  C_6
REMARK    4  A    between atoms: C_6  and  N_7
REMARK                            x       y       z     vdW  Elec       q    Type
REMARK                         _______ _______ _______ _____ _____    ______ ____
ROOT
ATOM      1  N   UNL     1      -0.754  -0.487   0.000  0.00  0.00    +0.000 N 
ATOM      2  C   UNL     1      -0.667  -1.308   0.000  0.00  0.00    +0.000 A 
ATOM      3  C   UNL     1      -1.220  -1.921   0.000  0.00  0.00    +0.000 A 
ATOM      4  C   UNL     1      -0.965  -2.705   0.000  0.00  0.00    +0.000 A 
ATOM      5  C   UNL     1      -0.158  -2.877   0.000  0.00  0.00    +0.000 A 
ATOM      6  C   UNL     1       0.394  -2.264   0.000  0.00  0.00    +0.000 A 
ATOM      7  C   UNL     1       0.140  -1.479   0.000  0.00  0.00    +0.000 A 
ATOM      8  C   UNL     1       0.552  -0.765   0.000  0.00  0.00    +0.000 A 
ATOM      9  C   UNL     1      -0.000  -0.152   0.000  0.00  0.00    +0.000 A 
ATOM     10  C   UNL     1       0.043   0.672   0.000  0.00  0.00    +0.000 C 
ATOM     11  C   UNL     1       0.656   1.224   0.000  0.00  0.00    +0.000 C 
ATOM     12  C   UNL     1       1.480   1.181   0.000  0.00  0.00    +0.000 C 
ATOM     13  C   UNL     1       2.032   0.568   0.000  0.00  0.00    +0.000 C 
ATOM     14  C   UNL     1       1.989  -0.256   0.000  0.00  0.00    +0.000 C 
ATOM     15  C   UNL     1       1.376  -0.808   0.000  0.00  0.00    +0.000 C 
ENDROOT
BRANCH   1  16
ATOM     16  C   UNL     1      -1.468  -0.075   0.000  0.00  0.00    +0.000 C 
BRANCH  16  17
ATOM     17  C   UNL     1      -2.183  -0.487   0.000  0.00  0.00    +0.000 C 
BRANCH  17  18
ATOM     18  C   UNL     1      -2.897  -0.075   0.000  0.00  0.00    +0.000 C 
BRANCH  18  20
ATOM     19  C   UNL     1      -4.326  -0.075   0.000  0.00  0.00    +0.000 C 
ATOM     20  N   UNL     1      -3.612  -0.487   0.000  0.00  0.00    +0.000 NA
ATOM     21  C   UNL     1      -3.612  -1.312   0.000  0.00  0.00    +0.000 C 
ENDBRANCH  18  20
ENDBRANCH  17  18
ENDBRANCH  16  17
ENDBRANCH   1  16
TORSDOF 4
