REMARK  Name = 
REMARK  11 active torsions:
REMARK  status: ('A' for Active; 'I' for Inactive)
REMARK    1  A    between atoms: S_2  and  C_26
REMARK    2  A    between atoms: S_2  and  C_29
REMARK    3  A    between atoms: S_3  and  C_28
REMARK    4  A    between atoms: S_3  and  C_30
REMARK    5  A    between atoms: O_4  and  C_19
REMARK    6  A    between atoms: N_12  and  C_19
REMARK    7  A    between atoms: C_21  and  C_24
REMARK    8  A    between atoms: C_22  and  C_26
REMARK    9  A    between atoms: C_25  and  C_28
REMARK   10  A    between atoms: C_30  and  C_32
REMARK   11  A    between atoms: C_32  and  C_33
REMARK                            x       y       z     vdW  Elec       q    Type
REMARK                         _______ _______ _______ _____ _____    ______ ____
ROOT
ATOM      1  S   UNK     1      10.466  -2.549   0.000  0.00  0.00    +0.000 S 
ATOM      2  O   UNK     1       8.246  -4.217   0.000  0.00  0.00    +0.000 OA
ATOM      3  N   UNK     1       9.764  -3.803   0.000  0.00  0.00    +0.000 N 
ATOM      4  C   UNK     1       9.764  -2.963   0.000  0.00  0.00    +0.000 C 
ATOM      5  C   UNK     1       8.959  -2.963   0.000  0.00  0.00    +0.000 C 
ATOM      6  C   UNK     1       8.959  -3.803   0.000  0.00  0.00    +0.000 C 
ATOM      7  C   UNK     1      10.466  -4.217   0.000  0.00  0.00    +0.000 C 
ATOM      8  C   UNK     1      11.180  -3.803   0.000  0.00  0.00    +0.000 C 
ATOM      9  C   UNK     1      11.180  -2.963   0.000  0.00  0.00    +0.000 C 
ENDROOT
BRANCH   7  12
ATOM     10  O   UNK     1       9.764  -5.437   0.000  0.00  0.00    +0.000 OA
ATOM     11  O   UNK     1      11.180  -5.437   0.000  0.00  0.00    +0.000 OA
ATOM     12  C   UNK     1      10.466  -5.022   0.000  0.00  0.00    +0.000 C 
ENDBRANCH   7  12
BRANCH   5  14
ATOM     13  O   UNK     1       7.532  -3.803   0.000  0.00  0.00    +0.000 OA
ATOM     14  N   UNK     1       8.246  -2.549   0.000  0.00  0.00    +0.000 NA
ATOM     15  C   UNK     1       7.532  -2.963   0.000  0.00  0.00    +0.000 C 
BRANCH  15  16
ATOM     16  C   UNK     1       6.819  -2.549   0.000  0.00  0.00    +0.000 C 
BRANCH  16  17
ATOM     17  S   UNK     1       6.105  -2.963   0.000  0.00  0.00    +0.000 S 
BRANCH  17  18
ATOM     18  C   UNK     1       5.403  -2.583   0.000  0.00  0.00    +0.000 C 
BRANCH  18  20
ATOM     19  N   UNK     1       4.644  -3.849   0.000  0.00  0.00    +0.000 NA
ATOM     20  C   UNK     1       4.644  -3.009   0.000  0.00  0.00    +0.000 C 
BRANCH  20  23
ATOM     21  O   UNK     1       3.930  -1.743   0.000  0.00  0.00    +0.000 OA
ATOM     22  O   UNK     1       3.217  -3.009   0.000  0.00  0.00    +0.000 OA
ATOM     23  C   UNK     1       3.930  -2.583   0.000  0.00  0.00    +0.000 C 
ENDBRANCH  20  23
ENDBRANCH  18  20
ENDBRANCH  17  18
ENDBRANCH  16  17
ENDBRANCH  15  16
ENDBRANCH   5  14
BRANCH   5  24
ATOM     24  O   UNK     1       8.959  -1.663   0.000  0.00  0.00    +0.000 OA
ATOM     25  C   UNK     1       9.672  -1.248   0.000  0.00  0.00    +0.000 C 
ENDBRANCH   5  24
BRANCH   8  26
ATOM     26  C   UNK     1      11.893  -4.217   0.000  0.00  0.00    +0.000 C 
BRANCH  26  27
ATOM     27  S   UNK     1      12.607  -3.803   0.000  0.00  0.00    +0.000 S 
BRANCH  27  32
ATOM     28  N   UNK     1      13.608  -5.034   0.000  0.00  0.00    +0.000 N 
ATOM     29  N   UNK     1      14.045  -3.734   0.000  0.00  0.00    +0.000 NA
ATOM     30  N   UNK     1      14.459  -5.034   0.000  0.00  0.00    +0.000 NA
ATOM     31  N   UNK     1      14.724  -4.240   0.000  0.00  0.00    +0.000 NA
ATOM     32  C   UNK     1      13.355  -4.229   0.000  0.00  0.00    +0.000 A 
ATOM     33  C   UNK     1      13.102  -5.713   0.000  0.00  0.00    +0.000 C 
ENDBRANCH  27  32
ENDBRANCH  26  27
ENDBRANCH   8  26
TORSDOF 11
