REMARK  Name = 
REMARK  7 active torsions:
REMARK  status: ('A' for Active; 'I' for Inactive)
REMARK    1  A    between atoms: C_2  and  C_3
REMARK    2  A    between atoms: C_22  and  C_23
REMARK    3  A    between atoms: C_27  and  C_35
REMARK    4  A    between atoms: C_28  and  C_30
REMARK    5  A    between atoms: C_30  and  O_32
REMARK    6  A    between atoms: O_32  and  C_33
REMARK    7  A    between atoms: C_39  and  C_40
REMARK                            x       y       z     vdW  Elec       q    Type
REMARK                         _______ _______ _______ _____ _____    ______ ____
ROOT
ATOM      1  C   UNL     1       2.320   2.857   0.000  0.00  0.00    +0.000 A 
ATOM      2  C   UNL     1       2.908   2.285   0.000  0.00  0.00    +0.000 A 
ATOM      3  C   UNL     1       2.541   1.552   0.000  0.00  0.00    +0.000 A 
ATOM      4  C   UNL     1       2.933   0.827   0.000  0.00  0.00    +0.000 C 
ATOM      5  C   UNL     1       2.541   0.102   0.000  0.00  0.00    +0.000 C 
ATOM      6  N   UNL     1       1.731  -0.017   0.000  0.00  0.00    +0.000 NA
ATOM      7  C   UNL     1       1.586  -0.827   0.000  0.00  0.00    +0.000 C 
ATOM      8  C   UNL     1       0.750  -1.219   0.000  0.00  0.00    +0.000 C 
ATOM      9  C   UNL     1       0.162  -0.742   0.000  0.00  0.00    +0.000 C 
ATOM     10  N   UNL     1       0.017  -0.017   0.000  0.00  0.00    +0.000 NA
ATOM     11  C   UNL     1      -0.793   0.102   0.000  0.00  0.00    +0.000 C 
ATOM     12  C   UNL     1      -1.211   0.827   0.000  0.00  0.00    +0.000 C 
ATOM     13  C   UNL     1      -0.793   1.552   0.000  0.00  0.00    +0.000 C 
ATOM     14  N   UNL     1       0.017   1.680   0.000  0.00  0.00    +0.000 NA
ATOM     15  C   UNL     1       0.162   2.482   0.000  0.00  0.00    +0.000 C 
ATOM     16  C   UNL     1       0.878   2.899   0.000  0.00  0.00    +0.000 C 
ATOM     17  C   UNL     1       1.586   2.482   0.000  0.00  0.00    +0.000 A 
ATOM     18  N   UNL     1       1.731   1.680   0.000  0.00  0.00    +0.000 NA
ATOM     19  C   UNL     1      -0.571   2.874   0.000  0.00  0.00    +0.000 C 
ATOM     20  C   UNL     1      -1.168   2.285   0.000  0.00  0.00    +0.000 C 
ATOM     21  C   UNL     1      -1.100   3.513   0.000  0.00  0.00    +0.000 C 
ATOM     22  C   UNL     1      -1.168  -0.623   0.000  0.00  0.00    +0.000 C 
ATOM     23  C   UNL     1      -0.571  -1.219   0.000  0.00  0.00    +0.000 C 
ATOM     24  C   UNL     1      -0.333  -1.995   0.000  0.00  0.00    +0.000 C 
ATOM     25  C   UNL     1       0.512  -1.995   0.000  0.00  0.00    +0.000 C 
ATOM     26  C   UNL     1      -1.808  -1.143   0.000  0.00  0.00    +0.000 C 
ATOM     27  C   UNL     1       2.320  -1.219   0.000  0.00  0.00    +0.000 C 
ATOM     28  C   UNL     1       2.908  -0.623   0.000  0.00  0.00    +0.000 C 
ATOM     29  C   UNL     1       2.439  -2.038   0.000  0.00  0.00    +0.000 C 
ATOM     30  C   UNL     1       3.624   2.686   0.000  0.00  0.00    +0.000 C 
ENDROOT
BRANCH   1  32
ATOM     31  C   UNL     1       2.567   4.264   0.000  0.00  0.00    +0.000 C 
ATOM     32  C   UNL     1       2.848   3.488   0.000  0.00  0.00    +0.000 C 
ENDBRANCH   1  32
BRANCH  20  33
ATOM     33  C   UNL     1      -1.885   2.695   0.000  0.00  0.00    +0.000 C 
ATOM     34  C   UNL     1      -2.592   2.277   0.000  0.00  0.00    +0.000 C 
ENDBRANCH  20  33
BRANCH  24  35
ATOM     35  C   UNL     1      -0.819  -2.661   0.000  0.00  0.00    +0.000 C 
ATOM     36  O   UNL     1      -1.637  -2.575   0.000  0.00  0.00    +0.000 OA
BRANCH  35  37
ATOM     37  O   UNL     1      -0.486  -3.420   0.000  0.00  0.00    +0.000 OA
BRANCH  37  38
ATOM     38  C   UNL     1       0.333  -3.505   0.000  0.00  0.00    +0.000 C 
ATOM     39  C   UNL     1       0.665  -4.264   0.000  0.00  0.00    +0.000 C 
ENDBRANCH  37  38
ENDBRANCH  35  37
ENDBRANCH  24  35
BRANCH  28  40
ATOM     40  C   UNL     1       3.727  -0.759   0.000  0.00  0.00    +0.000 C 
ATOM     41  C   UNL     1       4.247  -0.111   0.000  0.00  0.00    +0.000 C 
ENDBRANCH  28  40
BRANCH  23  42
ATOM     42  C   UNL     1      -1.279  -1.646   0.000  0.00  0.00    +0.000 C 
ATOM     43  C   UNL     1      -1.262  -2.473   0.000  0.00  0.00    +0.000 C 
ENDBRANCH  23  42
TORSDOF 7
REMARK  Name = 
REMARK  7 active torsions:
REMARK  status: ('A' for Active; 'I' for Inactive)
REMARK    1  A    between atoms: C_2  and  C_3
REMARK    2  A    between atoms: C_22  and  C_23
REMARK    3  A    between atoms: C_27  and  C_35
REMARK    4  A    between atoms: C_28  and  C_30
REMARK    5  A    between atoms: C_30  and  O_32
REMARK    6  A    between atoms: O_32  and  C_33
REMARK    7  A    between atoms: C_39  and  C_40
REMARK                            x       y       z     vdW  Elec       q    Type
REMARK                         _______ _______ _______ _____ _____    ______ ____
ROOT
ATOM      1 CL   UNL     1      -3.420   0.614   0.000  0.00  0.00    +0.000 Cl
ENDROOT
TORSDOF 0
REMARK  Name = 
REMARK  7 active torsions:
REMARK  status: ('A' for Active; 'I' for Inactive)
REMARK    1  A    between atoms: C_2  and  C_3
REMARK    2  A    between atoms: C_22  and  C_23
REMARK    3  A    between atoms: C_27  and  C_35
REMARK    4  A    between atoms: C_28  and  C_30
REMARK    5  A    between atoms: C_30  and  O_32
REMARK    6  A    between atoms: O_32  and  C_33
REMARK    7  A    between atoms: C_39  and  C_40
REMARK                            x       y       z     vdW  Elec       q    Type
REMARK                         _______ _______ _______ _____ _____    ______ ____
ROOT
ATOM      1 SN   UNL     1      -4.247   0.614   0.000  0.00  0.00    +0.000 Sn
ENDROOT
TORSDOF 0
