REMARK  Name = 
REMARK  15 active torsions:
REMARK  status: ('A' for Active; 'I' for Inactive)
REMARK    1  A    between atoms: C_2  and  C_3
REMARK    2  A    between atoms: C_3  and  C_4
REMARK    3  A    between atoms: C_3  and  N_52
REMARK    4  A    between atoms: C_10  and  C_11
REMARK    5  A    between atoms: C_11  and  C_12
REMARK    6  A    between atoms: C_20  and  C_21
REMARK    7  A    between atoms: C_22  and  C_31
REMARK    8  A    between atoms: C_31  and  C_32
REMARK    9  A    between atoms: C_37  and  C_39
REMARK   10  A    between atoms: C_39  and  C_40
REMARK   11  A    between atoms: C_39  and  N_42
REMARK   12  A    between atoms: C_43  and  C_45
REMARK   13  A    between atoms: C_45  and  N_47
REMARK   14  A    between atoms: C_53  and  C_55
REMARK   15  A    between atoms: C_55  and  N_57
REMARK                            x       y       z     vdW  Elec       q    Type
REMARK                         _______ _______ _______ _____ _____    ______ ____
ROOT
ATOM      1  C   UNL     1      -0.656  -1.365   0.000  0.00  0.00    +0.000 A 
ATOM      2  C   UNL     1      -1.441  -1.110   0.000  0.00  0.00    +0.000 A 
ATOM      3  C   UNL     1      -2.155  -1.523   0.000  0.00  0.00    +0.000 A 
ATOM      4  C   UNL     1      -2.870  -1.110   0.000  0.00  0.00    +0.000 A 
ATOM      5  C   UNL     1      -2.870  -0.285   0.000  0.00  0.00    +0.000 A 
ATOM      6  C   UNL     1      -2.155   0.127   0.000  0.00  0.00    +0.000 A 
ATOM      7  C   UNL     1      -1.441  -0.285   0.000  0.00  0.00    +0.000 A 
ATOM      8  N   UNL     1      -0.656  -0.030   0.000  0.00  0.00    +0.000 NA
ATOM      9  C   UNL     1      -0.171  -0.698   0.000  0.00  0.00    +0.000 A 
ATOM     10  F   UNL     1      -3.584   0.127   0.000  0.00  0.00    +0.000 F 
ENDROOT
BRANCH   9  11
ATOM     11  C   UNL     1       0.654  -0.698   0.000  0.00  0.00    +0.000 A 
ATOM     12  C   UNL     1       1.139  -0.030   0.000  0.00  0.00    +0.000 A 
ATOM     13  C   UNL     1       1.923  -0.285   0.000  0.00  0.00    +0.000 A 
ATOM     14  C   UNL     1       2.638   0.127   0.000  0.00  0.00    +0.000 A 
ATOM     15  C   UNL     1       3.352  -0.285   0.000  0.00  0.00    +0.000 A 
ATOM     16  C   UNL     1       3.352  -1.110   0.000  0.00  0.00    +0.000 A 
ATOM     17  C   UNL     1       2.638  -1.523   0.000  0.00  0.00    +0.000 A 
ATOM     18  C   UNL     1       1.923  -1.110   0.000  0.00  0.00    +0.000 A 
ATOM     19  N   UNL     1       1.139  -1.365   0.000  0.00  0.00    +0.000 NA
ATOM     20  F   UNL     1       4.067  -1.523   0.000  0.00  0.00    +0.000 F 
BRANCH  12  21
ATOM     21  C   UNL     1       0.884   0.754   0.000  0.00  0.00    +0.000 C 
BRANCH  21  22
ATOM     22  C   UNL     1       1.436   1.367   0.000  0.00  0.00    +0.000 C 
ATOM     23  C   UNL     1       2.256   1.281   0.000  0.00  0.00    +0.000 C 
ATOM     24  C   UNL     1       2.592   2.035   0.000  0.00  0.00    +0.000 C 
ATOM     25  C   UNL     1       1.979   2.587   0.000  0.00  0.00    +0.000 C 
ATOM     26  N   UNL     1       1.264   2.174   0.000  0.00  0.00    +0.000 N 
ATOM     27  C   UNL     1       0.511   2.510   0.000  0.00  0.00    +0.000 C 
ATOM     28  O   UNL     1       0.424   3.330   0.000  0.00  0.00    +0.000 OA
ATOM     29  O   UNL     1       3.399   2.206   0.000  0.00  0.00    +0.000 OA
BRANCH  27  30
ATOM     30  C   UNL     1      -0.157   2.025   0.000  0.00  0.00    +0.000 C 
BRANCH  30  31
ATOM     31  N   UNL     1      -0.910   2.360   0.000  0.00  0.00    +0.000 NA
ATOM     32  C   UNL     1      -0.997   3.181   0.000  0.00  0.00    +0.000 C 
ATOM     33  O   UNL     1      -0.329   3.666   0.000  0.00  0.00    +0.000 OA
BRANCH  32  34
ATOM     34  C   UNL     1      -1.750   3.516   0.000  0.00  0.00    +0.000 C 
ATOM     35  C   UNL     1      -2.418   3.031   0.000  0.00  0.00    +0.000 C 
BRANCH  34  36
ATOM     36  N   UNL     1      -1.837   4.337   0.000  0.00  0.00    +0.000 NA
ATOM     37  C   UNL     1      -2.590   4.673   0.000  0.00  0.00    +0.000 C 
ENDBRANCH  34  36
ENDBRANCH  32  34
ENDBRANCH  30  31
BRANCH  30  38
ATOM     38  C   UNL     1      -0.071   1.204   0.000  0.00  0.00    +0.000 C 
ATOM     39  C   UNL     1      -0.738   0.719   0.000  0.00  0.00    +0.000 C 
ENDBRANCH  30  38
ENDBRANCH  27  30
ENDBRANCH  21  22
ENDBRANCH  12  21
ENDBRANCH   9  11
BRANCH   1  40
ATOM     40  C   UNL     1      -0.401  -2.150   0.000  0.00  0.00    +0.000 C 
BRANCH  40  47
ATOM     41  C   UNL     1      -0.028  -3.906   0.000  0.00  0.00    +0.000 C 
ATOM     42  O   UNL     1       0.639  -3.421   0.000  0.00  0.00    +0.000 OA
ATOM     43  N   UNL     1      -0.782  -3.570   0.000  0.00  0.00    +0.000 N 
ATOM     44  C   UNL     1      -1.496  -3.983   0.000  0.00  0.00    +0.000 C 
ATOM     45  C   UNL     1      -2.109  -3.430   0.000  0.00  0.00    +0.000 C 
ATOM     46  C   UNL     1      -1.774  -2.677   0.000  0.00  0.00    +0.000 C 
ATOM     47  C   UNL     1      -0.953  -2.763   0.000  0.00  0.00    +0.000 C 
ATOM     48  O   UNL     1      -2.916  -3.602   0.000  0.00  0.00    +0.000 OA
BRANCH  41  49
ATOM     49  C   UNL     1       0.058  -4.726   0.000  0.00  0.00    +0.000 C 
BRANCH  49  50
ATOM     50  N   UNL     1       0.812  -5.062   0.000  0.00  0.00    +0.000 NA
ATOM     51  C   UNL     1       0.898  -5.882   0.000  0.00  0.00    +0.000 C 
ATOM     52  O   UNL     1       0.231  -6.367   0.000  0.00  0.00    +0.000 OA
BRANCH  51  53
ATOM     53  C   UNL     1       1.652  -6.218   0.000  0.00  0.00    +0.000 C 
ATOM     54  C   UNL     1       2.319  -5.733   0.000  0.00  0.00    +0.000 C 
BRANCH  53  55
ATOM     55  N   UNL     1       1.738  -7.038   0.000  0.00  0.00    +0.000 NA
ATOM     56  C   UNL     1       2.492  -7.374   0.000  0.00  0.00    +0.000 C 
ENDBRANCH  53  55
ENDBRANCH  51  53
ENDBRANCH  49  50
BRANCH  49  58
ATOM     57  C   UNL     1      -0.523  -6.032   0.000  0.00  0.00    +0.000 C 
ATOM     58  C   UNL     1      -0.609  -5.211   0.000  0.00  0.00    +0.000 C 
ENDBRANCH  49  58
ENDBRANCH  41  49
ENDBRANCH  40  47
ENDBRANCH   1  40
TORSDOF 15
