REMARK  Name = 
REMARK  4 active torsions:
REMARK  status: ('A' for Active; 'I' for Inactive)
REMARK    1  A    between atoms: C_5  and  O_17
REMARK    2  A    between atoms: C_6  and  C_10
REMARK    3  A    between atoms: C_7  and  C_9
REMARK    4  A    between atoms: C_8  and  O_17
REMARK                            x       y       z     vdW  Elec       q    Type
REMARK                         _______ _______ _______ _____ _____    ______ ____
ROOT
ATOM      1  C   UNL     1       1.429   0.000   0.000  0.00  0.00    +0.000 A 
ATOM      2  C   UNL     1       1.429   0.825   0.000  0.00  0.00    +0.000 A 
ATOM      3  C   UNL     1       0.000   0.000   0.000  0.00  0.00    +0.000 A 
ATOM      4  C   UNL     1       0.715  -0.412   0.000  0.00  0.00    +0.000 A 
ATOM      5  C   UNL     1       0.715   1.238   0.000  0.00  0.00    +0.000 A 
ATOM      6  C   UNL     1       0.000   0.825   0.000  0.00  0.00    +0.000 A 
ENDROOT
BRANCH   4   7
ATOM      7  C   UNL     1       0.715  -1.238   0.000  0.00  0.00    +0.000 C 
ATOM      8  F   UNL     1       0.715  -2.062   0.000  0.00  0.00    +0.000 F 
ATOM      9  F   UNL     1      -0.111  -1.238   0.000  0.00  0.00    +0.000 F 
ATOM     10  F   UNL     1       1.540  -1.238   0.000  0.00  0.00    +0.000 F 
ENDBRANCH   4   7
BRANCH   5  11
ATOM     11  C   UNL     1       0.715   2.062   0.000  0.00  0.00    +0.000 C 
ATOM     12  O   UNL     1       1.429   2.475   0.000  0.00  0.00    +0.000 OA
ATOM     13  O   UNL     1       0.000   2.475   0.000  0.00  0.00    +0.000 OA
ENDBRANCH   5  11
BRANCH   6  14
ATOM     14  O   UNL     1      -0.715   1.238   0.000  0.00  0.00    +0.000 OA
BRANCH  14  16
ATOM     15  C   UNL     1      -1.429   0.000   0.000  0.00  0.00    +0.000 C 
ATOM     16  C   UNL     1      -1.429   0.825   0.000  0.00  0.00    +0.000 C 
ATOM     17  O   UNL     1      -2.143   1.238   0.000  0.00  0.00    +0.000 OA
ENDBRANCH  14  16
ENDBRANCH   6  14
TORSDOF 4
