REMARK  Name = 
REMARK  5 active torsions:
REMARK  status: ('A' for Active; 'I' for Inactive)
REMARK    1  A    between atoms: CB_1  and  CA_2
REMARK    2  A    between atoms: CA_2  and  C_3
REMARK    3  A    between atoms: CB_8  and  CA_9
REMARK    4  A    between atoms: CA_9  and  C_10
REMARK    5  A    between atoms: CA_15  and  C_16
REMARK                            x       y       z     vdW  Elec       q    Type
REMARK                         _______ _______ _______ _____ _____    ______ ____
ROOT
ATOM      1  CA  CYS A   1      -2.538   2.103   0.000  0.00  0.00    +0.000 C 
ATOM      2  N   CYS A   1      -2.538   2.928   0.000  0.00  0.00    +0.000 NA
ENDROOT
BRANCH   1   3
ATOM      3  C   CYS A   1      -1.823   1.690   0.000  0.00  0.00    +0.000 C 
ATOM      4  O   CYS A   1      -1.823   0.865   0.000  0.00  0.00    +0.000 OA
ATOM      5  OXT CYS A   1      -1.109   2.103   0.000  0.00  0.00    +0.000 OA
ENDBRANCH   1   3
BRANCH   1   6
ATOM      6  CB  CYS A   1      -3.252   1.690   0.000  0.00  0.00    +0.000 C 
ATOM      7  SG  CYS A   1      -3.966   2.103   0.000  0.00  0.00    +0.000 SA
ENDBRANCH   1   6
TORSDOF 2
REMARK  Name = 
REMARK  5 active torsions:
REMARK  status: ('A' for Active; 'I' for Inactive)
REMARK    1  A    between atoms: CB_1  and  CA_2
REMARK    2  A    between atoms: CA_2  and  C_3
REMARK    3  A    between atoms: CB_8  and  CA_9
REMARK    4  A    between atoms: CA_9  and  C_10
REMARK    5  A    between atoms: CA_15  and  C_16
REMARK                            x       y       z     vdW  Elec       q    Type
REMARK                         _______ _______ _______ _____ _____    ______ ____
ROOT
ATOM      1  CA  CYS A   1       2.729   1.741   0.000  0.00  0.00    +0.000 C 
ATOM      2  N   CYS A   1       2.317   1.026   0.000  0.00  0.00    +0.000 NA
ENDROOT
BRANCH   1   3
ATOM      3  C   CYS A   1       3.554   1.741   0.000  0.00  0.00    +0.000 C 
ATOM      4  O   CYS A   1       3.966   1.026   0.000  0.00  0.00    +0.000 OA
ATOM      5  OXT CYS A   1       3.966   2.455   0.000  0.00  0.00    +0.000 OA
ENDBRANCH   1   3
BRANCH   1   6
ATOM      6  CB  CYS A   1       2.317   2.455   0.000  0.00  0.00    +0.000 C 
ATOM      7  SG  CYS A   1       1.492   2.455   0.000  0.00  0.00    +0.000 S 
ENDBRANCH   1   6
TORSDOF 2
REMARK  Name = 
REMARK  5 active torsions:
REMARK  status: ('A' for Active; 'I' for Inactive)
REMARK    1  A    between atoms: CB_1  and  CA_2
REMARK    2  A    between atoms: CA_2  and  C_3
REMARK    3  A    between atoms: CB_8  and  CA_9
REMARK    4  A    between atoms: CA_9  and  C_10
REMARK    5  A    between atoms: CA_15  and  C_16
REMARK                            x       y       z     vdW  Elec       q    Type
REMARK                         _______ _______ _______ _____ _____    ______ ____
ROOT
ATOM      1  C   GLY A   1      -2.220  -2.213   0.000  0.00  0.00    +0.000 C 
ATOM      2  O   GLY A   1      -1.808  -2.928   0.000  0.00  0.00    +0.000 OA
ATOM      3  OXT GLY A   1      -3.045  -2.213   0.000  0.00  0.00    +0.000 OA
ENDROOT
BRANCH   1   4
ATOM      4  CA  GLY A   1      -1.808  -1.499   0.000  0.00  0.00    +0.000 C 
ATOM      5  N   GLY A   1      -2.220  -0.784   0.000  0.00  0.00    +0.000 NA
ENDBRANCH   1   4
TORSDOF 1
REMARK  Name = 
REMARK  5 active torsions:
REMARK  status: ('A' for Active; 'I' for Inactive)
REMARK    1  A    between atoms: CB_1  and  CA_2
REMARK    2  A    between atoms: CA_2  and  C_3
REMARK    3  A    between atoms: CB_8  and  CA_9
REMARK    4  A    between atoms: CA_9  and  C_10
REMARK    5  A    between atoms: CA_15  and  C_16
REMARK                            x       y       z     vdW  Elec       q    Type
REMARK                         _______ _______ _______ _____ _____    ______ ____
ROOT
ATOM      1 FE   UNL     1      -0.394   2.515   0.000  0.00  0.00    +0.000 Fe
ENDROOT
TORSDOF 0
