REMARK  Name = 
REMARK  19 active torsions:
REMARK  status: ('A' for Active; 'I' for Inactive)
REMARK    1  A    between atoms: C_2  and  C_3
REMARK    2  A    between atoms: C_3  and  C_4
REMARK    3  A    between atoms: C_4  and  C_5
REMARK    4  A    between atoms: C_5  and  C_6
REMARK    5  A    between atoms: C_6  and  C_7
REMARK    6  A    between atoms: C_7  and  C_8
REMARK    7  A    between atoms: C_8  and  C_9
REMARK    8  A    between atoms: C_10  and  C_11
REMARK    9  A    between atoms: C_11  and  C_12
REMARK   10  A    between atoms: C_12  and  C_13
REMARK   11  A    between atoms: C_13  and  C_14
REMARK   12  A    between atoms: C_14  and  C_15
REMARK   13  A    between atoms: C_15  and  C_16
REMARK   14  A    between atoms: C_16  and  C_17
REMARK   15  A    between atoms: C_17  and  C_18
REMARK   16  A    between atoms: C_18  and  O_20
REMARK   17  A    between atoms: O_20  and  C_21
REMARK   18  A    between atoms: C_21  and  C_22
REMARK   19  A    between atoms: C_25  and  N_27
REMARK                            x       y       z     vdW  Elec       q    Type
REMARK                         _______ _______ _______ _____ _____    ______ ____
ROOT
ATOM      1  C   UNL     1       6.496  -8.859   0.000  0.00  0.00    +0.000 C 
ATOM      2  O   UNL     1       6.496  -9.684   0.000  0.00  0.00    +0.000 OA
ENDROOT
BRANCH   1   3
ATOM      3  C   UNL     1       5.782  -8.446   0.000  0.00  0.00    +0.000 C 
BRANCH   3   4
ATOM      4  C   UNL     1       5.067  -8.859   0.000  0.00  0.00    +0.000 C 
BRANCH   4   5
ATOM      5  C   UNL     1       4.353  -8.446   0.000  0.00  0.00    +0.000 C 
BRANCH   5   6
ATOM      6  C   UNL     1       3.638  -8.859   0.000  0.00  0.00    +0.000 C 
BRANCH   6   7
ATOM      7  C   UNL     1       2.924  -8.446   0.000  0.00  0.00    +0.000 C 
BRANCH   7   8
ATOM      8  C   UNL     1       2.209  -8.859   0.000  0.00  0.00    +0.000 C 
BRANCH   8   9
ATOM      9  C   UNL     1       1.495  -8.446   0.000  0.00  0.00    +0.000 C 
BRANCH   9  11
ATOM     10  C   UNL     1       0.066  -8.446   0.000  0.00  0.00    +0.000 C 
ATOM     11  C   UNL     1       0.780  -8.859   0.000  0.00  0.00    +0.000 C 
BRANCH  10  12
ATOM     12  C   UNL     1      -0.648  -8.859   0.000  0.00  0.00    +0.000 C 
BRANCH  12  13
ATOM     13  C   UNL     1      -1.363  -8.446   0.000  0.00  0.00    +0.000 C 
BRANCH  13  14
ATOM     14  C   UNL     1      -2.078  -8.859   0.000  0.00  0.00    +0.000 C 
BRANCH  14  15
ATOM     15  C   UNL     1      -2.792  -8.446   0.000  0.00  0.00    +0.000 C 
BRANCH  15  16
ATOM     16  C   UNL     1      -3.506  -8.859   0.000  0.00  0.00    +0.000 C 
BRANCH  16  17
ATOM     17  C   UNL     1      -4.221  -8.446   0.000  0.00  0.00    +0.000 C 
BRANCH  17  19
ATOM     18  C   UNL     1      -5.650  -8.446   0.000  0.00  0.00    +0.000 C 
ATOM     19  C   UNL     1      -4.935  -8.859   0.000  0.00  0.00    +0.000 C 
ENDBRANCH  17  19
ENDBRANCH  16  17
ENDBRANCH  15  16
ENDBRANCH  14  15
ENDBRANCH  13  14
ENDBRANCH  12  13
ENDBRANCH  10  12
ENDBRANCH   9  11
ENDBRANCH   8   9
ENDBRANCH   7   8
ENDBRANCH   6   7
ENDBRANCH   5   6
ENDBRANCH   4   5
ENDBRANCH   3   4
ENDBRANCH   1   3
BRANCH   1  20
ATOM     20  O   UNL     1       7.211  -8.446   0.000  0.00  0.00    +0.000 OA
BRANCH  20  21
ATOM     21  C   UNL     1       7.925  -8.859   0.000  0.00  0.00    +0.000 C 
BRANCH  21  22
ATOM     22  C   UNL     1       8.640  -8.446   0.000  0.00  0.00    +0.000 C 
ATOM     23  C   UNL     1       8.726  -7.626   0.000  0.00  0.00    +0.000 C 
ATOM     24  C   UNL     1       9.533  -7.454   0.000  0.00  0.00    +0.000 C 
ATOM     25  C   UNL     1       9.945  -8.169   0.000  0.00  0.00    +0.000 C 
ATOM     26  O   UNL     1       9.393  -8.782   0.000  0.00  0.00    +0.000 OA
ATOM     27  F   UNL     1       9.455  -6.633   0.000  0.00  0.00    +0.000 F 
ATOM     28  F   UNL     1      10.195  -6.963   0.000  0.00  0.00    +0.000 F 
ATOM     29  O   UNL     1       8.113  -7.074   0.000  0.00  0.00    +0.000 OA
BRANCH  25  30
ATOM     30  N   UNL     1      10.766  -8.255   0.000  0.00  0.00    +0.000 N 
ATOM     31  C   UNL     1      11.251  -7.588   0.000  0.00  0.00    +0.000 A 
ATOM     32  C   UNL     1      12.071  -7.674   0.000  0.00  0.00    +0.000 A 
ATOM     33  C   UNL     1      12.407  -8.428   0.000  0.00  0.00    +0.000 A 
ATOM     34  N   UNL     1      11.922  -9.095   0.000  0.00  0.00    +0.000 NA
ATOM     35  C   UNL     1      11.101  -9.009   0.000  0.00  0.00    +0.000 A 
ATOM     36  O   UNL     1      10.616  -9.676   0.000  0.00  0.00    +0.000 OA
ATOM     37  N   UNL     1      13.227  -8.514   0.000  0.00  0.00    +0.000 NA
ENDBRANCH  25  30
ENDBRANCH  21  22
ENDBRANCH  20  21
ENDBRANCH   1  20
TORSDOF 19
