REMARK  Name = 
REMARK  6 active torsions:
REMARK  status: ('A' for Active; 'I' for Inactive)
REMARK    1  A    between atoms: O_1  and  C_2
REMARK    2  A    between atoms: O_1  and  C_3
REMARK    3  A    between atoms: C_2  and  N_9
REMARK    4  A    between atoms: C_3  and  N_18
REMARK    5  A    between atoms: C_6  and  C_10
REMARK    6  A    between atoms: C_15  and  C_19
REMARK                            x       y       z     vdW  Elec       q    Type
REMARK                         _______ _______ _______ _____ _____    ______ ____
ROOT
ATOM      1  O   UNL     1       0.000   0.412   0.000  0.00  0.00    +0.000 OA
ENDROOT
BRANCH   1   2
ATOM      2  C   UNL     1      -0.714   0.825   0.000  0.00  0.00    +0.000 C 
BRANCH   2   8
ATOM      3  C   UNL     1      -1.429  -0.412   0.000  0.00  0.00    +0.000 A 
ATOM      4  C   UNL     1      -2.143  -0.825   0.000  0.00  0.00    +0.000 A 
ATOM      5  C   UNL     1      -2.858  -0.412   0.000  0.00  0.00    +0.000 A 
ATOM      6  C   UNL     1      -2.858   0.412   0.000  0.00  0.00    +0.000 A 
ATOM      7  C   UNL     1      -2.143   0.825   0.000  0.00  0.00    +0.000 A 
ATOM      8  N   UNL     1      -1.429   0.412   0.000  0.00  0.00    +0.000 N 
BRANCH   5   9
ATOM      9  C   UNL     1      -3.572  -0.825   0.000  0.00  0.00    +0.000 C 
ATOM     10  N   UNL     1      -4.287  -0.412   0.000  0.00  0.00    +0.000 NA
ATOM     11  O   UNL     1      -5.001  -0.825   0.000  0.00  0.00    +0.000 OA
ENDBRANCH   5   9
ENDBRANCH   2   8
ENDBRANCH   1   2
BRANCH   1  12
ATOM     12  C   UNL     1       0.714   0.825   0.000  0.00  0.00    +0.000 C 
BRANCH  12  18
ATOM     13  C   UNL     1       2.143   0.825   0.000  0.00  0.00    +0.000 A 
ATOM     14  C   UNL     1       2.858   0.412   0.000  0.00  0.00    +0.000 A 
ATOM     15  C   UNL     1       2.858  -0.412   0.000  0.00  0.00    +0.000 A 
ATOM     16  C   UNL     1       2.143  -0.825   0.000  0.00  0.00    +0.000 A 
ATOM     17  C   UNL     1       1.429  -0.412   0.000  0.00  0.00    +0.000 A 
ATOM     18  N   UNL     1       1.429   0.412   0.000  0.00  0.00    +0.000 N 
BRANCH  15  19
ATOM     19  C   UNL     1       3.572  -0.825   0.000  0.00  0.00    +0.000 C 
ATOM     20  N   UNL     1       4.287  -0.412   0.000  0.00  0.00    +0.000 NA
ATOM     21  O   UNL     1       5.001  -0.825   0.000  0.00  0.00    +0.000 OA
ENDBRANCH  15  19
ENDBRANCH  12  18
ENDBRANCH   1  12
TORSDOF 6
