REMARK  Name = 
REMARK  10 active torsions:
REMARK  status: ('A' for Active; 'I' for Inactive)
REMARK    1  A    between atoms: C_5  and  C_6
REMARK    2  A    between atoms: C_6  and  C_7
REMARK    3  A    between atoms: C_7  and  C_8
REMARK    4  A    between atoms: C_8  and  C_15
REMARK    5  A    between atoms: C_28  and  C_29
REMARK    6  A    between atoms: C_29  and  C_30
REMARK    7  A    between atoms: C_30  and  C_31
REMARK    8  A    between atoms: C_31  and  C_39
REMARK    9  A    between atoms: C_37  and  C_40
REMARK   10  A    between atoms: C_41  and  C_44
REMARK                            x       y       z     vdW  Elec       q    Type
REMARK                         _______ _______ _______ _____ _____    ______ ____
ROOT
ATOM      1  C   UNL     1      -1.179  -0.132   0.000  0.00  0.00    +0.000 C 
ATOM      2  C   UNL     1      -3.506   2.150   0.000  0.00  0.00    +0.000 C 
ATOM      3  C   UNL     1      -4.567   2.150   0.000  0.00  0.00    +0.000 C 
ATOM      4  C   UNL     1      -1.893   1.106   0.000  0.00  0.00    +0.000 C 
ATOM      5  C   UNL     1      -2.607   1.518   0.000  0.00  0.00    +0.000 C 
ATOM      6  C   UNL     1      -2.607  -0.132   0.000  0.00  0.00    +0.000 C 
ATOM      7  C   UNL     1      -4.751  -1.369   0.000  0.00  0.00    +0.000 A 
ATOM      8  C   UNL     1      -5.465  -0.132   0.000  0.00  0.00    +0.000 A 
ATOM      9  C   UNL     1      -1.893   0.281   0.000  0.00  0.00    +0.000 C 
ATOM     10  C   UNL     1      -5.465  -0.957   0.000  0.00  0.00    +0.000 A 
ATOM     11  C   UNL     1      -3.322   0.281   0.000  0.00  0.00    +0.000 C 
ATOM     12  C   UNL     1      -3.322   1.106   0.000  0.00  0.00    +0.000 C 
ATOM     13  C   UNL     1      -4.036  -0.957   0.000  0.00  0.00    +0.000 A 
ATOM     14  C   UNL     1      -4.751   0.281   0.000  0.00  0.00    +0.000 A 
ATOM     15  C   UNL     1      -4.036  -0.132   0.000  0.00  0.00    +0.000 A 
ATOM     16  C   UNL     1      -4.036   1.518   0.000  0.00  0.00    +0.000 C 
ATOM     17  O   UNL     1      -3.322  -1.369   0.000  0.00  0.00    +0.000 OA
ATOM     18  O   UNL     1      -4.751   1.106   0.000  0.00  0.00    +0.000 OA
ENDROOT
BRANCH  10  19
ATOM     19  C   UNL     1      -6.180  -1.369   0.000  0.00  0.00    +0.000 C 
BRANCH  19  20
ATOM     20  C   UNL     1      -6.894  -0.957   0.000  0.00  0.00    +0.000 C 
BRANCH  20  21
ATOM     21  C   UNL     1      -7.609  -1.369   0.000  0.00  0.00    +0.000 C 
BRANCH  21  23
ATOM     22  C   UNL     1      -9.038  -1.369   0.000  0.00  0.00    +0.000 C 
ATOM     23  C   UNL     1      -8.323  -0.957   0.000  0.00  0.00    +0.000 C 
ENDBRANCH  21  23
ENDBRANCH  20  21
ENDBRANCH  19  20
ENDBRANCH  10  19
TORSDOF 4
REMARK  Name = 
REMARK  10 active torsions:
REMARK  status: ('A' for Active; 'I' for Inactive)
REMARK    1  A    between atoms: C_5  and  C_6
REMARK    2  A    between atoms: C_6  and  C_7
REMARK    3  A    between atoms: C_7  and  C_8
REMARK    4  A    between atoms: C_8  and  C_15
REMARK    5  A    between atoms: C_28  and  C_29
REMARK    6  A    between atoms: C_29  and  C_30
REMARK    7  A    between atoms: C_30  and  C_31
REMARK    8  A    between atoms: C_31  and  C_39
REMARK    9  A    between atoms: C_37  and  C_40
REMARK   10  A    between atoms: C_41  and  C_44
REMARK                            x       y       z     vdW  Elec       q    Type
REMARK                         _______ _______ _______ _____ _____    ______ ____
ROOT
ATOM      1  C   UNL     1       5.465   1.562   0.000  0.00  0.00    +0.000 A 
ATOM      2  C   UNL     1       4.751   0.325   0.000  0.00  0.00    +0.000 A 
ATOM      3  C   UNL     1       4.751   1.150   0.000  0.00  0.00    +0.000 A 
ATOM      4  C   UNL     1       6.180   1.150   0.000  0.00  0.00    +0.000 A 
ATOM      5  C   UNL     1       5.465  -0.088   0.000  0.00  0.00    +0.000 A 
ATOM      6  C   UNL     1       6.180   0.325   0.000  0.00  0.00    +0.000 A 
ATOM      7  O   UNL     1       6.894   1.562   0.000  0.00  0.00    +0.000 OA
ATOM      8  O   UNL     1       4.980  -0.755   0.000  0.00  0.00    +0.000 OA
ENDROOT
BRANCH   6  15
ATOM      9  C   UNL     1       9.038   0.325   0.000  0.00  0.00    +0.000 C 
ATOM     10  C   UNL     1       8.323  -0.913   0.000  0.00  0.00    +0.000 C 
ATOM     11  C   UNL     1       7.609  -1.325   0.000  0.00  0.00    +0.000 C 
ATOM     12  C   UNL     1       7.609   0.325   0.000  0.00  0.00    +0.000 C 
ATOM     13  C   UNL     1       8.323  -0.088   0.000  0.00  0.00    +0.000 C 
ATOM     14  C   UNL     1       6.894  -0.913   0.000  0.00  0.00    +0.000 C 
ATOM     15  C   UNL     1       6.894  -0.088   0.000  0.00  0.00    +0.000 C 
BRANCH  14  18
ATOM     16  C   UNL     1       5.465  -0.913   0.000  0.00  0.00    +0.000 C 
ATOM     17  C   UNL     1       6.180  -2.150   0.000  0.00  0.00    +0.000 C 
ATOM     18  C   UNL     1       6.180  -1.325   0.000  0.00  0.00    +0.000 C 
ENDBRANCH  14  18
ENDBRANCH   6  15
BRANCH   3  19
ATOM     19  C   UNL     1       4.036   1.562   0.000  0.00  0.00    +0.000 C 
BRANCH  19  20
ATOM     20  C   UNL     1       3.322   1.150   0.000  0.00  0.00    +0.000 C 
BRANCH  20  21
ATOM     21  C   UNL     1       2.607   1.562   0.000  0.00  0.00    +0.000 C 
BRANCH  21  23
ATOM     22  C   UNL     1       1.179   1.562   0.000  0.00  0.00    +0.000 C 
ATOM     23  C   UNL     1       1.893   1.150   0.000  0.00  0.00    +0.000 C 
ENDBRANCH  21  23
ENDBRANCH  20  21
ENDBRANCH  19  20
ENDBRANCH   3  19
TORSDOF 6
