REMARK  Name = 
REMARK  8 active torsions:
REMARK  status: ('A' for Active; 'I' for Inactive)
REMARK    1  A    between atoms: P_1  and  O_4
REMARK    2  A    between atoms: P_1  and  O_5
REMARK    3  A    between atoms: O_4  and  C_22
REMARK    4  A    between atoms: O_5  and  C_30
REMARK    5  A    between atoms: N_15  and  C_27
REMARK    6  A    between atoms: N_16  and  C_28
REMARK    7  A    between atoms: C_23  and  C_30
REMARK    8  A    between atoms: C_29  and  C_31
REMARK                            x       y       z     vdW  Elec       q    Type
REMARK                         _______ _______ _______ _____ _____    ______ ____
ROOT
ATOM      1  O   UNL     1       0.829   0.419   0.000  0.00  0.00    +0.000 OA
ENDROOT
BRANCH   1   2
ATOM      2  P   UNL     1       0.576   1.204   0.000  0.00  0.00    +0.000 P 
ATOM      3  O   UNL     1       1.361   1.457   0.000  0.00  0.00    +0.000 OA
ATOM      4  O   UNL     1      -0.209   0.950   0.000  0.00  0.00    +0.000 OA
BRANCH   2   5
ATOM      5  O   UNL     1       0.322   1.989   0.000  0.00  0.00    +0.000 OA
BRANCH   5   8
ATOM      6  O   UNL     1       1.420   3.820   0.000  0.00  0.00    +0.000 OA
ATOM      7  O   UNL     1       2.107   1.798   0.000  0.00  0.00    +0.000 OA
ATOM      8  C   UNL     1       0.875   2.601   0.000  0.00  0.00    +0.000 C 
ATOM      9  C   UNL     1       1.696   2.514   0.000  0.00  0.00    +0.000 C 
ATOM     10  C   UNL     1       0.705   3.409   0.000  0.00  0.00    +0.000 C 
ATOM     11  C   UNL     1       2.033   3.267   0.000  0.00  0.00    +0.000 C 
BRANCH  10  14
ATOM     12  O   UNL     1       0.535   5.050   0.000  0.00  0.00    +0.000 OA
ATOM     13  O   UNL     1      -2.308   4.756   0.000  0.00  0.00    +0.000 OA
ATOM     14  N   UNL     1      -0.048   3.745   0.000  0.00  0.00    +0.000 N 
ATOM     15  N   UNL     1      -0.886   4.903   0.000  0.00  0.00    +0.000 N 
ATOM     16  C   UNL     1      -0.133   4.566   0.000  0.00  0.00    +0.000 A 
ATOM     17  C   UNL     1      -0.716   3.262   0.000  0.00  0.00    +0.000 A 
ATOM     18  C   UNL     1      -1.470   3.599   0.000  0.00  0.00    +0.000 A 
ATOM     19  C   UNL     1      -1.554   4.419   0.000  0.00  0.00    +0.000 A 
ATOM     20  H   UNL     1      -0.939   5.412   0.000  0.00  0.00    +0.000 HD
ENDBRANCH  10  14
BRANCH  11  22
ATOM     21  O   UNL     1       3.096   4.221   0.000  0.00  0.00    +0.000 OA
ATOM     22  C   UNL     1       2.840   3.437   0.000  0.00  0.00    +0.000 C 
ENDBRANCH  11  22
ENDBRANCH   5   8
ENDBRANCH   2   5
ENDBRANCH   1   2
BRANCH   1  23
ATOM     23  C   UNL     1       0.276  -0.193   0.000  0.00  0.00    +0.000 C 
BRANCH  23  27
ATOM     24  O   UNL     1       0.044  -1.645   0.000  0.00  0.00    +0.000 OA
ATOM     25  O   UNL     1       1.982  -0.751   0.000  0.00  0.00    +0.000 OA
ATOM     26  O   UNL     1       1.979  -2.546   0.000  0.00  0.00    +0.000 OA
ATOM     27  C   UNL     1       0.530  -0.979   0.000  0.00  0.00    +0.000 C 
ATOM     28  C   UNL     1       1.314  -1.235   0.000  0.00  0.00    +0.000 C 
ATOM     29  C   UNL     1       1.312  -2.060   0.000  0.00  0.00    +0.000 C 
ATOM     30  C   UNL     1       0.527  -2.313   0.000  0.00  0.00    +0.000 C 
BRANCH  30  32
ATOM     31  O   UNL     1      -1.224  -5.412   0.000  0.00  0.00    +0.000 OA
ATOM     32  N   UNL     1       0.271  -3.098   0.000  0.00  0.00    +0.000 N 
ATOM     33  N   UNL     1      -1.224  -2.937   0.000  0.00  0.00    +0.000 N 
ATOM     34  N   UNL     1       0.271  -4.426   0.000  0.00  0.00    +0.000 NA
ATOM     35  N   UNL     1      -1.938  -4.174   0.000  0.00  0.00    +0.000 NA
ATOM     36  N   UNL     1      -2.653  -2.937   0.000  0.00  0.00    +0.000 N 
ATOM     37  C   UNL     1      -0.509  -3.349   0.000  0.00  0.00    +0.000 A 
ATOM     38  C   UNL     1       0.753  -3.762   0.000  0.00  0.00    +0.000 A 
ATOM     39  C   UNL     1      -0.509  -4.174   0.000  0.00  0.00    +0.000 A 
ATOM     40  C   UNL     1      -1.224  -4.587   0.000  0.00  0.00    +0.000 A 
ATOM     41  C   UNL     1      -1.938  -3.349   0.000  0.00  0.00    +0.000 A 
ATOM     42  H   UNL     1      -1.224  -2.425   0.000  0.00  0.00    +0.000 HD
ATOM     43  H   UNL     1      -2.653  -2.425   0.000  0.00  0.00    +0.000 HD
ATOM     44  H   UNL     1      -3.096  -3.192   0.000  0.00  0.00    +0.000 HD
ENDBRANCH  30  32
ENDBRANCH  23  27
ENDBRANCH   1  23
TORSDOF 8
