REMARK  Name = 
REMARK  18 active torsions:
REMARK  status: ('A' for Active; 'I' for Inactive)
REMARK    1  A    between atoms: C_1  and  C_4
REMARK    2  A    between atoms: C_4  and  C_5
REMARK    3  A    between atoms: C_4  and  N_15
REMARK    4  A    between atoms: C_5  and  C_6
REMARK    5  A    between atoms: C_16  and  C_18
REMARK    6  A    between atoms: C_24  and  C_25
REMARK    7  A    between atoms: C_31  and  C_32
REMARK    8  A    between atoms: C_32  and  C_33
REMARK    9  A    between atoms: C_33  and  C_34
REMARK   10  A    between atoms: C_34  and  C_35
REMARK   11  A    between atoms: C_40  and  C_41
REMARK   12  A    between atoms: C_41  and  C_42
REMARK   13  A    between atoms: C_54  and  C_55
REMARK   14  A    between atoms: C_55  and  C_56
REMARK   15  A    between atoms: C_66  and  N_69
REMARK   16  A    between atoms: C_70  and  C_72
REMARK   17  A    between atoms: C_72  and  C_74
REMARK   18  A    between atoms: C_74  and  C_75
REMARK                            x       y       z     vdW  Elec       q    Type
REMARK                         _______ _______ _______ _____ _____    ______ ____
ROOT
ATOM      1  C   UNL     1       2.845   1.072   0.000  0.00  0.00    +0.000 C 
ATOM      2  C   UNL     1       2.432   0.357   0.000  0.00  0.00    +0.000 C 
ATOM      3  S   UNL     1       1.607   0.357   0.000  0.00  0.00    +0.000 S 
ATOM      4  N   UNL     1       2.432   1.786   0.000  0.00  0.00    +0.000 NA
ATOM      5  C   UNL     1       1.607   1.786   0.000  0.00  0.00    +0.000 C 
ATOM      6  O   UNL     1       1.195   1.072   0.000  0.00  0.00    +0.000 OA
ATOM      7  C   UNL     1       1.195   2.501   0.000  0.00  0.00    +0.000 C 
ATOM      8  N   UNL     1       0.370   2.501   0.000  0.00  0.00    +0.000 NA
ATOM      9  C   UNL     1      -0.043   3.215   0.000  0.00  0.00    +0.000 C 
ATOM     10  O   UNL     1       0.370   3.930   0.000  0.00  0.00    +0.000 OA
ATOM     11  C   UNL     1      -0.868   3.215   0.000  0.00  0.00    +0.000 C 
ATOM     12  N   UNL     1      -1.280   2.501   0.000  0.00  0.00    +0.000 NA
ATOM     13  C   UNL     1      -2.105   2.501   0.000  0.00  0.00    +0.000 C 
ATOM     14  O   UNL     1      -2.518   3.215   0.000  0.00  0.00    +0.000 OA
ATOM     15  C   UNL     1      -2.518   1.786   0.000  0.00  0.00    +0.000 C 
ATOM     16  N   UNL     1      -2.105   1.072   0.000  0.00  0.00    +0.000 NA
ATOM     17  C   UNL     1      -2.518   0.357   0.000  0.00  0.00    +0.000 C 
ATOM     18  O   UNL     1      -3.342   0.357   0.000  0.00  0.00    +0.000 OA
ATOM     19  C   UNL     1      -2.105  -0.357   0.000  0.00  0.00    +0.000 C 
ATOM     20  N   UNL     1      -1.280  -0.357   0.000  0.00  0.00    +0.000 NA
ATOM     21  C   UNL     1      -0.868  -1.072   0.000  0.00  0.00    +0.000 C 
ATOM     22  O   UNL     1      -1.280  -1.786   0.000  0.00  0.00    +0.000 OA
ATOM     23  C   UNL     1      -0.043  -1.072   0.000  0.00  0.00    +0.000 C 
ATOM     24  C   UNL     1       0.370  -0.357   0.000  0.00  0.00    +0.000 C 
ATOM     25  S   UNL     1       1.195  -0.357   0.000  0.00  0.00    +0.000 S 
ENDROOT
BRANCH   1  27
ATOM     26  N   UNL     1       4.082   0.357   0.000  0.00  0.00    +0.000 NA
ATOM     27  C   UNL     1       3.670   1.072   0.000  0.00  0.00    +0.000 C 
ATOM     28  O   UNL     1       4.082   1.786   0.000  0.00  0.00    +0.000 OA
BRANCH  26  29
ATOM     29  C   UNL     1       4.907   0.357   0.000  0.00  0.00    +0.000 C 
BRANCH  29  30
ATOM     30  C   UNL     1       5.320   1.072   0.000  0.00  0.00    +0.000 C 
ATOM     31  O   UNL     1       6.145   1.072   0.000  0.00  0.00    +0.000 OA
ATOM     32  N   UNL     1       4.907   1.786   0.000  0.00  0.00    +0.000 NA
ENDBRANCH  29  30
BRANCH  29  33
ATOM     33  C   UNL     1       5.320  -0.357   0.000  0.00  0.00    +0.000 C 
BRANCH  33  34
ATOM     34  C   UNL     1       4.907  -1.072   0.000  0.00  0.00    +0.000 A 
ATOM     35  C   UNL     1       5.243  -1.825   0.000  0.00  0.00    +0.000 A 
ATOM     36  N   UNL     1       4.630  -2.377   0.000  0.00  0.00    +0.000 NA
ATOM     37  C   UNL     1       3.915  -1.965   0.000  0.00  0.00    +0.000 A 
ATOM     38  C   UNL     1       3.131  -2.220   0.000  0.00  0.00    +0.000 A 
ATOM     39  C   UNL     1       2.518  -1.668   0.000  0.00  0.00    +0.000 A 
ATOM     40  C   UNL     1       2.689  -0.861   0.000  0.00  0.00    +0.000 A 
ATOM     41  C   UNL     1       3.474  -0.606   0.000  0.00  0.00    +0.000 A 
ATOM     42  C   UNL     1       4.087  -1.158   0.000  0.00  0.00    +0.000 A 
ENDBRANCH  33  34
ENDBRANCH  29  33
ENDBRANCH  26  29
ENDBRANCH   1  27
BRANCH   7  43
ATOM     43  C   UNL     1       1.607   3.215   0.000  0.00  0.00    +0.000 C 
ATOM     44  C   UNL     1       2.432   3.215   0.000  0.00  0.00    +0.000 C 
ATOM     45  C   UNL     1       1.195   3.930   0.000  0.00  0.00    +0.000 C 
ENDBRANCH   7  43
BRANCH  23  46
ATOM     46  N   UNL     1       0.370  -1.786   0.000  0.00  0.00    +0.000 NA
ATOM     47  C   UNL     1       1.195  -1.786   0.000  0.00  0.00    +0.000 C 
ATOM     48  O   UNL     1       1.607  -1.072   0.000  0.00  0.00    +0.000 OA
BRANCH  47  49
ATOM     49  C   UNL     1       1.607  -2.501   0.000  0.00  0.00    +0.000 C 
ATOM     50  N   UNL     1       2.432  -2.501   0.000  0.00  0.00    +0.000 NA
BRANCH  49  51
ATOM     51  C   UNL     1       1.195  -3.215   0.000  0.00  0.00    +0.000 C 
BRANCH  51  52
ATOM     52  C   UNL     1       1.607  -3.929   0.000  0.00  0.00    +0.000 A 
ATOM     53  C   UNL     1       1.195  -4.644   0.000  0.00  0.00    +0.000 A 
ATOM     54  C   UNL     1       1.607  -5.359   0.000  0.00  0.00    +0.000 A 
ATOM     55  C   UNL     1       2.432  -5.359   0.000  0.00  0.00    +0.000 A 
ATOM     56  C   UNL     1       2.845  -4.644   0.000  0.00  0.00    +0.000 A 
ATOM     57  C   UNL     1       2.432  -3.929   0.000  0.00  0.00    +0.000 A 
ENDBRANCH  51  52
ENDBRANCH  49  51
ENDBRANCH  47  49
ENDBRANCH  23  46
BRANCH  15  58
ATOM     58  C   UNL     1      -3.342   1.786   0.000  0.00  0.00    +0.000 C 
BRANCH  58  59
ATOM     59  C   UNL     1      -3.755   2.501   0.000  0.00  0.00    +0.000 A 
ATOM     60  C   UNL     1      -3.420   3.254   0.000  0.00  0.00    +0.000 A 
ATOM     61  N   UNL     1      -4.033   3.806   0.000  0.00  0.00    +0.000 NA
ATOM     62  C   UNL     1      -4.747   3.394   0.000  0.00  0.00    +0.000 A 
ATOM     63  C   UNL     1      -5.532   3.649   0.000  0.00  0.00    +0.000 A 
ATOM     64  C   UNL     1      -6.145   3.097   0.000  0.00  0.00    +0.000 A 
ATOM     65  C   UNL     1      -5.973   2.290   0.000  0.00  0.00    +0.000 A 
ATOM     66  C   UNL     1      -5.189   2.035   0.000  0.00  0.00    +0.000 A 
ATOM     67  C   UNL     1      -4.575   2.587   0.000  0.00  0.00    +0.000 A 
ENDBRANCH  58  59
ENDBRANCH  15  58
BRANCH  19  68
ATOM     68  C   UNL     1      -2.765  -1.500   0.000  0.00  0.00    +0.000 C 
BRANCH  68  69
ATOM     69  C   UNL     1      -2.353  -2.215   0.000  0.00  0.00    +0.000 A 
ATOM     70  C   UNL     1      -1.528  -2.215   0.000  0.00  0.00    +0.000 A 
ATOM     71  C   UNL     1      -1.115  -2.929   0.000  0.00  0.00    +0.000 A 
ATOM     72  C   UNL     1      -1.528  -3.644   0.000  0.00  0.00    +0.000 A 
ATOM     73  O   UNL     1      -1.115  -4.358   0.000  0.00  0.00    +0.000 OA
ATOM     74  C   UNL     1      -2.353  -3.644   0.000  0.00  0.00    +0.000 A 
ATOM     75  C   UNL     1      -2.765  -2.929   0.000  0.00  0.00    +0.000 A 
ENDBRANCH  68  69
ENDBRANCH  19  68
BRANCH  11  76
ATOM     76  C   UNL     1      -1.280   3.930   0.000  0.00  0.00    +0.000 C 
BRANCH  76  77
ATOM     77  C   UNL     1      -2.105   3.930   0.000  0.00  0.00    +0.000 C 
BRANCH  77  78
ATOM     78  C   UNL     1      -2.518   4.644   0.000  0.00  0.00    +0.000 C 
BRANCH  78  79
ATOM     79  C   UNL     1      -3.342   4.644   0.000  0.00  0.00    +0.000 C 
ATOM     80  N   UNL     1      -3.755   5.359   0.000  0.00  0.00    +0.000 NA
ENDBRANCH  78  79
ENDBRANCH  77  78
ENDBRANCH  76  77
ENDBRANCH  11  76
TORSDOF 18
