REMARK  Name = 
REMARK  6 active torsions:
REMARK  status: ('A' for Active; 'I' for Inactive)
REMARK    1  A    between atoms: C_2  and  C_16
REMARK    2  A    between atoms: C_6  and  C_9
REMARK    3  A    between atoms: C_7  and  C_8
REMARK    4  A    between atoms: C_16  and  C_17
REMARK    5  A    between atoms: C_17  and  C_18
REMARK    6  A    between atoms: C_18  and  C_19
REMARK                            x       y       z     vdW  Elec       q    Type
REMARK                         _______ _______ _______ _____ _____    ______ ____
ROOT
ATOM      1  C   UNL     1      -0.714  -1.659   0.000  0.00  0.00    +0.000 A 
ATOM      2  C   UNL     1       0.002  -1.246   0.000  0.00  0.00    +0.000 A 
ATOM      3  C   UNL     1      -0.001  -0.415   0.000  0.00  0.00    +0.000 A 
ATOM      4  C   UNL     1      -0.716  -0.006   0.000  0.00  0.00    +0.000 A 
ATOM      5  C   UNL     1      -1.429  -1.246   0.000  0.00  0.00    +0.000 A 
ATOM      6  C   UNL     1      -1.425  -0.419   0.000  0.00  0.00    +0.000 A 
ATOM      7  O   UNL     1      -0.719   0.819   0.000  0.00  0.00    +0.000 OA
ATOM      8  O   UNL     1      -1.435  -2.069   0.000  0.00  0.00    +0.000 OA
ENDROOT
BRANCH   6  10
ATOM      9  C   UNL     1      -2.854  -0.412   0.000  0.00  0.00    +0.000 C 
ATOM     10  C   UNL     1      -2.131  -0.006   0.000  0.00  0.00    +0.000 C 
ATOM     11  C   UNL     1      -2.120   0.819   0.000  0.00  0.00    +0.000 C 
ATOM     12  C   UNL     1      -2.832   1.244   0.000  0.00  0.00    +0.000 C 
ATOM     13  C   UNL     1      -3.555   0.838   0.000  0.00  0.00    +0.000 C 
ATOM     14  C   UNL     1      -3.567   0.007   0.000  0.00  0.00    +0.000 C 
ATOM     15  C   UNL     1      -2.821   2.069   0.000  0.00  0.00    +0.000 C 
BRANCH   9  16
ATOM     16  C   UNL     1      -2.858  -1.239   0.000  0.00  0.00    +0.000 C 
ATOM     17  C   UNL     1      -2.146  -1.655   0.000  0.00  0.00    +0.000 C 
ATOM     18  C   UNL     1      -3.575  -1.648   0.000  0.00  0.00    +0.000 C 
ENDBRANCH   9  16
ENDBRANCH   6  10
BRANCH   2  19
ATOM     19  C   UNL     1       0.717  -1.657   0.000  0.00  0.00    +0.000 C 
BRANCH  19  20
ATOM     20  C   UNL     1       1.431  -1.244   0.000  0.00  0.00    +0.000 C 
BRANCH  20  21
ATOM     21  C   UNL     1       2.146  -1.655   0.000  0.00  0.00    +0.000 C 
BRANCH  21  22
ATOM     22  C   UNL     1       2.860  -1.241   0.000  0.00  0.00    +0.000 C 
ATOM     23  C   UNL     1       3.575  -1.653   0.000  0.00  0.00    +0.000 C 
ENDBRANCH  21  22
ENDBRANCH  20  21
ENDBRANCH  19  20
ENDBRANCH   2  19
TORSDOF 6
