REMARK  Name = 
REMARK  8 active torsions:
REMARK  status: ('A' for Active; 'I' for Inactive)
REMARK    1  A    between atoms: C_5  and  C_6
REMARK    2  A    between atoms: C_6  and  C_7
REMARK    3  A    between atoms: C_10  and  O_11
REMARK    4  A    between atoms: O_11  and  P_12
REMARK    5  A    between atoms: N_20  and  C_21
REMARK    6  A    between atoms: C_21  and  C_22
REMARK    7  A    between atoms: N_40  and  C_41
REMARK    8  A    between atoms: C_41  and  C_42
REMARK                            x       y       z     vdW  Elec       q    Type
REMARK                         _______ _______ _______ _____ _____    ______ ____
ROOT
ATOM      1  C   UNL     1      -1.429   0.000   0.000  0.00  0.00    +0.000 C 
ATOM      2  C   UNL     1      -1.429   0.825   0.000  0.00  0.00    +0.000 C 
ATOM      3  C   UNL     1      -2.143   1.238   0.000  0.00  0.00    +0.000 C 
ATOM      4  N   UNL     1      -2.143   2.062   0.000  0.00  0.00    +0.000 N 
ATOM      5  C   UNL     1      -1.429   2.475   0.000  0.00  0.00    +0.000 C 
ATOM      6  C   UNL     1      -0.715   2.062   0.000  0.00  0.00    +0.000 C 
ATOM      7  O   UNL     1       0.000   2.475   0.000  0.00  0.00    +0.000 OA
ATOM      8  N   UNL     1      -0.715   1.238   0.000  0.00  0.00    +0.000 N 
ATOM      9  C   UNL     1      -2.858   2.475   0.000  0.00  0.00    +0.000 C 
ATOM     10  O   UNL     1      -2.858   3.300   0.000  0.00  0.00    +0.000 OA
ATOM     11  C   UNL     1      -3.572   2.062   0.000  0.00  0.00    +0.000 C 
ATOM     12  N   UNL     1      -3.572   1.238   0.000  0.00  0.00    +0.000 NA
ATOM     13  C   UNL     1      -4.287   0.825   0.000  0.00  0.00    +0.000 C 
ATOM     14  N   UNL     1      -2.858   0.825   0.000  0.00  0.00    +0.000 N 
ATOM     15  C   UNL     1      -2.858   0.000   0.000  0.00  0.00    +0.000 C 
ATOM     16  O   UNL     1      -2.143  -0.412   0.000  0.00  0.00    +0.000 OA
ATOM     17  N   UNL     1      -3.572  -0.412   0.000  0.00  0.00    +0.000 NA
ENDROOT
BRANCH   8  18
ATOM     18  C   UNL     1       0.000   0.825   0.000  0.00  0.00    +0.000 C 
BRANCH  18  19
ATOM     19  C   UNL     1       0.000   0.000   0.000  0.00  0.00    +0.000 A 
ATOM     20  C   UNL     1      -0.715  -0.412   0.000  0.00  0.00    +0.000 A 
ATOM     21  C   UNL     1      -0.715  -1.238   0.000  0.00  0.00    +0.000 A 
ATOM     22  C   UNL     1       0.000  -1.650   0.000  0.00  0.00    +0.000 A 
ATOM     23  C   UNL     1       0.715  -1.238   0.000  0.00  0.00    +0.000 A 
ATOM     24  C   UNL     1       0.715  -0.412   0.000  0.00  0.00    +0.000 A 
ATOM     25  N   UNL     1       1.429   0.000   0.000  0.00  0.00    +0.000 NA
ATOM     26  C   UNL     1       2.143  -0.412   0.000  0.00  0.00    +0.000 A 
ATOM     27  C   UNL     1       2.143  -1.238   0.000  0.00  0.00    +0.000 A 
ATOM     28  C   UNL     1       1.429  -1.650   0.000  0.00  0.00    +0.000 A 
ENDBRANCH  18  19
ENDBRANCH   8  18
BRANCH   5  29
ATOM     29  C   UNL     1      -1.429   3.300   0.000  0.00  0.00    +0.000 C 
BRANCH  29  30
ATOM     30  C   UNL     1      -0.715   3.712   0.000  0.00  0.00    +0.000 A 
ATOM     31  C   UNL     1      -0.715   4.537   0.000  0.00  0.00    +0.000 A 
ATOM     32  C   UNL     1       0.000   4.950   0.000  0.00  0.00    +0.000 A 
ATOM     33  C   UNL     1       0.715   4.537   0.000  0.00  0.00    +0.000 A 
ATOM     34  C   UNL     1       0.715   3.712   0.000  0.00  0.00    +0.000 A 
ATOM     35  C   UNL     1       0.000   3.300   0.000  0.00  0.00    +0.000 A 
BRANCH  33  36
ATOM     36  O   UNL     1       1.429   4.950   0.000  0.00  0.00    +0.000 OA
BRANCH  36  37
ATOM     37  P   UNL     1       2.143   4.537   0.000  0.00  0.00    +0.000 P 
ATOM     38  O   UNL     1       2.858   4.125   0.000  0.00  0.00    +0.000 OA
ATOM     39  O   UNL     1       2.556   5.252   0.000  0.00  0.00    +0.000 OA
ATOM     40  O   UNL     1       1.731   3.823   0.000  0.00  0.00    +0.000 OA
ENDBRANCH  36  37
ENDBRANCH  33  36
ENDBRANCH  29  30
ENDBRANCH   5  29
BRANCH  17  41
ATOM     41  C   UNL     1      -4.287   0.000   0.000  0.00  0.00    +0.000 C 
BRANCH  41  42
ATOM     42  C   UNL     1      -5.001  -0.412   0.000  0.00  0.00    +0.000 A 
ATOM     43  C   UNL     1      -5.001  -1.238   0.000  0.00  0.00    +0.000 A 
ATOM     44  C   UNL     1      -5.716  -1.650   0.000  0.00  0.00    +0.000 A 
ATOM     45  C   UNL     1      -6.430  -1.238   0.000  0.00  0.00    +0.000 A 
ATOM     46  C   UNL     1      -6.430  -0.412   0.000  0.00  0.00    +0.000 A 
ATOM     47  C   UNL     1      -5.716   0.000   0.000  0.00  0.00    +0.000 A 
ENDBRANCH  41  42
ENDBRANCH  17  41
TORSDOF 8
