REMARK  Name = 
REMARK  5 active torsions:
REMARK  status: ('A' for Active; 'I' for Inactive)
REMARK    1  A    between atoms: C_9  and  C_11
REMARK    2  A    between atoms: N_18  and  C_19
REMARK    3  A    between atoms: C_19  and  C_20
REMARK    4  A    between atoms: C_20  and  C_21
REMARK    5  A    between atoms: C_21  and  C_22
REMARK                            x       y       z     vdW  Elec       q    Type
REMARK                         _______ _______ _______ _____ _____    ______ ____
ROOT
ATOM      1  C   UNL     1      -0.171   1.523   0.000  0.00  0.00    +0.000 A 
ATOM      2  C   UNL     1      -0.584   0.808   0.000  0.00  0.00    +0.000 A 
ATOM      3  N   UNL     1      -1.409   0.808   0.000  0.00  0.00    +0.000 NA
ATOM      4  C   UNL     1      -1.821   1.523   0.000  0.00  0.00    +0.000 A 
ATOM      5  N   UNL     1      -1.409   2.237   0.000  0.00  0.00    +0.000 NA
ATOM      6  C   UNL     1      -0.584   2.237   0.000  0.00  0.00    +0.000 A 
ATOM      7  C   UNL     1      -0.171   2.952   0.000  0.00  0.00    +0.000 C 
ATOM      8  N   UNL     1      -2.646   1.523   0.000  0.00  0.00    +0.000 NA
ENDROOT
BRANCH   1  17
ATOM      9  C   UNL     1       4.067   2.348   0.000  0.00  0.00    +0.000 C 
ATOM     10  C   UNL     1       3.352   1.935   0.000  0.00  0.00    +0.000 A 
ATOM     11  C   UNL     1       3.352   1.110   0.000  0.00  0.00    +0.000 A 
ATOM     12  C   UNL     1       2.638   0.698   0.000  0.00  0.00    +0.000 A 
ATOM     13  C   UNL     1       1.923   1.110   0.000  0.00  0.00    +0.000 A 
ATOM     14  C   UNL     1       1.923   1.935   0.000  0.00  0.00    +0.000 A 
ATOM     15  C   UNL     1       2.638   2.348   0.000  0.00  0.00    +0.000 A 
ATOM     16  N   UNL     1       1.139   2.190   0.000  0.00  0.00    +0.000 NA
ATOM     17  C   UNL     1       0.654   1.523   0.000  0.00  0.00    +0.000 A 
ATOM     18  N   UNL     1       1.139   0.856   0.000  0.00  0.00    +0.000 NA
ATOM     19  C   UNL     1       2.638  -0.127   0.000  0.00  0.00    +0.000 C 
ENDBRANCH   1  17
BRANCH   8  20
ATOM     20  C   UNL     1      -3.059   0.808   0.000  0.00  0.00    +0.000 C 
BRANCH  20  21
ATOM     21  C   UNL     1      -3.884   0.808   0.000  0.00  0.00    +0.000 C 
BRANCH  21  22
ATOM     22  C   UNL     1      -4.296   0.094   0.000  0.00  0.00    +0.000 C 
BRANCH  22  23
ATOM     23  C   UNL     1      -5.121   0.094   0.000  0.00  0.00    +0.000 C 
ATOM     24  C   UNL     1      -5.534  -0.621   0.000  0.00  0.00    +0.000 C 
ATOM     25  C   UNL     1      -6.359  -0.621   0.000  0.00  0.00    +0.000 C 
ATOM     26  N   UNL     1      -6.771   0.094   0.000  0.00  0.00    +0.000 NA
ATOM     27  C   UNL     1      -6.359   0.808   0.000  0.00  0.00    +0.000 C 
ATOM     28  C   UNL     1      -5.534   0.808   0.000  0.00  0.00    +0.000 C 
ATOM     29  C   UNL     1      -7.596   0.094   0.000  0.00  0.00    +0.000 C 
ENDBRANCH  22  23
ENDBRANCH  21  22
ENDBRANCH  20  21
ENDBRANCH   8  20
TORSDOF 5
