REMARK  Name = 
REMARK  9 active torsions:
REMARK  status: ('A' for Active; 'I' for Inactive)
REMARK    1  A    between atoms: N_11  and  CA_27
REMARK    2  A    between atoms: C_12  and  C_14
REMARK    3  A    between atoms: C_14  and  C_17
REMARK    4  A    between atoms: C_17  and  C_19
REMARK    5  A    between atoms: C_24  and  C_29
REMARK    6  A    between atoms: CA_27  and  CB_28
REMARK    7  A    between atoms: CA_27  and  C_31
REMARK    8  A    between atoms: CB_28  and  CG_30
REMARK    9  A    between atoms: CG_30  and  CD_32
REMARK                            x       y       z     vdW  Elec       q    Type
REMARK                         _______ _______ _______ _____ _____    ______ ____
ROOT
ATOM      1  C   UNL     1       0.608  -0.758   0.000  0.00  0.00    +0.000 A 
ATOM      2  C   UNL     1       0.605   0.067   0.000  0.00  0.00    +0.000 A 
ATOM      3  C   UNL     1       1.324  -1.168   0.000  0.00  0.00    +0.000 A 
ATOM      4  C   UNL     1       2.034   0.072   0.000  0.00  0.00    +0.000 A 
ATOM      5  C   UNL     1       1.318   0.482   0.000  0.00  0.00    +0.000 A 
ATOM      6  C   UNL     1       2.037  -0.753   0.000  0.00  0.00    +0.000 A 
ENDROOT
BRANCH   4   9
ATOM      7  O   UNL     1       2.744   1.313   0.000  0.00  0.00    +0.000 OA
ATOM      8  N   UNL     1       3.463   0.078   0.000  0.00  0.00    +0.000 N 
ATOM      9  C   ACE A   0       2.747   0.488   0.000  0.00  0.00    +0.000 C 
ATOM     10  H   UNL     1       3.465  -0.434   0.000  0.00  0.00    +0.000 HD
BRANCH   8  11
ATOM     11  CA  UNL     1       4.176   0.493   0.000  0.00  0.00    +0.000 C 
BRANCH  11  14
ATOM     12  O   UNL     1       5.605   0.499   0.000  0.00  0.00    +0.000 OA
ATOM     13  OXT UNL     1       4.895  -0.742   0.000  0.00  0.00    +0.000 OA
ATOM     14  C   UNL     1       4.892   0.083   0.000  0.00  0.00    +0.000 C 
ENDBRANCH  11  14
BRANCH  11  15
ATOM     15  CB  UNL     1       4.173   1.318   0.000  0.00  0.00    +0.000 C 
BRANCH  15  16
ATOM     16  CG  UNL     1       4.886   1.733   0.000  0.00  0.00    +0.000 C 
BRANCH  16  19
ATOM     17  OE1 UNL     1       5.595   2.974   0.000  0.00  0.00    +0.000 OA
ATOM     18  OE2 UNL     1       4.166   2.968   0.000  0.00  0.00    +0.000 OA
ATOM     19  CD  UNL     1       4.882   2.558   0.000  0.00  0.00    +0.000 C 
ENDBRANCH  16  19
ENDBRANCH  15  16
ENDBRANCH  11  15
ENDBRANCH   8  11
ENDBRANCH   4   9
BRANCH   1  20
ATOM     20  C   UNL     1      -0.104  -1.173   0.000  0.00  0.00    +0.000 C 
BRANCH  20  21
ATOM     21  C   UNL     1      -0.821  -0.764   0.000  0.00  0.00    +0.000 C 
BRANCH  21  27
ATOM     22  O   UNL     1      -3.733   0.041   0.000  0.00  0.00    +0.000 OA
ATOM     23  N   UNL     1      -2.281  -2.462   0.000  0.00  0.00    +0.000 N 
ATOM     24  N   UNL     1      -3.733  -2.433   0.000  0.00  0.00    +0.000 N 
ATOM     25  N   UNL     1      -4.447  -1.196   0.000  0.00  0.00    +0.000 NA
ATOM     26  N   UNL     1      -5.162  -2.433   0.000  0.00  0.00    +0.000 N 
ATOM     27  C   UNL     1      -1.533  -1.179   0.000  0.00  0.00    +0.000 C 
ATOM     28  C   UNL     1      -2.281  -0.755   0.000  0.00  0.00    +0.000 C 
ATOM     29  C   UNL     1      -1.533  -2.038   0.000  0.00  0.00    +0.000 C 
ATOM     30  C   UNL     1      -3.018  -1.196   0.000  0.00  0.00    +0.000 A 
ATOM     31  C   UNL     1      -3.018  -2.021   0.000  0.00  0.00    +0.000 A 
ATOM     32  C   UNL     1      -3.733  -0.783   0.000  0.00  0.00    +0.000 A 
ATOM     33  C   UNL     1      -4.447  -2.021   0.000  0.00  0.00    +0.000 A 
ATOM     34  H   UNL     1      -2.287  -2.974   0.000  0.00  0.00    +0.000 HD
ATOM     35  H   UNL     1      -3.733  -2.945   0.000  0.00  0.00    +0.000 HD
ATOM     36  H   UNL     1      -5.162  -2.945   0.000  0.00  0.00    +0.000 HD
ATOM     37  H   UNL     1      -5.605  -2.178   0.000  0.00  0.00    +0.000 HD
ENDBRANCH  21  27
ENDBRANCH  20  21
ENDBRANCH   1  20
TORSDOF 9
