REMARK  Name = 
REMARK  2 active torsions:
REMARK  status: ('A' for Active; 'I' for Inactive)
REMARK    1  A    between atoms: P_1  and  C_4
REMARK    2  A    between atoms: C_4  and  P_6
REMARK                            x       y       z     vdW  Elec       q    Type
REMARK                         _______ _______ _______ _____ _____    ______ ____
ROOT
ATOM      1  C   UNL     1       0.000  -0.261   0.000  0.00  0.00    +0.000 C 
ATOM      2 CL   UNL     1       0.414  -0.976   0.000  0.00  0.00    +0.000 Cl
ATOM      3 CL   UNL     1      -0.411  -0.976   0.000  0.00  0.00    +0.000 Cl
ENDROOT
BRANCH   1   4
ATOM      4  P   UNL     1       0.714   0.151   0.000  0.00  0.00    +0.000 P 
ATOM      5  O   UNL     1       1.429  -0.261   0.000  0.00  0.00    +0.000 OA
ATOM      6  O   UNL     1       0.714   0.976   0.000  0.00  0.00    +0.000 OA
ATOM      7  O   UNL     1       0.921  -0.648   0.000  0.00  0.00    +0.000 OA
ENDBRANCH   1   4
BRANCH   1   8
ATOM      8  P   UNL     1      -0.715   0.151   0.000  0.00  0.00    +0.000 P 
ATOM      9  O   UNL     1      -1.429  -0.261   0.000  0.00  0.00    +0.000 OA
ATOM     10  O   UNL     1      -0.715   0.976   0.000  0.00  0.00    +0.000 OA
ATOM     11  O   UNL     1      -0.938  -0.648   0.000  0.00  0.00    +0.000 OA
ENDBRANCH   1   8
TORSDOF 2
