REMARK  Name = 
REMARK  2 active torsions:
REMARK  status: ('A' for Active; 'I' for Inactive)
REMARK    1  A    between atoms: C_3  and  C_11
REMARK    2  A    between atoms: C_11  and  N_12
REMARK                            x       y       z     vdW  Elec       q    Type
REMARK                         _______ _______ _______ _____ _____    ______ ____
ROOT
ATOM      1  O   UNL     1      -0.718  -1.240   0.000  0.00  0.00    +0.000 OA
ATOM      2  C   UNL     1      -0.005  -0.830   0.000  0.00  0.00    +0.000 C 
ATOM      3  C   UNL     1      -0.005  -0.004   0.000  0.00  0.00    +0.000 C 
ATOM      4  O   UNL     1      -0.718   0.414   0.000  0.00  0.00    +0.000 OA
ATOM      5  C   UNL     1      -1.432  -0.830   0.000  0.00  0.00    +0.000 A 
ATOM      6  C   UNL     1      -1.429  -0.005   0.000  0.00  0.00    +0.000 A 
ATOM      7  C   UNL     1      -2.141   0.407   0.000  0.00  0.00    +0.000 A 
ATOM      8  C   UNL     1      -2.856  -0.003   0.000  0.00  0.00    +0.000 A 
ATOM      9  C   UNL     1      -2.855  -0.832   0.000  0.00  0.00    +0.000 A 
ATOM     10  C   UNL     1      -2.142  -1.241   0.000  0.00  0.00    +0.000 A 
ENDROOT
BRANCH   3  11
ATOM     11  C   UNL     1       0.712   0.408   0.000  0.00  0.00    +0.000 C 
BRANCH  11  12
ATOM     12  N   UNL     1       1.424  -0.004   0.000  0.00  0.00    +0.000 NA
ATOM     13  C   UNL     1       2.138   0.414   0.000  0.00  0.00    +0.000 C 
ATOM     14  N   UNL     1       2.856   0.004   0.000  0.00  0.00    +0.000 NA
ATOM     15  N   UNL     1       2.133   1.241   0.000  0.00  0.00    +0.000 NA
ENDBRANCH  11  12
ENDBRANCH   3  11
TORSDOF 2
