REMARK  Name = 
REMARK  5 active torsions:
REMARK  status: ('A' for Active; 'I' for Inactive)
REMARK    1  A    between atoms: C_7  and  C_13
REMARK    2  A    between atoms: C_9  and  C_10
REMARK    3  A    between atoms: C_10  and  C_11
REMARK    4  A    between atoms: C_11  and  C_12
REMARK    5  A    between atoms: C_12  and  C_13
REMARK                            x       y       z     vdW  Elec       q    Type
REMARK                         _______ _______ _______ _____ _____    ______ ____
ROOT
ATOM      1  C   UNL     1       2.796  -0.106   0.000  0.00  0.00    +0.000 C 
ATOM      2  N   UNL     1       2.709   0.714   0.000  0.00  0.00    +0.000 NA
ATOM      3  C   UNL     1       1.902   0.886   0.000  0.00  0.00    +0.000 C 
ATOM      4  C   UNL     1       1.490   0.171   0.000  0.00  0.00    +0.000 C 
ATOM      5  N   UNL     1       2.042  -0.442   0.000  0.00  0.00    +0.000 NA
ATOM      6  C   UNL     1       1.350   1.499   0.000  0.00  0.00    +0.000 C 
ATOM      7  C   UNL     1       0.683   0.343   0.000  0.00  0.00    +0.000 C 
ATOM      8  S   UNL     1       0.597   1.163   0.000  0.00  0.00    +0.000 S 
ATOM      9  N   UNL     1       3.510  -0.519   0.000  0.00  0.00    +0.000 NA
ENDROOT
BRANCH   7  10
ATOM     10  C   UNL     1       0.070  -0.209   0.000  0.00  0.00    +0.000 C 
BRANCH  10  11
ATOM     11  C   UNL     1      -0.715   0.046   0.000  0.00  0.00    +0.000 C 
BRANCH  11  12
ATOM     12  C   UNL     1      -1.328  -0.506   0.000  0.00  0.00    +0.000 C 
BRANCH  12  13
ATOM     13  C   UNL     1      -2.112  -0.251   0.000  0.00  0.00    +0.000 C 
BRANCH  13  14
ATOM     14  C   UNL     1      -2.725  -0.803   0.000  0.00  0.00    +0.000 C 
ATOM     15  O   UNL     1      -2.512  -1.600   0.000  0.00  0.00    +0.000 OA
ATOM     16  O   UNL     1      -3.510  -0.548   0.000  0.00  0.00    +0.000 OA
ENDBRANCH  13  14
ENDBRANCH  12  13
ENDBRANCH  11  12
ENDBRANCH  10  11
ENDBRANCH   7  10
TORSDOF 5
