REMARK  Name = 
REMARK  2 active torsions:
REMARK  status: ('A' for Active; 'I' for Inactive)
REMARK    1  A    between atoms: C_1  and  N_7
REMARK    2  A    between atoms: C_5  and  N_10
REMARK                            x       y       z     vdW  Elec       q    Type
REMARK                         _______ _______ _______ _____ _____    ______ ____
ROOT
ATOM      1  C   UNL     1      -0.715   0.619   0.000  0.00  0.00    +0.000 A 
ATOM      2  C   UNL     1      -1.429   0.206   0.000  0.00  0.00    +0.000 A 
ATOM      3  C   UNL     1      -1.429  -0.619   0.000  0.00  0.00    +0.000 A 
ATOM      4  C   UNL     1      -0.715  -1.031   0.000  0.00  0.00    +0.000 A 
ATOM      5  C   UNL     1       0.000  -0.619   0.000  0.00  0.00    +0.000 A 
ATOM      6  C   UNL     1       0.000   0.206   0.000  0.00  0.00    +0.000 A 
ENDROOT
BRANCH   1   7
ATOM      7  N   UNL     1      -0.715   1.444   0.000  0.00  0.00    +0.000 N 
ATOM      8  O   UNL     1      -1.429   1.856   0.000  0.00  0.00    +0.000 OA
ATOM      9  O   UNL     1       0.000   1.856   0.000  0.00  0.00    +0.000 OA
ENDBRANCH   1   7
BRANCH   5  10
ATOM     10  N   UNL     1       0.715  -1.031   0.000  0.00  0.00    +0.000 N 
ATOM     11  O   UNL     1       1.429  -0.619   0.000  0.00  0.00    +0.000 OA
ATOM     12  O   UNL     1       0.715  -1.856   0.000  0.00  0.00    +0.000 OA
ENDBRANCH   5  10
TORSDOF 2
