REMARK  Name = 
REMARK  10 active torsions:
REMARK  status: ('A' for Active; 'I' for Inactive)
REMARK    1  A    between atoms: O_1  and  C_9
REMARK    2  A    between atoms: O_1  and  C_17
REMARK    3  A    between atoms: N_4  and  C_16
REMARK    4  A    between atoms: N_5  and  C_18
REMARK    5  A    between atoms: N_5  and  C_20
REMARK    6  A    between atoms: N_5  and  C_21
REMARK    7  A    between atoms: C_7  and  C_11
REMARK    8  A    between atoms: C_16  and  C_18
REMARK    9  A    between atoms: C_17  and  C_19
REMARK   10  A    between atoms: C_19  and  C_22
REMARK                            x       y       z     vdW  Elec       q    Type
REMARK                         _______ _______ _______ _____ _____    ______ ____
ROOT
ATOM      1  N   UNL     1      -1.042  -1.452   0.000  0.00  0.00    +0.000 NA
ATOM      2  C   UNL     1      -1.765  -0.211   0.000  0.00  0.00    +0.000 A 
ATOM      3  C   UNL     1      -1.042   0.205   0.000  0.00  0.00    +0.000 A 
ATOM      4  C   UNL     1      -1.765  -1.036   0.000  0.00  0.00    +0.000 A 
ATOM      5  C   UNL     1      -0.326  -1.036   0.000  0.00  0.00    +0.000 A 
ATOM      6  C   UNL     1      -0.326  -0.211   0.000  0.00  0.00    +0.000 A 
ATOM      7  C   UNL     1      -2.481   0.205   0.000  0.00  0.00    +0.000 A 
ATOM      8  C   UNL     1      -2.481  -1.452   0.000  0.00  0.00    +0.000 A 
ATOM      9  C   UNL     1      -3.198  -0.211   0.000  0.00  0.00    +0.000 A 
ATOM     10  C   UNL     1      -3.198  -1.036   0.000  0.00  0.00    +0.000 A 
ENDROOT
BRANCH   3  13
ATOM     11  O   UNL     1      -1.759   1.445   0.000  0.00  0.00    +0.000 OA
ATOM     12  N   UNL     1      -0.326   1.452   0.000  0.00  0.00    +0.000 NA
ATOM     13  C   UNL     1      -1.042   1.036   0.000  0.00  0.00    +0.000 C 
BRANCH  12  14
ATOM     14  C   UNL     1       0.384   1.042   0.000  0.00  0.00    +0.000 C 
BRANCH  14  15
ATOM     15  C   UNL     1       1.087   1.445   0.000  0.00  0.00    +0.000 C 
BRANCH  15  16
ATOM     16  N   UNL     1       1.791   1.036   0.000  0.00  0.00    +0.000 NA
BRANCH  16  17
ATOM     17  C   UNL     1       1.791   0.205   0.000  0.00  0.00    +0.000 C 
ATOM     18  C   UNL     1       2.494  -0.205   0.000  0.00  0.00    +0.000 C 
ENDBRANCH  16  17
BRANCH  16  19
ATOM     19  C   UNL     1       2.494   1.445   0.000  0.00  0.00    +0.000 C 
ATOM     20  C   UNL     1       3.198   1.036   0.000  0.00  0.00    +0.000 C 
ENDBRANCH  16  19
ENDBRANCH  15  16
ENDBRANCH  14  15
ENDBRANCH  12  14
ENDBRANCH   3  13
BRANCH   5  21
ATOM     21  O   UNL     1       0.384  -1.445   0.000  0.00  0.00    +0.000 OA
BRANCH  21  22
ATOM     22  C   UNL     1       1.087  -1.042   0.000  0.00  0.00    +0.000 C 
BRANCH  22  23
ATOM     23  C   UNL     1       1.791  -1.445   0.000  0.00  0.00    +0.000 C 
BRANCH  23  24
ATOM     24  C   UNL     1       2.494  -1.042   0.000  0.00  0.00    +0.000 C 
ATOM     25  C   UNL     1       3.198  -1.445   0.000  0.00  0.00    +0.000 C 
ENDBRANCH  23  24
ENDBRANCH  22  23
ENDBRANCH  21  22
ENDBRANCH   5  21
TORSDOF 10
