REMARK  Name = 
REMARK  3 active torsions:
REMARK  status: ('A' for Active; 'I' for Inactive)
REMARK    1  A    between atoms: C_8  and  C_22
REMARK    2  A    between atoms: N_13  and  C_14
REMARK    3  A    between atoms: C_16  and  C_20
REMARK                            x       y       z     vdW  Elec       q    Type
REMARK                         _______ _______ _______ _____ _____    ______ ____
ROOT
ATOM      1  C   UNL     1      -0.357   0.619   0.000  0.00  0.00    +0.000 A 
ATOM      2  N   UNL     1       0.357   1.031   0.000  0.00  0.00    +0.000 NA
ATOM      3  C   UNL     1       1.072   0.619   0.000  0.00  0.00    +0.000 A 
ATOM      4  C   UNL     1       1.072  -0.206   0.000  0.00  0.00    +0.000 A 
ATOM      5  C   UNL     1       0.357  -0.619   0.000  0.00  0.00    +0.000 A 
ATOM      6  N   UNL     1      -0.357  -0.206   0.000  0.00  0.00    +0.000 NA
ATOM      7  C   UNL     1       1.786  -0.619   0.000  0.00  0.00    +0.000 A 
ATOM      8  C   UNL     1       2.501  -0.206   0.000  0.00  0.00    +0.000 A 
ATOM      9  C   UNL     1       2.501   0.619   0.000  0.00  0.00    +0.000 A 
ATOM     10  N   UNL     1       1.786   1.031   0.000  0.00  0.00    +0.000 N 
ATOM     11  O   UNL     1       3.215   1.031   0.000  0.00  0.00    +0.000 OA
ATOM     12  C   UNL     1       1.786   1.856   0.000  0.00  0.00    +0.000 C 
ATOM     13  N   UNL     1      -1.072   1.031   0.000  0.00  0.00    +0.000 NA
ENDROOT
BRANCH   8  14
ATOM     14  C   UNL     1       3.215  -0.619   0.000  0.00  0.00    +0.000 A 
ATOM     15  C   UNL     1       3.930  -0.206   0.000  0.00  0.00    +0.000 A 
ATOM     16  C   UNL     1       4.644  -0.619   0.000  0.00  0.00    +0.000 A 
ATOM     17  C   UNL     1       4.644  -1.444   0.000  0.00  0.00    +0.000 A 
ATOM     18  C   UNL     1       3.930  -1.856   0.000  0.00  0.00    +0.000 A 
ATOM     19  C   UNL     1       3.215  -1.444   0.000  0.00  0.00    +0.000 A 
ATOM     20 CL   UNL     1       2.501  -1.856   0.000  0.00  0.00    +0.000 Cl
ATOM     21 CL   UNL     1       3.930   0.619   0.000  0.00  0.00    +0.000 Cl
ENDBRANCH   8  14
BRANCH  13  22
ATOM     22  C   UNL     1      -1.786   0.619   0.000  0.00  0.00    +0.000 A 
ATOM     23  C   UNL     1      -2.501   1.031   0.000  0.00  0.00    +0.000 A 
ATOM     24  C   UNL     1      -3.215   0.619   0.000  0.00  0.00    +0.000 A 
ATOM     25  C   UNL     1      -3.215  -0.206   0.000  0.00  0.00    +0.000 A 
ATOM     26  C   UNL     1      -2.501  -0.619   0.000  0.00  0.00    +0.000 A 
ATOM     27  C   UNL     1      -1.786  -0.206   0.000  0.00  0.00    +0.000 A 
BRANCH  24  28
ATOM     28  C   UNL     1      -3.930   1.031   0.000  0.00  0.00    +0.000 C 
ATOM     29  O   UNL     1      -4.644   0.619   0.000  0.00  0.00    +0.000 OA
ENDBRANCH  24  28
ENDBRANCH  13  22
TORSDOF 3
