REMARK  Name = 
REMARK  2 active torsions:
REMARK  status: ('A' for Active; 'I' for Inactive)
REMARK    1  A    between atoms: C_4  and  S_14
REMARK    2  A    between atoms: C_6  and  S_15
REMARK                            x       y       z     vdW  Elec       q    Type
REMARK                         _______ _______ _______ _____ _____    ______ ____
ROOT
ATOM      1  C   UNL     1       1.429   0.000   0.000  0.00  0.00    +0.000 A 
ATOM      2  C   UNL     1       1.429   0.825   0.000  0.00  0.00    +0.000 A 
ATOM      3  C   UNL     1       0.000   0.000   0.000  0.00  0.00    +0.000 A 
ATOM      4  C   UNL     1       0.715  -0.412   0.000  0.00  0.00    +0.000 A 
ATOM      5  C   UNL     1       0.715   1.238   0.000  0.00  0.00    +0.000 A 
ATOM      6  C   UNL     1       0.000   0.825   0.000  0.00  0.00    +0.000 A 
ATOM      7 CL   UNL     1       0.715   2.062   0.000  0.00  0.00    +0.000 Cl
ENDROOT
BRANCH   4  11
ATOM      8  N   UNL     1       0.715  -2.062   0.000  0.00  0.00    +0.000 NA
ATOM      9  O   UNL     1      -0.111  -1.238   0.000  0.00  0.00    +0.000 OA
ATOM     10  O   UNL     1       1.540  -1.238   0.000  0.00  0.00    +0.000 OA
ATOM     11  S   UNL     1       0.715  -1.238   0.000  0.00  0.00    +0.000 S 
ENDBRANCH   4  11
BRANCH   6  15
ATOM     12  N   UNL     1      -1.429   1.650   0.000  0.00  0.00    +0.000 NA
ATOM     13  O   UNL     1      -0.302   1.952   0.000  0.00  0.00    +0.000 OA
ATOM     14  O   UNL     1      -1.127   0.523   0.000  0.00  0.00    +0.000 OA
ATOM     15  S   UNL     1      -0.715   1.238   0.000  0.00  0.00    +0.000 S 
ENDBRANCH   6  15
TORSDOF 2
