REMARK  Name = 
REMARK  5 active torsions:
REMARK  status: ('A' for Active; 'I' for Inactive)
REMARK    1  A    between atoms: C_8  and  C_10
REMARK    2  A    between atoms: C_10  and  C_11
REMARK    3  A    between atoms: C_11  and  C_13
REMARK    4  A    between atoms: C_13  and  C_14
REMARK    5  A    between atoms: C_14  and  C_15
REMARK                            x       y       z     vdW  Elec       q    Type
REMARK                         _______ _______ _______ _____ _____    ______ ____
ROOT
ATOM      1  S   UNL     1       0.727  -1.409   0.000  0.00  0.00    +0.000 S 
ATOM      2  O   UNL     1      -2.630  -1.409   0.000  0.00  0.00    +0.000 OA
ATOM      3  N   UNL     1      -1.319  -0.741   0.000  0.00  0.00    +0.000 N 
ATOM      4  N   UNL     1      -1.319  -2.076   0.000  0.00  0.00    +0.000 N 
ATOM      5  C   UNL     1      -0.535  -0.996   0.000  0.00  0.00    +0.000 C 
ATOM      6  C   UNL     1      -0.535  -1.821   0.000  0.00  0.00    +0.000 C 
ATOM      7  C   UNL     1       0.246  -0.745   0.000  0.00  0.00    +0.000 C 
ATOM      8  C   UNL     1       0.246  -2.072   0.000  0.00  0.00    +0.000 C 
ATOM      9  C   UNL     1      -1.804  -1.409   0.000  0.00  0.00    +0.000 C 
ATOM     10  H   UNL     1      -1.478  -0.255   0.000  0.00  0.00    +0.000 HD
ATOM     11  H   UNL     1      -1.478  -2.562   0.000  0.00  0.00    +0.000 HD
ENDROOT
BRANCH   7  12
ATOM     12  C   UNL     1       0.502   0.040   0.000  0.00  0.00    +0.000 C 
BRANCH  12  13
ATOM     13  C   UNL     1       1.310   0.210   0.000  0.00  0.00    +0.000 C 
BRANCH  13  14
ATOM     14  C   UNL     1       1.566   0.994   0.000  0.00  0.00    +0.000 C 
BRANCH  14  15
ATOM     15  C   UNL     1       2.373   1.164   0.000  0.00  0.00    +0.000 C 
BRANCH  15  17
ATOM     16  O   UNL     1       2.078   2.562   0.000  0.00  0.00    +0.000 OA
ATOM     17  C   UNL     1       2.630   1.948   0.000  0.00  0.00    +0.000 C 
ENDBRANCH  15  17
ENDBRANCH  14  15
ENDBRANCH  13  14
ENDBRANCH  12  13
ENDBRANCH   7  12
TORSDOF 5
