REMARK  Name = 
REMARK  4 active torsions:
REMARK  status: ('A' for Active; 'I' for Inactive)
REMARK    1  A    between atoms: C_3  and  O_12
REMARK    2  A    between atoms: C_6  and  C_7
REMARK    3  A    between atoms: C_7  and  C_8
REMARK    4  A    between atoms: C_9  and  C_14
REMARK                            x       y       z     vdW  Elec       q    Type
REMARK                         _______ _______ _______ _____ _____    ______ ____
ROOT
ATOM      1  C   UNL     1      -2.144   0.408   0.000  0.00  0.00    +0.000 A 
ATOM      2  C   UNL     1      -2.145  -0.418   0.000  0.00  0.00    +0.000 A 
ATOM      3  C   UNL     1      -1.431  -0.831   0.000  0.00  0.00    +0.000 A 
ATOM      4  C   UNL     1      -1.433   0.820   0.000  0.00  0.00    +0.000 A 
ATOM      5  C   UNL     1      -0.719   0.412   0.000  0.00  0.00    +0.000 A 
ATOM      6  C   UNL     1      -0.715  -0.420   0.000  0.00  0.00    +0.000 A 
ATOM      7  O   UNL     1      -0.004   0.833   0.000  0.00  0.00    +0.000 OA
ATOM      8  O   UNL     1      -2.858   0.820   0.000  0.00  0.00    +0.000 OA
ENDROOT
BRANCH   6   9
ATOM      9  C   UNL     1       0.003  -0.831   0.000  0.00  0.00    +0.000 C 
ATOM     10  O   UNL     1       0.005  -1.655   0.000  0.00  0.00    +0.000 OA
BRANCH   9  11
ATOM     11  C   UNL     1       0.723  -0.414   0.000  0.00  0.00    +0.000 C 
ATOM     12  C   UNL     1       0.719   0.417   0.000  0.00  0.00    +0.000 C 
BRANCH  12  13
ATOM     13  C   UNL     1       1.431   0.831   0.000  0.00  0.00    +0.000 A 
ATOM     14  C   UNL     1       2.146   0.420   0.000  0.00  0.00    +0.000 A 
ATOM     15  C   UNL     1       2.858   0.833   0.000  0.00  0.00    +0.000 A 
ATOM     16  C   UNL     1       2.856   1.658   0.000  0.00  0.00    +0.000 A 
ATOM     17  C   UNL     1       2.136   2.068   0.000  0.00  0.00    +0.000 A 
ATOM     18  C   UNL     1       1.427   1.652   0.000  0.00  0.00    +0.000 A 
ENDBRANCH  12  13
ENDBRANCH   9  11
ENDBRANCH   6   9
BRANCH   3  19
ATOM     19  O   UNL     1      -1.433  -1.655   0.000  0.00  0.00    +0.000 OA
ATOM     20  C   UNL     1      -0.720  -2.068   0.000  0.00  0.00    +0.000 C 
ENDBRANCH   3  19
TORSDOF 4
