REMARK  Name = 
REMARK  5 active torsions:
REMARK  status: ('A' for Active; 'I' for Inactive)
REMARK    1  A    between atoms: C_2  and  N_3
REMARK    2  A    between atoms: N_3  and  C_4
REMARK    3  A    between atoms: C_4  and  C_5
REMARK    4  A    between atoms: C_9  and  C_12
REMARK    5  A    between atoms: C_18  and  C_21
REMARK                            x       y       z     vdW  Elec       q    Type
REMARK                         _______ _______ _______ _____ _____    ______ ____
ROOT
ATOM      1  C   UNL     1      -1.098  -2.724   0.000  0.00  0.00    +0.000 A 
ATOM      2  C   UNL     1      -1.882  -2.469   0.000  0.00  0.00    +0.000 A 
ATOM      3  C   UNL     1      -2.054  -1.663   0.000  0.00  0.00    +0.000 A 
ATOM      4  C   UNL     1      -1.441  -1.110   0.000  0.00  0.00    +0.000 A 
ATOM      5  C   UNL     1      -0.656  -1.365   0.000  0.00  0.00    +0.000 A 
ATOM      6  C   UNL     1      -0.485  -2.172   0.000  0.00  0.00    +0.000 A 
ATOM      7  C   UNL     1      -0.171  -0.698   0.000  0.00  0.00    +0.000 A 
ATOM      8  N   UNL     1      -0.656  -0.030   0.000  0.00  0.00    +0.000 NA
ATOM      9  N   UNL     1      -1.441  -0.285   0.000  0.00  0.00    +0.000 NA
ENDROOT
BRANCH   7  10
ATOM     10  C   UNL     1       0.654  -0.698   0.000  0.00  0.00    +0.000 A 
ATOM     11  N   UNL     1       1.139  -0.030   0.000  0.00  0.00    +0.000 NA
ATOM     12  C   UNL     1       1.923  -0.285   0.000  0.00  0.00    +0.000 A 
ATOM     13  C   UNL     1       2.638   0.127   0.000  0.00  0.00    +0.000 A 
ATOM     14  C   UNL     1       3.352  -0.285   0.000  0.00  0.00    +0.000 A 
ATOM     15  C   UNL     1       3.352  -1.110   0.000  0.00  0.00    +0.000 A 
ATOM     16  C   UNL     1       2.638  -1.523   0.000  0.00  0.00    +0.000 A 
ATOM     17  C   UNL     1       1.923  -1.110   0.000  0.00  0.00    +0.000 A 
ATOM     18  N   UNL     1       1.139  -1.365   0.000  0.00  0.00    +0.000 NA
ATOM     19  F   UNL     1       2.638  -2.348   0.000  0.00  0.00    +0.000 F 
ATOM     20  F   UNL     1       4.067   0.127   0.000  0.00  0.00    +0.000 F 
ENDBRANCH   7  10
BRANCH   1  25
ATOM     21  C   UNL     1       0.030  -4.593   0.000  0.00  0.00    +0.000 A 
ATOM     22  C   UNL     1      -0.583  -5.145   0.000  0.00  0.00    +0.000 A 
ATOM     23  N   UNL     1      -1.368  -4.890   0.000  0.00  0.00    +0.000 NA
ATOM     24  C   UNL     1      -1.539  -4.083   0.000  0.00  0.00    +0.000 A 
ATOM     25  C   UNL     1      -0.926  -3.531   0.000  0.00  0.00    +0.000 A 
ATOM     26  C   UNL     1      -0.141  -3.786   0.000  0.00  0.00    +0.000 A 
ATOM     27  C   UNL     1       0.472  -3.234   0.000  0.00  0.00    +0.000 C 
BRANCH  21  28
ATOM     28  C   UNL     1       0.815  -4.848   0.000  0.00  0.00    +0.000 C 
BRANCH  28  29
ATOM     29  N   UNL     1       0.986  -5.655   0.000  0.00  0.00    +0.000 NA
BRANCH  29  31
ATOM     30  C   UNL     1       1.942  -6.717   0.000  0.00  0.00    +0.000 C 
ATOM     31  C   UNL     1       1.771  -5.910   0.000  0.00  0.00    +0.000 C 
ENDBRANCH  29  31
ENDBRANCH  28  29
ENDBRANCH  21  28
ENDBRANCH   1  25
TORSDOF 5
