REMARK  Name = 
REMARK  3 active torsions:
REMARK  status: ('A' for Active; 'I' for Inactive)
REMARK    1  A    between atoms: C_4  and  S_7
REMARK    2  A    between atoms: S_7  and  C_10
REMARK    3  A    between atoms: C_16  and  N_20
REMARK                            x       y       z     vdW  Elec       q    Type
REMARK                         _______ _______ _______ _____ _____    ______ ____
ROOT
ATOM      1  C   UNL     1       0.715  -0.412   0.000  0.00  0.00    +0.000 A 
ATOM      2  C   UNL     1       1.429   0.000   0.000  0.00  0.00    +0.000 A 
ATOM      3  C   UNL     1       2.143  -0.412   0.000  0.00  0.00    +0.000 A 
ATOM      4  C   UNL     1       2.858   0.000   0.000  0.00  0.00    +0.000 A 
ATOM      5  C   UNL     1       3.572  -0.412   0.000  0.00  0.00    +0.000 A 
ATOM      6  C   UNL     1       3.572  -1.238   0.000  0.00  0.00    +0.000 A 
ATOM      7  C   UNL     1       2.858  -1.650   0.000  0.00  0.00    +0.000 A 
ATOM      8  C   UNL     1       2.143  -1.238   0.000  0.00  0.00    +0.000 A 
ATOM      9  N   UNL     1       1.429  -1.650   0.000  0.00  0.00    +0.000 NA
ATOM     10  C   UNL     1       0.715  -1.238   0.000  0.00  0.00    +0.000 A 
ENDROOT
BRANCH   7  11
ATOM     11  N   UNL     1       2.858  -2.475   0.000  0.00  0.00    +0.000 N 
ATOM     12  C   UNL     1       3.572  -2.888   0.000  0.00  0.00    +0.000 C 
ATOM     13  C   UNL     1       3.572  -3.712   0.000  0.00  0.00    +0.000 C 
ATOM     14  N   UNL     1       2.858  -4.125   0.000  0.00  0.00    +0.000 NA
ATOM     15  C   UNL     1       2.143  -3.712   0.000  0.00  0.00    +0.000 C 
ATOM     16  C   UNL     1       2.143  -2.888   0.000  0.00  0.00    +0.000 C 
ENDBRANCH   7  11
BRANCH   1  17
ATOM     17  S   UNL     1       0.000   0.000   0.000  0.00  0.00    +0.000 S 
ATOM     18  O   UNL     1      -0.412  -0.715   0.000  0.00  0.00    +0.000 OA
ATOM     19  O   UNL     1       0.412   0.715   0.000  0.00  0.00    +0.000 OA
BRANCH  17  23
ATOM     20  C   UNL     1      -2.143   1.238   0.000  0.00  0.00    +0.000 A 
ATOM     21  C   UNL     1      -1.429   1.650   0.000  0.00  0.00    +0.000 A 
ATOM     22  C   UNL     1      -0.715   1.238   0.000  0.00  0.00    +0.000 A 
ATOM     23  C   UNL     1      -0.715   0.412   0.000  0.00  0.00    +0.000 A 
ATOM     24  C   UNL     1      -1.429   0.000   0.000  0.00  0.00    +0.000 A 
ATOM     25  C   UNL     1      -2.143   0.412   0.000  0.00  0.00    +0.000 A 
ENDBRANCH  17  23
ENDBRANCH   1  17
TORSDOF 3
