REMARK  Name = 
REMARK  0 active torsions:
REMARK  status: ('A' for Active; 'I' for Inactive)
REMARK                            x       y       z     vdW  Elec       q    Type
REMARK                         _______ _______ _______ _____ _____    ______ ____
ROOT
ATOM      1 AL   UNL     1       2.053   0.007   0.000  0.00  0.00    +0.000 Al
ATOM      2  O   UNL     1       2.466   0.721   0.000  0.00  0.00    +0.000 OA
ATOM      3  O   UNL     1       2.466  -0.708   0.000  0.00  0.00    +0.000 OA
ENDROOT
TORSDOF 0
REMARK  Name = 
REMARK  0 active torsions:
REMARK  status: ('A' for Active; 'I' for Inactive)
REMARK                            x       y       z     vdW  Elec       q    Type
REMARK                         _______ _______ _______ _____ _____    ______ ____
ROOT
ATOM      1 NA   UNL     1      -2.466  -0.273   0.000  0.00  0.00    +0.000 Na
ENDROOT
TORSDOF 0
REMARK  Name = 
REMARK  0 active torsions:
REMARK  status: ('A' for Active; 'I' for Inactive)
REMARK                            x       y       z     vdW  Elec       q    Type
REMARK                         _______ _______ _______ _____ _____    ______ ____
ROOT
ATOM      1  C   UNL     1       0.053  -0.006   0.000  0.00  0.00    +0.000 C 
ATOM      2  O   UNL     1       0.466   0.708   0.000  0.00  0.00    +0.000 OA
ATOM      3  O   UNL     1       0.466  -0.721   0.000  0.00  0.00    +0.000 OA
ATOM      4  O   UNL     1      -0.771  -0.006   0.000  0.00  0.00    +0.000 OA
ENDROOT
TORSDOF 0
