REMARK  Name = 
REMARK  3 active torsions:
REMARK  status: ('A' for Active; 'I' for Inactive)
REMARK    1  A    between atoms: O_2  and  C_3
REMARK    2  A    between atoms: C_9  and  N_10
REMARK    3  A    between atoms: N_17  and  C_18
REMARK                            x       y       z     vdW  Elec       q    Type
REMARK                         _______ _______ _______ _____ _____    ______ ____
ROOT
ATOM      1  N   UNL     1       6.925   2.348   0.000  0.00  0.00    +0.000 NA
ATOM      2  C   UNL     1       6.210   1.935   0.000  0.00  0.00    +0.000 A 
ATOM      3  N   UNL     1       6.210   1.110   0.000  0.00  0.00    +0.000 NA
ATOM      4  C   UNL     1       5.496   0.698   0.000  0.00  0.00    +0.000 A 
ATOM      5  C   UNL     1       4.781   1.110   0.000  0.00  0.00    +0.000 A 
ATOM      6  C   UNL     1       4.067   0.698   0.000  0.00  0.00    +0.000 C 
ATOM      7  C   UNL     1       4.781   1.935   0.000  0.00  0.00    +0.000 A 
ATOM      8  N   UNL     1       4.067   2.348   0.000  0.00  0.00    +0.000 NA
ATOM      9  N   UNL     1       5.496   2.348   0.000  0.00  0.00    +0.000 NA
ENDROOT
BRANCH   8  10
ATOM     10  C   UNL     1       3.352   1.935   0.000  0.00  0.00    +0.000 A 
ATOM     11  C   UNL     1       3.352   1.110   0.000  0.00  0.00    +0.000 A 
ATOM     12  C   UNL     1       2.638   0.698   0.000  0.00  0.00    +0.000 A 
ATOM     13  C   UNL     1       1.923   1.110   0.000  0.00  0.00    +0.000 A 
ATOM     14  O   UNL     1       1.139   0.856   0.000  0.00  0.00    +0.000 OA
ATOM     15  C   UNL     1       0.654   1.523   0.000  0.00  0.00    +0.000 A 
ATOM     16  O   UNL     1      -0.171   1.523   0.000  0.00  0.00    +0.000 OA
ATOM     17  N   UNL     1       1.139   2.190   0.000  0.00  0.00    +0.000 NA
ATOM     18  C   UNL     1       1.923   1.935   0.000  0.00  0.00    +0.000 A 
ATOM     19  C   UNL     1       2.638   2.348   0.000  0.00  0.00    +0.000 A 
ENDBRANCH   8  10
BRANCH   1  26
ATOM     20  C   UNL     1       9.068   1.935   0.000  0.00  0.00    +0.000 A 
ATOM     21  C   UNL     1       9.068   1.110   0.000  0.00  0.00    +0.000 A 
ATOM     22  F   UNL     1       9.783   0.698   0.000  0.00  0.00    +0.000 F 
ATOM     23  C   UNL     1       8.354   0.698   0.000  0.00  0.00    +0.000 A 
ATOM     24  C   UNL     1       8.354  -0.127   0.000  0.00  0.00    +0.000 C 
ATOM     25  C   UNL     1       7.639   1.110   0.000  0.00  0.00    +0.000 A 
ATOM     26  C   UNL     1       7.639   1.935   0.000  0.00  0.00    +0.000 A 
ATOM     27  C   UNL     1       8.354   2.348   0.000  0.00  0.00    +0.000 A 
BRANCH  20  29
ATOM     28  C   UNL     1      10.497   1.935   0.000  0.00  0.00    +0.000 C 
ATOM     29  O   UNL     1       9.783   2.348   0.000  0.00  0.00    +0.000 OA
ENDBRANCH  20  29
ENDBRANCH   1  26
TORSDOF 3
