REMARK  Name = 
REMARK  5 active torsions:
REMARK  status: ('A' for Active; 'I' for Inactive)
REMARK    1  A    between atoms: C_2  and  O_21
REMARK    2  A    between atoms: C_10  and  C_12
REMARK    3  A    between atoms: C_10  and  N_19
REMARK    4  A    between atoms: C_15  and  C_17
REMARK    5  A    between atoms: C_17  and  O_21
REMARK                            x       y       z     vdW  Elec       q    Type
REMARK                         _______ _______ _______ _____ _____    ______ ____
ROOT
ATOM      1  C   UNL     1       1.356   0.698   0.000  0.00  0.00    +0.000 C 
ATOM      2  C   UNL     1       2.070   1.110   0.000  0.00  0.00    +0.000 C 
ATOM      3  C   UNL     1       1.356   2.348   0.000  0.00  0.00    +0.000 C 
ATOM      4  C   UNL     1       0.641   1.110   0.000  0.00  0.00    +0.000 A 
ATOM      5  C   UNL     1       0.641   1.935   0.000  0.00  0.00    +0.000 A 
ATOM      6  C   UNL     1      -0.143   0.856   0.000  0.00  0.00    +0.000 A 
ATOM      7  C   UNL     1      -0.628   1.523   0.000  0.00  0.00    +0.000 A 
ATOM      8  N   UNL     1      -1.453   1.523   0.000  0.00  0.00    +0.000 NA
ATOM      9  N   UNL     1       2.070   1.935   0.000  0.00  0.00    +0.000 NA
ATOM     10  S   UNL     1      -0.143   2.190   0.000  0.00  0.00    +0.000 S 
ENDROOT
BRANCH   6  11
ATOM     11  C   UNL     1      -0.398   0.071   0.000  0.00  0.00    +0.000 C 
ATOM     12  O   UNL     1       0.154  -0.542   0.000  0.00  0.00    +0.000 OA
BRANCH  11  13
ATOM     13  O   UNL     1      -1.205  -0.101   0.000  0.00  0.00    +0.000 OA
BRANCH  13  15
ATOM     14  C   UNL     1      -2.267  -1.057   0.000  0.00  0.00    +0.000 C 
ATOM     15  C   UNL     1      -1.460  -0.885   0.000  0.00  0.00    +0.000 C 
ENDBRANCH  13  15
ENDBRANCH  11  13
ENDBRANCH   6  11
BRANCH   9  16
ATOM     16  C   UNL     1       2.784   2.348   0.000  0.00  0.00    +0.000 C 
BRANCH  16  22
ATOM     17  C   UNL     1       4.928   1.110   0.000  0.00  0.00    +0.000 A 
ATOM     18  C   UNL     1       4.928   1.935   0.000  0.00  0.00    +0.000 A 
ATOM     19  C   UNL     1       4.213   0.698   0.000  0.00  0.00    +0.000 A 
ATOM     20  C   UNL     1       4.213   2.348   0.000  0.00  0.00    +0.000 A 
ATOM     21  C   UNL     1       3.499   1.110   0.000  0.00  0.00    +0.000 A 
ATOM     22  C   UNL     1       3.499   1.935   0.000  0.00  0.00    +0.000 A 
ENDBRANCH  16  22
ENDBRANCH   9  16
TORSDOF 5
