REMARK  Name = 
REMARK  3 active torsions:
REMARK  status: ('A' for Active; 'I' for Inactive)
REMARK    1  A    between atoms: C_9  and  S_19
REMARK    2  A    between atoms: C_11  and  O_18
REMARK    3  A    between atoms: N_15  and  S_19
REMARK                            x       y       z     vdW  Elec       q    Type
REMARK                         _______ _______ _______ _____ _____    ______ ____
ROOT
ATOM      1  O   UNL     1      -1.540   5.362   0.000  0.00  0.00    +0.000 OA
ATOM      2  O   UNL     1       0.111   5.362   0.000  0.00  0.00    +0.000 OA
ATOM      3  S   UNL     1      -0.715   5.362   0.000  0.00  0.00    +0.000 S 
ENDROOT
BRANCH   3   9
ATOM      4  C   UNL     1       0.000   3.300   0.000  0.00  0.00    +0.000 A 
ATOM      5  C   UNL     1      -1.429   3.300   0.000  0.00  0.00    +0.000 A 
ATOM      6  C   UNL     1       0.000   4.125   0.000  0.00  0.00    +0.000 A 
ATOM      7  C   UNL     1      -1.429   4.125   0.000  0.00  0.00    +0.000 A 
ATOM      8  C   UNL     1      -0.715   2.888   0.000  0.00  0.00    +0.000 A 
ATOM      9  C   UNL     1      -0.715   4.537   0.000  0.00  0.00    +0.000 A 
ATOM     10  N   UNL     1      -0.715   2.062   0.000  0.00  0.00    +0.000 NA
ENDBRANCH   3   9
BRANCH   3  17
ATOM     11  C   UNL     1      -1.429   7.425   0.000  0.00  0.00    +0.000 A 
ATOM     12  C   UNL     1      -2.143   7.838   0.000  0.00  0.00    +0.000 A 
ATOM     13  C   UNL     1      -1.429   6.600   0.000  0.00  0.00    +0.000 A 
ATOM     14  C   UNL     1      -2.858   7.425   0.000  0.00  0.00    +0.000 A 
ATOM     15  N   UNL     1      -2.143   6.188   0.000  0.00  0.00    +0.000 NA
ATOM     16  N   UNL     1      -2.858   6.600   0.000  0.00  0.00    +0.000 NA
ATOM     17  N   UNL     1      -0.715   6.188   0.000  0.00  0.00    +0.000 NA
BRANCH  14  19
ATOM     18  C   UNL     1      -4.287   7.425   0.000  0.00  0.00    +0.000 C 
ATOM     19  O   UNL     1      -3.572   7.838   0.000  0.00  0.00    +0.000 OA
ENDBRANCH  14  19
ENDBRANCH   3  17
TORSDOF 3
