REMARK  Name = 
REMARK  35 active torsions:
REMARK  status: ('A' for Active; 'I' for Inactive)
REMARK    1  A    between atoms: O_2  and  C_3
REMARK    2  A    between atoms: C_6  and  N_72
REMARK    3  A    between atoms: C_8  and  C_9
REMARK    4  A    between atoms: N_11  and  C_12
REMARK    5  A    between atoms: C_12  and  C_13
REMARK    6  A    between atoms: C_12  and  C_18
REMARK    7  A    between atoms: C_13  and  C_14
REMARK    8  A    between atoms: C_14  and  C_15
REMARK    9  A    between atoms: C_15  and  C_16
REMARK   10  A    between atoms: N_20  and  C_21
REMARK   11  A    between atoms: C_24  and  O_70
REMARK   12  A    between atoms: C_25  and  C_27
REMARK   13  A    between atoms: N_29  and  C_30
REMARK   14  A    between atoms: C_30  and  C_31
REMARK   15  A    between atoms: C_30  and  C_36
REMARK   16  A    between atoms: C_31  and  C_32
REMARK   17  A    between atoms: C_32  and  C_33
REMARK   18  A    between atoms: C_33  and  C_34
REMARK   19  A    between atoms: N_38  and  C_39
REMARK   20  A    between atoms: C_42  and  O_68
REMARK   21  A    between atoms: C_43  and  C_45
REMARK   22  A    between atoms: N_47  and  C_48
REMARK   23  A    between atoms: C_48  and  C_49
REMARK   24  A    between atoms: C_48  and  C_54
REMARK   25  A    between atoms: C_49  and  C_50
REMARK   26  A    between atoms: C_50  and  C_51
REMARK   27  A    between atoms: C_51  and  C_52
REMARK   28  A    between atoms: N_56  and  C_57
REMARK   29  A    between atoms: C_60  and  O_66
REMARK   30  A    between atoms: C_61  and  C_63
REMARK   31  A    between atoms: C_73  and  C_75
REMARK   32  A    between atoms: C_75  and  C_76
REMARK   33  A    between atoms: C_76  and  C_77
REMARK   34  A    between atoms: C_77  and  C_78
REMARK   35  A    between atoms: C_78  and  C_79
REMARK                            x       y       z     vdW  Elec       q    Type
REMARK                         _______ _______ _______ _____ _____    ______ ____
ROOT
ATOM      1  C   UNL     1      -9.288 -13.613   0.000  0.00  0.00    +0.000 C 
ATOM      2  O   UNL     1      -8.574 -13.200   0.000  0.00  0.00    +0.000 OA
ATOM      3  N   UNL     1     -10.003 -13.200   0.000  0.00  0.00    +0.000 NA
ENDROOT
BRANCH   1   8
ATOM      4  C   UNL     1      -8.574 -15.675   0.000  0.00  0.00    +0.000 A 
ATOM      5  C   UNL     1      -9.288 -16.087   0.000  0.00  0.00    +0.000 A 
ATOM      6  C   UNL     1     -10.003 -15.675   0.000  0.00  0.00    +0.000 A 
ATOM      7  C   UNL     1     -10.003 -14.850   0.000  0.00  0.00    +0.000 A 
ATOM      8  C   UNL     1      -9.288 -14.438   0.000  0.00  0.00    +0.000 A 
ATOM      9  C   UNL     1      -8.574 -14.850   0.000  0.00  0.00    +0.000 A 
BRANCH   4  12
ATOM     10  C   UNL     1      -7.145 -15.675   0.000  0.00  0.00    +0.000 C 
ATOM     11  O   UNL     1      -7.145 -14.850   0.000  0.00  0.00    +0.000 OA
ATOM     12  N   UNL     1      -7.859 -16.087   0.000  0.00  0.00    +0.000 NA
BRANCH  10  13
ATOM     13  C   UNL     1      -6.430 -16.087   0.000  0.00  0.00    +0.000 C 
BRANCH  13  16
ATOM     14  C   UNL     1      -5.001 -16.087   0.000  0.00  0.00    +0.000 C 
ATOM     15  O   UNL     1      -5.001 -16.913   0.000  0.00  0.00    +0.000 OA
ATOM     16  N   UNL     1      -5.716 -15.675   0.000  0.00  0.00    +0.000 NA
BRANCH  14  22
ATOM     17  C   UNL     1      -4.287 -14.850   0.000  0.00  0.00    +0.000 A 
ATOM     18  C   UNL     1      -3.572 -14.438   0.000  0.00  0.00    +0.000 A 
ATOM     19  C   UNL     1      -2.858 -14.850   0.000  0.00  0.00    +0.000 A 
ATOM     20  C   UNL     1      -2.858 -15.675   0.000  0.00  0.00    +0.000 A 
ATOM     21  C   UNL     1      -3.572 -16.087   0.000  0.00  0.00    +0.000 A 
ATOM     22  C   UNL     1      -4.287 -15.675   0.000  0.00  0.00    +0.000 A 
BRANCH  20  23
ATOM     23  N   UNL     1      -2.143 -16.087   0.000  0.00  0.00    +0.000 NA
ATOM     24  C   UNL     1      -1.429 -15.675   0.000  0.00  0.00    +0.000 C 
ATOM     25  O   UNL     1      -1.429 -14.850   0.000  0.00  0.00    +0.000 OA
BRANCH  24  26
ATOM     26  C   UNL     1      -0.715 -16.087   0.000  0.00  0.00    +0.000 C 
ATOM     27  N   UNL     1      -0.715 -16.913   0.000  0.00  0.00    +0.000 NA
BRANCH  26  28
ATOM     28  C   UNL     1       0.000 -15.675   0.000  0.00  0.00    +0.000 C 
BRANCH  28  29
ATOM     29  C   UNL     1       0.715 -16.087   0.000  0.00  0.00    +0.000 C 
BRANCH  29  30
ATOM     30  C   UNL     1       1.429 -15.675   0.000  0.00  0.00    +0.000 C 
BRANCH  30  31
ATOM     31  C   UNL     1       2.143 -16.087   0.000  0.00  0.00    +0.000 C 
ATOM     32  N   UNL     1       2.858 -15.675   0.000  0.00  0.00    +0.000 NA
ENDBRANCH  30  31
ENDBRANCH  29  30
ENDBRANCH  28  29
ENDBRANCH  26  28
ENDBRANCH  24  26
ENDBRANCH  20  23
BRANCH  17  34
ATOM     33  C   UNL     1      -5.716 -14.850   0.000  0.00  0.00    +0.000 C 
ATOM     34  O   UNL     1      -5.001 -14.438   0.000  0.00  0.00    +0.000 OA
ENDBRANCH  17  34
ENDBRANCH  14  22
ENDBRANCH  13  16
BRANCH  13  35
ATOM     35  C   UNL     1      -6.430 -16.913   0.000  0.00  0.00    +0.000 C 
BRANCH  35  36
ATOM     36  C   UNL     1      -5.716 -17.325   0.000  0.00  0.00    +0.000 C 
BRANCH  36  37
ATOM     37  C   UNL     1      -5.716 -18.150   0.000  0.00  0.00    +0.000 C 
BRANCH  37  38
ATOM     38  C   UNL     1      -5.001 -18.562   0.000  0.00  0.00    +0.000 C 
ATOM     39  N   UNL     1      -5.001 -19.387   0.000  0.00  0.00    +0.000 NA
ENDBRANCH  37  38
ENDBRANCH  36  37
ENDBRANCH  35  36
ENDBRANCH  13  35
ENDBRANCH  10  13
ENDBRANCH   4  12
BRANCH   7  40
ATOM     40  O   UNL     1     -10.717 -14.438   0.000  0.00  0.00    +0.000 OA
ATOM     41  C   UNL     1     -10.717 -13.613   0.000  0.00  0.00    +0.000 C 
ENDBRANCH   7  40
ENDBRANCH   1   8
BRANCH   3  42
ATOM     42  C   UNL     1     -10.003 -12.375   0.000  0.00  0.00    +0.000 C 
BRANCH  42  43
ATOM     43  C   UNL     1     -10.717 -11.963   0.000  0.00  0.00    +0.000 C 
ATOM     44  O   UNL     1     -11.431 -12.375   0.000  0.00  0.00    +0.000 OA
ATOM     45  N   UNL     1     -10.717 -11.137   0.000  0.00  0.00    +0.000 NA
BRANCH  45  46
ATOM     46  C   UNL     1     -11.431 -10.725   0.000  0.00  0.00    +0.000 A 
ATOM     47  C   UNL     1     -12.146 -11.137   0.000  0.00  0.00    +0.000 A 
ATOM     48  C   UNL     1     -12.861 -10.725   0.000  0.00  0.00    +0.000 A 
ATOM     49  C   UNL     1     -12.861  -9.900   0.000  0.00  0.00    +0.000 A 
ATOM     50  C   UNL     1     -12.146  -9.488   0.000  0.00  0.00    +0.000 A 
ATOM     51  C   UNL     1     -11.431  -9.900   0.000  0.00  0.00    +0.000 A 
BRANCH  50  52
ATOM     52  C   UNL     1     -12.146  -8.662   0.000  0.00  0.00    +0.000 C 
ATOM     53  O   UNL     1     -11.431  -8.250   0.000  0.00  0.00    +0.000 OA
ATOM     54  N   UNL     1     -12.861  -8.250   0.000  0.00  0.00    +0.000 NA
BRANCH  54  55
ATOM     55  C   UNL     1     -12.861  -7.425   0.000  0.00  0.00    +0.000 C 
BRANCH  55  56
ATOM     56  C   UNL     1     -13.575  -7.013   0.000  0.00  0.00    +0.000 C 
ATOM     57  O   UNL     1     -14.289  -7.425   0.000  0.00  0.00    +0.000 OA
ATOM     58  N   UNL     1     -13.575  -6.188   0.000  0.00  0.00    +0.000 NA
BRANCH  58  59
ATOM     59  C   UNL     1     -14.289  -5.775   0.000  0.00  0.00    +0.000 A 
ATOM     60  C   UNL     1     -15.004  -6.188   0.000  0.00  0.00    +0.000 A 
ATOM     61  C   UNL     1     -15.718  -5.775   0.000  0.00  0.00    +0.000 A 
ATOM     62  C   UNL     1     -15.718  -4.950   0.000  0.00  0.00    +0.000 A 
ATOM     63  C   UNL     1     -15.004  -4.537   0.000  0.00  0.00    +0.000 A 
ATOM     64  C   UNL     1     -14.289  -4.950   0.000  0.00  0.00    +0.000 A 
BRANCH  63  65
ATOM     65  C   UNL     1     -15.004  -3.712   0.000  0.00  0.00    +0.000 C 
ATOM     66  O   UNL     1     -14.289  -3.300   0.000  0.00  0.00    +0.000 OA
ATOM     67  N   UNL     1     -15.718  -3.300   0.000  0.00  0.00    +0.000 NA
ENDBRANCH  63  65
BRANCH  62  68
ATOM     68  O   UNL     1     -16.433  -4.537   0.000  0.00  0.00    +0.000 OA
ATOM     69  C   UNL     1     -16.433  -3.712   0.000  0.00  0.00    +0.000 C 
ENDBRANCH  62  68
ENDBRANCH  58  59
ENDBRANCH  55  56
BRANCH  55  70
ATOM     70  C   UNL     1     -12.146  -7.013   0.000  0.00  0.00    +0.000 C 
BRANCH  70  71
ATOM     71  C   UNL     1     -12.146  -6.188   0.000  0.00  0.00    +0.000 C 
BRANCH  71  72
ATOM     72  C   UNL     1     -11.431  -5.775   0.000  0.00  0.00    +0.000 C 
BRANCH  72  73
ATOM     73  C   UNL     1     -11.431  -4.950   0.000  0.00  0.00    +0.000 C 
ATOM     74  N   UNL     1     -10.717  -4.537   0.000  0.00  0.00    +0.000 NA
ENDBRANCH  72  73
ENDBRANCH  71  72
ENDBRANCH  70  71
ENDBRANCH  55  70
ENDBRANCH  54  55
ENDBRANCH  50  52
BRANCH  49  75
ATOM     75  O   UNL     1     -13.575  -9.488   0.000  0.00  0.00    +0.000 OA
ATOM     76  C   UNL     1     -13.575  -8.662   0.000  0.00  0.00    +0.000 C 
ENDBRANCH  49  75
ENDBRANCH  45  46
ENDBRANCH  42  43
BRANCH  42  77
ATOM     77  C   UNL     1      -9.288 -11.963   0.000  0.00  0.00    +0.000 C 
BRANCH  77  78
ATOM     78  C   UNL     1      -9.288 -11.137   0.000  0.00  0.00    +0.000 C 
BRANCH  78  79
ATOM     79  C   UNL     1      -8.574 -10.725   0.000  0.00  0.00    +0.000 C 
BRANCH  79  80
ATOM     80  C   UNL     1      -8.574  -9.900   0.000  0.00  0.00    +0.000 C 
ATOM     81  N   UNL     1      -7.859  -9.488   0.000  0.00  0.00    +0.000 NA
ENDBRANCH  79  80
ENDBRANCH  78  79
ENDBRANCH  77  78
ENDBRANCH  42  77
ENDBRANCH   3  42
TORSDOF 35
