REMARK  Name = 
REMARK  8 active torsions:
REMARK  status: ('A' for Active; 'I' for Inactive)
REMARK    1  A    between atoms: C_2  and  N_3
REMARK    2  A    between atoms: N_3  and  C_5
REMARK    3  A    between atoms: N_3  and  C_7
REMARK    4  A    between atoms: C_7  and  C_8
REMARK    5  A    between atoms: C_8  and  O_9
REMARK    6  A    between atoms: O_9  and  C_10
REMARK    7  A    between atoms: C_10  and  C_11
REMARK    8  A    between atoms: C_10  and  C_17
REMARK                            x       y       z     vdW  Elec       q    Type
REMARK                         _______ _______ _______ _____ _____    ______ ____
ROOT
ATOM      1  C   UNL     1       0.106  -0.661   0.000  0.00  0.00    +0.000 C 
ENDROOT
BRANCH   1   2
ATOM      2  C   UNL     1       0.821  -0.249   0.000  0.00  0.00    +0.000 A 
ATOM      3  C   UNL     1       0.821   0.576   0.000  0.00  0.00    +0.000 A 
ATOM      4  C   UNL     1       1.535   0.989   0.000  0.00  0.00    +0.000 A 
ATOM      5  C   UNL     1       2.249   0.576   0.000  0.00  0.00    +0.000 A 
ATOM      6  C   UNL     1       2.249  -0.249   0.000  0.00  0.00    +0.000 A 
ATOM      7  C   UNL     1       1.535  -0.661   0.000  0.00  0.00    +0.000 A 
ENDBRANCH   1   2
BRANCH   1   8
ATOM      8  C   UNL     1       0.106  -1.486   0.000  0.00  0.00    +0.000 A 
ATOM      9  C   UNL     1       0.821  -1.899   0.000  0.00  0.00    +0.000 A 
ATOM     10  C   UNL     1       0.821  -2.724   0.000  0.00  0.00    +0.000 A 
ATOM     11  C   UNL     1       0.106  -3.136   0.000  0.00  0.00    +0.000 A 
ATOM     12  C   UNL     1      -0.608  -2.724   0.000  0.00  0.00    +0.000 A 
ATOM     13  C   UNL     1      -0.608  -1.899   0.000  0.00  0.00    +0.000 A 
ENDBRANCH   1   8
BRANCH   1  14
ATOM     14  O   UNL     1      -0.608  -0.249   0.000  0.00  0.00    +0.000 OA
BRANCH  14  15
ATOM     15  C   UNL     1      -0.608   0.576   0.000  0.00  0.00    +0.000 C 
BRANCH  15  16
ATOM     16  C   UNL     1      -1.323   0.989   0.000  0.00  0.00    +0.000 C 
BRANCH  16  17
ATOM     17  N   UNL     1      -1.323   1.814   0.000  0.00  0.00    +0.000 N 
ATOM     18  C   UNL     1      -2.148   1.814   0.000  0.00  0.00    +0.000 C 
BRANCH  17  19
ATOM     19  C   UNL     1      -0.498   1.814   0.000  0.00  0.00    +0.000 C 
ATOM     20  C   UNL     1      -0.085   1.099   0.000  0.00  0.00    +0.000 C 
ENDBRANCH  17  19
BRANCH  17  22
ATOM     21  C   UNL     1      -2.037   3.051   0.000  0.00  0.00    +0.000 C 
ATOM     22  C   UNL     1      -1.323   2.639   0.000  0.00  0.00    +0.000 C 
ENDBRANCH  17  22
ENDBRANCH  16  17
ENDBRANCH  15  16
ENDBRANCH  14  15
ENDBRANCH   1  14
TORSDOF 8
REMARK  Name = 
REMARK  8 active torsions:
REMARK  status: ('A' for Active; 'I' for Inactive)
REMARK    1  A    between atoms: C_2  and  N_3
REMARK    2  A    between atoms: N_3  and  C_5
REMARK    3  A    between atoms: N_3  and  C_7
REMARK    4  A    between atoms: C_7  and  C_8
REMARK    5  A    between atoms: C_8  and  O_9
REMARK    6  A    between atoms: O_9  and  C_10
REMARK    7  A    between atoms: C_10  and  C_11
REMARK    8  A    between atoms: C_10  and  C_17
REMARK                            x       y       z     vdW  Elec       q    Type
REMARK                         _______ _______ _______ _____ _____    ______ ____
ROOT
ATOM      1  I   UNL     1       4.489   0.000   0.000  0.00  0.00    +0.000 I 
ENDROOT
TORSDOF 0
