REMARK  Name = 
REMARK  6 active torsions:
REMARK  status: ('A' for Active; 'I' for Inactive)
REMARK    1  A    between atoms: O_2  and  C_3
REMARK    2  A    between atoms: C_7  and  C_8
REMARK    3  A    between atoms: C_8  and  O_9
REMARK    4  A    between atoms: O_9  and  C_10
REMARK    5  A    between atoms: N_19  and  C_20
REMARK    6  A    between atoms: C_27  and  C_29
REMARK                            x       y       z     vdW  Elec       q    Type
REMARK                         _______ _______ _______ _____ _____    ______ ____
ROOT
ATOM      1  C   UNL     1       0.715  -0.412   0.000  0.00  0.00    +0.000 A 
ATOM      2  C   UNL     1       0.000   0.000   0.000  0.00  0.00    +0.000 A 
ATOM      3  C   UNL     1      -0.785  -0.255   0.000  0.00  0.00    +0.000 A 
ATOM      4 CL   UNL     1      -1.040  -1.040   0.000  0.00  0.00    +0.000 Cl
ATOM      5  C   UNL     1      -1.270   0.412   0.000  0.00  0.00    +0.000 A 
ATOM      6  N   UNL     1      -0.785   1.080   0.000  0.00  0.00    +0.000 NA
ATOM      7  C   UNL     1       0.000   0.825   0.000  0.00  0.00    +0.000 A 
ATOM      8  N   UNL     1       0.715   1.238   0.000  0.00  0.00    +0.000 NA
ATOM      9  C   UNL     1       1.429   0.825   0.000  0.00  0.00    +0.000 A 
ATOM     10  N   UNL     1       2.143   1.238   0.000  0.00  0.00    +0.000 NA
ATOM     11  N   UNL     1       1.429   0.000   0.000  0.00  0.00    +0.000 NA
ENDROOT
BRANCH  10  12
ATOM     12  C   UNL     1       2.143   2.062   0.000  0.00  0.00    +0.000 A 
ATOM     13  C   UNL     1       1.476   2.547   0.000  0.00  0.00    +0.000 A 
ATOM     14  N   UNL     1       1.731   3.332   0.000  0.00  0.00    +0.000 N 
ATOM     15  C   UNL     1       1.246   3.999   0.000  0.00  0.00    +0.000 C 
ATOM     16  N   UNL     1       2.556   3.332   0.000  0.00  0.00    +0.000 NA
ATOM     17  C   UNL     1       2.811   2.547   0.000  0.00  0.00    +0.000 A 
ENDBRANCH  10  12
BRANCH   1  18
ATOM     18  O   UNL     1       0.715  -1.238   0.000  0.00  0.00    +0.000 OA
BRANCH  18  19
ATOM     19  C   UNL     1       0.000  -1.650   0.000  0.00  0.00    +0.000 C 
BRANCH  19  24
ATOM     20  C   UNL     1       0.667  -2.960   0.000  0.00  0.00    +0.000 C 
ATOM     21  C   UNL     1       0.412  -3.744   0.000  0.00  0.00    +0.000 C 
ATOM     22  N   UNL     1      -0.412  -3.744   0.000  0.00  0.00    +0.000 N 
ATOM     23  C   UNL     1      -0.667  -2.960   0.000  0.00  0.00    +0.000 C 
ATOM     24  C   UNL     1       0.000  -2.475   0.000  0.00  0.00    +0.000 C 
ATOM     25  C   UNL     1      -0.897  -4.412   0.000  0.00  0.00    +0.000 C 
ATOM     26  O   UNL     1      -0.562  -5.166   0.000  0.00  0.00    +0.000 OA
BRANCH  25  27
ATOM     27  C   UNL     1      -1.718  -4.326   0.000  0.00  0.00    +0.000 C 
ATOM     28  C   UNL     1      -2.203  -4.993   0.000  0.00  0.00    +0.000 C 
ENDBRANCH  25  27
BRANCH  20  30
ATOM     29  C   UNL     1       1.624  -1.898   0.000  0.00  0.00    +0.000 C 
ATOM     30  O   UNL     1       1.452  -2.705   0.000  0.00  0.00    +0.000 OA
ENDBRANCH  20  30
ENDBRANCH  19  24
ENDBRANCH  18  19
ENDBRANCH   1  18
TORSDOF 6
