REMARK  Name = 
REMARK  22 active torsions:
REMARK  status: ('A' for Active; 'I' for Inactive)
REMARK    1  A    between atoms: C_2  and  C_3
REMARK    2  A    between atoms: C_3  and  C_4
REMARK    3  A    between atoms: C_10  and  C_12
REMARK    4  A    between atoms: C_14  and  S_21
REMARK    5  A    between atoms: C_17  and  O_18
REMARK    6  A    between atoms: O_18  and  C_19
REMARK    7  A    between atoms: S_21  and  N_24
REMARK    8  A    between atoms: N_27  and  C_30
REMARK    9  A    between atoms: C_30  and  C_31
REMARK   10  A    between atoms: C_31  and  O_32
REMARK   11  A    between atoms: O_32  and  C_33
REMARK   12  A    between atoms: C_33  and  O_35
REMARK   13  A    between atoms: O_35  and  C_36
REMARK   14  A    between atoms: C_36  and  C_37
REMARK   15  A    between atoms: C_37  and  N_38
REMARK   16  A    between atoms: N_41  and  S_44
REMARK   17  A    between atoms: S_44  and  C_47
REMARK   18  A    between atoms: C_50  and  O_67
REMARK   19  A    between atoms: C_51  and  C_53
REMARK   20  A    between atoms: C_60  and  C_64
REMARK   21  A    between atoms: C_64  and  C_65
REMARK   22  A    between atoms: O_67  and  C_68
REMARK                            x       y       z     vdW  Elec       q    Type
REMARK                         _______ _______ _______ _____ _____    ______ ____
ROOT
ATOM      1  C   UNL     1       3.352   9.360   0.000  0.00  0.00    +0.000 C 
ATOM      2  O   UNL     1       2.638   8.948   0.000  0.00  0.00    +0.000 OA
ENDROOT
BRANCH   1   3
ATOM      3  O   UNL     1       4.067   8.948   0.000  0.00  0.00    +0.000 OA
BRANCH   3   4
ATOM      4  C   UNL     1       4.067   8.123   0.000  0.00  0.00    +0.000 C 
BRANCH   4   5
ATOM      5  C   UNL     1       4.781   7.710   0.000  0.00  0.00    +0.000 C 
BRANCH   5   6
ATOM      6  N   UNL     1       4.781   6.885   0.000  0.00  0.00    +0.000 NA
ATOM      7  C   UNL     1       5.496   6.473   0.000  0.00  0.00    +0.000 C 
ATOM      8  C   UNL     1       5.496   5.648   0.000  0.00  0.00    +0.000 C 
ATOM      9  N   UNL     1       4.781   5.235   0.000  0.00  0.00    +0.000 NA
ATOM     10  C   UNL     1       4.067   5.648   0.000  0.00  0.00    +0.000 C 
ATOM     11  C   UNL     1       4.067   6.473   0.000  0.00  0.00    +0.000 C 
BRANCH   9  12
ATOM     12  S   UNL     1       4.781   4.410   0.000  0.00  0.00    +0.000 S 
ATOM     13  O   UNL     1       3.956   4.410   0.000  0.00  0.00    +0.000 OA
ATOM     14  O   UNL     1       5.606   4.410   0.000  0.00  0.00    +0.000 OA
BRANCH  12  15
ATOM     15  C   UNL     1       4.781   3.585   0.000  0.00  0.00    +0.000 A 
ATOM     16  C   UNL     1       5.496   3.173   0.000  0.00  0.00    +0.000 A 
ATOM     17  C   UNL     1       5.496   2.348   0.000  0.00  0.00    +0.000 A 
ATOM     18  C   UNL     1       4.781   1.935   0.000  0.00  0.00    +0.000 A 
ATOM     19  C   UNL     1       4.067   2.348   0.000  0.00  0.00    +0.000 A 
ATOM     20  C   UNL     1       4.067   3.173   0.000  0.00  0.00    +0.000 A 
BRANCH  19  21
ATOM     21  C   UNL     1       3.352   1.935   0.000  0.00  0.00    +0.000 A 
ATOM     22  N   UNL     1       3.352   1.110   0.000  0.00  0.00    +0.000 NA
ATOM     23  C   UNL     1       2.638   0.698   0.000  0.00  0.00    +0.000 A 
ATOM     24  O   UNL     1       2.638  -0.127   0.000  0.00  0.00    +0.000 OA
ATOM     25  C   UNL     1       1.923   1.110   0.000  0.00  0.00    +0.000 A 
ATOM     26  C   UNL     1       1.923   1.935   0.000  0.00  0.00    +0.000 A 
ATOM     27  N   UNL     1       2.638   2.348   0.000  0.00  0.00    +0.000 NA
ATOM     28  C   UNL     1       1.139   2.190   0.000  0.00  0.00    +0.000 A 
ATOM     29  N   UNL     1       0.654   1.523   0.000  0.00  0.00    +0.000 NA
ATOM     30  N   UNL     1       1.139   0.856   0.000  0.00  0.00    +0.000 N 
ATOM     31  C   UNL     1       0.884   0.071   0.000  0.00  0.00    +0.000 C 
BRANCH  28  32
ATOM     32  C   UNL     1       0.884   2.975   0.000  0.00  0.00    +0.000 C 
BRANCH  32  33
ATOM     33  C   UNL     1       1.436   3.588   0.000  0.00  0.00    +0.000 C 
ATOM     34  C   UNL     1       2.243   3.417   0.000  0.00  0.00    +0.000 C 
ENDBRANCH  32  33
ENDBRANCH  28  32
ENDBRANCH  19  21
BRANCH  18  35
ATOM     35  O   UNL     1       4.781   1.110   0.000  0.00  0.00    +0.000 OA
BRANCH  35  36
ATOM     36  C   UNL     1       5.496   0.698   0.000  0.00  0.00    +0.000 C 
ATOM     37  C   UNL     1       5.496  -0.127   0.000  0.00  0.00    +0.000 C 
ENDBRANCH  35  36
ENDBRANCH  18  35
ENDBRANCH  12  15
ENDBRANCH   9  12
ENDBRANCH   5   6
ENDBRANCH   4   5
ENDBRANCH   3   4
ENDBRANCH   1   3
BRANCH   1  38
ATOM     38  O   UNL     1       3.352  10.185   0.000  0.00  0.00    +0.000 OA
BRANCH  38  39
ATOM     39  C   UNL     1       2.638  10.598   0.000  0.00  0.00    +0.000 C 
BRANCH  39  40
ATOM     40  C   UNL     1       2.638  11.423   0.000  0.00  0.00    +0.000 C 
BRANCH  40  44
ATOM     41  N   UNL     1       0.494  12.660   0.000  0.00  0.00    +0.000 NA
ATOM     42  C   UNL     1       1.209  13.073   0.000  0.00  0.00    +0.000 C 
ATOM     43  C   UNL     1       1.923  12.660   0.000  0.00  0.00    +0.000 C 
ATOM     44  N   UNL     1       1.923  11.835   0.000  0.00  0.00    +0.000 NA
ATOM     45  C   UNL     1       1.209  11.423   0.000  0.00  0.00    +0.000 C 
ATOM     46  C   UNL     1       0.494  11.835   0.000  0.00  0.00    +0.000 C 
BRANCH  41  47
ATOM     47  S   UNL     1      -0.220  13.073   0.000  0.00  0.00    +0.000 S 
ATOM     48  O   UNL     1      -0.633  12.358   0.000  0.00  0.00    +0.000 OA
ATOM     49  O   UNL     1       0.192  13.787   0.000  0.00  0.00    +0.000 OA
BRANCH  47  52
ATOM     50  C   UNL     1      -1.649  14.723   0.000  0.00  0.00    +0.000 A 
ATOM     51  C   UNL     1      -0.934  14.310   0.000  0.00  0.00    +0.000 A 
ATOM     52  C   UNL     1      -0.934  13.485   0.000  0.00  0.00    +0.000 A 
ATOM     53  C   UNL     1      -1.649  13.073   0.000  0.00  0.00    +0.000 A 
ATOM     54  C   UNL     1      -2.364  13.485   0.000  0.00  0.00    +0.000 A 
ATOM     55  C   UNL     1      -2.364  14.310   0.000  0.00  0.00    +0.000 A 
BRANCH  50  62
ATOM     56  C   UNL     1      -2.977  17.337   0.000  0.00  0.00    +0.000 A 
ATOM     57  C   UNL     1      -2.364  16.785   0.000  0.00  0.00    +0.000 A 
ATOM     58  C   UNL     1      -1.649  17.198   0.000  0.00  0.00    +0.000 A 
ATOM     59  C   UNL     1      -0.934  16.785   0.000  0.00  0.00    +0.000 A 
ATOM     60  O   UNL     1      -0.220  17.198   0.000  0.00  0.00    +0.000 OA
ATOM     61  N   UNL     1      -0.934  15.960   0.000  0.00  0.00    +0.000 NA
ATOM     62  C   UNL     1      -1.649  15.548   0.000  0.00  0.00    +0.000 A 
ATOM     63  N   UNL     1      -2.364  15.960   0.000  0.00  0.00    +0.000 NA
ATOM     64  N   UNL     1      -1.821  18.005   0.000  0.00  0.00    +0.000 N 
ATOM     65  N   UNL     1      -2.641  18.091   0.000  0.00  0.00    +0.000 NA
ATOM     66  C   UNL     1      -1.268  18.618   0.000  0.00  0.00    +0.000 C 
BRANCH  56  67
ATOM     67  C   UNL     1      -3.784  17.166   0.000  0.00  0.00    +0.000 C 
BRANCH  67  69
ATOM     68  C   UNL     1      -5.143  17.608   0.000  0.00  0.00    +0.000 C 
ATOM     69  C   UNL     1      -4.336  17.779   0.000  0.00  0.00    +0.000 C 
ENDBRANCH  67  69
ENDBRANCH  56  67
ENDBRANCH  50  62
BRANCH  55  70
ATOM     70  O   UNL     1      -3.078  14.723   0.000  0.00  0.00    +0.000 OA
BRANCH  70  71
ATOM     71  C   UNL     1      -3.792  14.310   0.000  0.00  0.00    +0.000 C 
ATOM     72  C   UNL     1      -4.507  14.723   0.000  0.00  0.00    +0.000 C 
ENDBRANCH  70  71
ENDBRANCH  55  70
ENDBRANCH  47  52
ENDBRANCH  41  47
ENDBRANCH  40  44
ENDBRANCH  39  40
ENDBRANCH  38  39
ENDBRANCH   1  38
TORSDOF 22
