REMARK  Name = 
REMARK  5 active torsions:
REMARK  status: ('A' for Active; 'I' for Inactive)
REMARK    1  A    between atoms: C_5  and  N_7
REMARK    2  A    between atoms: N_7  and  S_8
REMARK    3  A    between atoms: S_8  and  C_9
REMARK    4  A    between atoms: C_11  and  C_17
REMARK    5  A    between atoms: C_18  and  C_19
REMARK                            x       y       z     vdW  Elec       q    Type
REMARK                         _______ _______ _______ _____ _____    ______ ____
ROOT
ATOM      1  C   UNL     1      -0.715   0.214   0.000  0.00  0.00    +0.000 A 
ATOM      2  C   UNL     1      -0.001  -0.199   0.000  0.00  0.00    +0.000 A 
ATOM      3  C   UNL     1       0.712   0.215   0.000  0.00  0.00    +0.000 A 
ATOM      4  C   UNL     1       0.709   1.041   0.000  0.00  0.00    +0.000 A 
ATOM      5  C   UNL     1      -0.012   1.451   0.000  0.00  0.00    +0.000 A 
ATOM      6  C   UNL     1      -0.721   1.034   0.000  0.00  0.00    +0.000 A 
ENDROOT
BRANCH   1   7
ATOM      7  S   UNL     1      -1.428  -0.201   0.000  0.00  0.00    +0.000 S 
ATOM      8  O   UNL     1      -1.845  -0.910   0.000  0.00  0.00    +0.000 OA
ATOM      9  O   UNL     1      -1.020  -0.910   0.000  0.00  0.00    +0.000 OA
BRANCH   7  10
ATOM     10  N   UNL     1      -2.144   0.208   0.000  0.00  0.00    +0.000 NA
BRANCH  10  15
ATOM     11  C   UNL     1      -4.284  -0.210   0.000  0.00  0.00    +0.000 A 
ATOM     12  C   UNL     1      -4.285  -1.038   0.000  0.00  0.00    +0.000 A 
ATOM     13  C   UNL     1      -3.571  -1.451   0.000  0.00  0.00    +0.000 A 
ATOM     14  C   UNL     1      -2.854  -1.037   0.000  0.00  0.00    +0.000 A 
ATOM     15  C   UNL     1      -2.857  -0.207   0.000  0.00  0.00    +0.000 A 
ATOM     16  C   UNL     1      -3.572   0.202   0.000  0.00  0.00    +0.000 A 
ENDBRANCH  10  15
ENDBRANCH   7  10
ENDBRANCH   1   7
BRANCH   3  17
ATOM     17  C   UNL     1       1.427  -0.195   0.000  0.00  0.00    +0.000 C 
ATOM     18  C   UNL     1       2.141   0.220   0.000  0.00  0.00    +0.000 C 
BRANCH  18  19
ATOM     19  C   UNL     1       2.857  -0.190   0.000  0.00  0.00    +0.000 C 
ATOM     20  O   UNL     1       2.859  -1.015   0.000  0.00  0.00    +0.000 OA
ATOM     21  N   UNL     1       3.570   0.225   0.000  0.00  0.00    +0.000 NA
ATOM     22  O   UNL     1       4.285  -0.185   0.000  0.00  0.00    +0.000 OA
ENDBRANCH  18  19
ENDBRANCH   3  17
TORSDOF 5
