REMARK  Name = 
REMARK  7 active torsions:
REMARK  status: ('A' for Active; 'I' for Inactive)
REMARK    1  A    between atoms: C_3  and  O_37
REMARK    2  A    between atoms: C_20  and  C_30
REMARK    3  A    between atoms: O_37  and  C_38
REMARK    4  A    between atoms: C_39  and  O_44
REMARK    5  A    between atoms: C_42  and  C_47
REMARK    6  A    between atoms: O_44  and  C_49
REMARK    7  A    between atoms: C_53  and  C_58
REMARK                            x       y       z     vdW  Elec       q    Type
REMARK                         _______ _______ _______ _____ _____    ______ ____
ROOT
ATOM      1  C   UNL     1      -0.639   0.307   0.000  0.00  0.00    +0.000 C 
ATOM      2  C   UNL     1      -1.354  -0.105   0.000  0.00  0.00    +0.000 C 
ATOM      3  C   UNL     1      -1.354  -0.929   0.000  0.00  0.00    +0.000 C 
ATOM      4  C   UNL     1      -0.639  -1.342   0.000  0.00  0.00    +0.000 C 
ATOM      5  C   UNL     1       0.075  -0.929   0.000  0.00  0.00    +0.000 C 
ATOM      6  C   UNL     1       0.836  -1.342   0.000  0.00  0.00    +0.000 C 
ATOM      7  C   UNL     1       1.550  -0.929   0.000  0.00  0.00    +0.000 C 
ATOM      8  C   UNL     1       1.550  -0.105   0.000  0.00  0.00    +0.000 C 
ATOM      9  C   UNL     1       0.836   0.307   0.000  0.00  0.00    +0.000 C 
ATOM     10  C   UNL     1       0.075  -0.105   0.000  0.00  0.00    +0.000 C 
ATOM     11  C   UNL     1       0.836   1.132   0.000  0.00  0.00    +0.000 C 
ATOM     12  C   UNL     1       1.550   1.544   0.000  0.00  0.00    +0.000 C 
ATOM     13  C   UNL     1       2.311   1.132   0.000  0.00  0.00    +0.000 C 
ATOM     14  C   UNL     1       2.311   0.307   0.000  0.00  0.00    +0.000 C 
ATOM     15  C   UNL     1       3.025  -0.105   0.000  0.00  0.00    +0.000 C 
ATOM     16  C   UNL     1       3.740   0.307   0.000  0.00  0.00    +0.000 C 
ATOM     17  C   UNL     1       3.740   1.132   0.000  0.00  0.00    +0.000 C 
ATOM     18  C   UNL     1       3.025   1.544   0.000  0.00  0.00    +0.000 C 
ATOM     19  C   UNL     1       3.025   2.369   0.000  0.00  0.00    +0.000 C 
ATOM     20  C   UNL     1       3.740   2.781   0.000  0.00  0.00    +0.000 C 
ATOM     21  C   UNL     1       4.500   2.369   0.000  0.00  0.00    +0.000 C 
ATOM     22  C   UNL     1       4.500   1.544   0.000  0.00  0.00    +0.000 C 
ATOM     23  C   UNL     1      -1.161  -2.029   0.000  0.00  0.00    +0.000 C 
ATOM     24  C   UNL     1      -0.181  -2.020   0.000  0.00  0.00    +0.000 C 
ATOM     25  C   UNL     1       0.075   0.720   0.000  0.00  0.00    +0.000 C 
ATOM     26  C   UNL     1       1.559   0.674   0.000  0.00  0.00    +0.000 C 
ATOM     27  C   UNL     1       2.319  -0.554   0.000  0.00  0.00    +0.000 C 
ATOM     28  C   UNL     1       3.749   1.956   0.000  0.00  0.00    +0.000 C 
ATOM     29  C   UNL     1       3.254   3.450   0.000  0.00  0.00    +0.000 C 
ATOM     30  O   UNL     1       0.125   1.505   0.000  0.00  0.00    +0.000 OA
ENDROOT
BRANCH  20  31
ATOM     31  C   UNL     1       4.225   3.440   0.000  0.00  0.00    +0.000 C 
ATOM     32  O   UNL     1       3.840   4.237   0.000  0.00  0.00    +0.000 OA
ATOM     33  O   UNL     1       4.950   3.528   0.000  0.00  0.00    +0.000 OA
ENDBRANCH  20  31
BRANCH   3  34
ATOM     34  O   UNL     1      -2.087  -1.344   0.000  0.00  0.00    +0.000 OA
BRANCH  34  35
ATOM     35  C   UNL     1      -2.803  -1.757   0.000  0.00  0.00    +0.000 C 
ATOM     36  C   UNL     1      -3.518  -1.344   0.000  0.00  0.00    +0.000 C 
ATOM     37  O   UNL     1      -2.803  -2.584   0.000  0.00  0.00    +0.000 OA
ATOM     38  C   UNL     1      -4.234  -1.757   0.000  0.00  0.00    +0.000 C 
ATOM     39  C   UNL     1      -3.518  -2.997   0.000  0.00  0.00    +0.000 C 
ATOM     40  C   UNL     1      -4.234  -2.584   0.000  0.00  0.00    +0.000 C 
ATOM     41  O   UNL     1      -4.950  -1.344   0.000  0.00  0.00    +0.000 OA
ATOM     42  O   UNL     1      -4.950  -2.997   0.000  0.00  0.00    +0.000 OA
BRANCH  39  43
ATOM     43  C   UNL     1      -3.518  -3.823   0.000  0.00  0.00    +0.000 C 
ATOM     44  O   UNL     1      -4.234  -4.237   0.000  0.00  0.00    +0.000 OA
ATOM     45  O   UNL     1      -2.799  -4.080   0.000  0.00  0.00    +0.000 OA
ENDBRANCH  39  43
BRANCH  36  46
ATOM     46  O   UNL     1      -3.518  -0.517   0.000  0.00  0.00    +0.000 OA
BRANCH  46  47
ATOM     47  C   UNL     1      -3.518   0.309   0.000  0.00  0.00    +0.000 C 
ATOM     48  C   UNL     1      -4.234   0.722   0.000  0.00  0.00    +0.000 C 
ATOM     49  O   UNL     1      -2.803   0.722   0.000  0.00  0.00    +0.000 OA
ATOM     50  C   UNL     1      -4.234   1.548   0.000  0.00  0.00    +0.000 C 
ATOM     51  C   UNL     1      -2.803   1.549   0.000  0.00  0.00    +0.000 C 
ATOM     52  C   UNL     1      -3.518   1.962   0.000  0.00  0.00    +0.000 C 
ATOM     53  O   UNL     1      -4.950   0.309   0.000  0.00  0.00    +0.000 OA
ATOM     54  O   UNL     1      -4.950   1.962   0.000  0.00  0.00    +0.000 OA
ATOM     55  O   UNL     1      -3.518   2.788   0.000  0.00  0.00    +0.000 OA
BRANCH  51  56
ATOM     56  C   UNL     1      -2.087   1.962   0.000  0.00  0.00    +0.000 C 
ATOM     57  O   UNL     1      -2.087   2.788   0.000  0.00  0.00    +0.000 OA
ATOM     58  O   UNL     1      -1.503   1.470   0.000  0.00  0.00    +0.000 OA
ENDBRANCH  51  56
ENDBRANCH  46  47
ENDBRANCH  36  46
ENDBRANCH  34  35
ENDBRANCH   3  34
TORSDOF 7
