REMARK  Name = 
REMARK  11 active torsions:
REMARK  status: ('A' for Active; 'I' for Inactive)
REMARK    1  A    between atoms: C_1  and  C_4
REMARK    2  A    between atoms: N_5  and  C_6
REMARK    3  A    between atoms: C_6  and  C_7
REMARK    4  A    between atoms: C_8  and  C_9
REMARK    5  A    between atoms: C_9  and  C_20
REMARK    6  A    between atoms: C_14  and  C_21
REMARK    7  A    between atoms: S_19  and  C_20
REMARK    8  A    between atoms: S_19  and  C_22
REMARK    9  A    between atoms: C_21  and  C_23
REMARK   10  A    between atoms: C_22  and  C_24
REMARK   11  A    between atoms: C_23  and  C_24
REMARK                            x       y       z     vdW  Elec       q    Type
REMARK                         _______ _______ _______ _____ _____    ______ ____
ROOT
ATOM      1  C   UNK A   1       2.147  -0.359   0.000  0.00  0.00    +0.000 C 
ATOM      2  C   UNK A   1       1.428  -0.774   0.000  0.00  0.00    +0.000 C 
ENDROOT
BRANCH   1   4
ATOM      3  C   UNK A   0       2.856   0.880   0.000  0.00  0.00    +0.000 C 
ATOM      4  N   UNK A   1       2.147   0.466   0.000  0.00  0.00    +0.000 NA
ATOM      5  O   UNK A   0       3.570   0.480   0.000  0.00  0.00    +0.000 OA
BRANCH   3   6
ATOM      6  C   UNK A   0       2.846   1.705   0.000  0.00  0.00    +0.000 C 
ATOM      7  C   UNK A   0       2.426   2.415   0.000  0.00  0.00    +0.000 C 
ATOM      8  C   UNK A   0       3.247   2.419   0.000  0.00  0.00    +0.000 C 
ATOM      9  C   UNK A   0       1.708   2.014   0.000  0.00  0.00    +0.000 C 
ATOM     10  C   UNK A   0       1.708   2.829   0.000  0.00  0.00    +0.000 C 
ENDBRANCH   3   6
ENDBRANCH   1   4
BRANCH   1  11
ATOM     11  C   UNK A   1       2.861  -0.774   0.000  0.00  0.00    +0.000 C 
ATOM     12  O   UNK A   1       3.570  -0.364   0.000  0.00  0.00    +0.000 OA
ATOM     13  O   UNK A   1       2.856  -1.599   0.000  0.00  0.00    +0.000 OA
ENDBRANCH   1  11
BRANCH   2  14
ATOM     14  C   UNK A   1       0.714  -0.359   0.000  0.00  0.00    +0.000 C 
BRANCH  14  15
ATOM     15  C   UNK A   1       0.000  -0.769   0.000  0.00  0.00    +0.000 C 
BRANCH  15  16
ATOM     16  C   UNK A   1      -0.714  -0.354   0.000  0.00  0.00    +0.000 C 
BRANCH  16  17
ATOM     17  C   UNK A   1      -1.433  -0.769   0.000  0.00  0.00    +0.000 C 
BRANCH  17  18
ATOM     18  S   UNK A   1      -2.142  -0.354   0.000  0.00  0.00    +0.000 S 
BRANCH  18  19
ATOM     19  C   UNK A   1      -2.861  -0.765   0.000  0.00  0.00    +0.000 C 
BRANCH  19  20
ATOM     20  C   UNK A   1      -2.861  -1.590   0.000  0.00  0.00    +0.000 C 
ATOM     21  N   UNK A   1      -3.570  -2.004   0.000  0.00  0.00    +0.000 NA
BRANCH  20  22
ATOM     22  C   UNK A   1      -2.142  -2.004   0.000  0.00  0.00    +0.000 C 
ATOM     23  O   UNK A   1      -2.142  -2.829   0.000  0.00  0.00    +0.000 OA
ATOM     24  O   UNK A   1      -1.433  -1.590   0.000  0.00  0.00    +0.000 OA
ENDBRANCH  20  22
ENDBRANCH  19  20
ENDBRANCH  18  19
ENDBRANCH  17  18
ENDBRANCH  16  17
ENDBRANCH  15  16
ENDBRANCH  14  15
ENDBRANCH   2  14
TORSDOF 11
