REMARK  Name = 
REMARK  8 active torsions:
REMARK  status: ('A' for Active; 'I' for Inactive)
REMARK    1  A    between atoms: C_1  and  C_10
REMARK    2  A    between atoms: C_11  and  C_12
REMARK    3  A    between atoms: N_13  and  C_14
REMARK    4  A    between atoms: C_14  and  C_15
REMARK    5  A    between atoms: C_14  and  C_21
REMARK    6  A    between atoms: C_15  and  S_16
REMARK    7  A    between atoms: S_16  and  C_18
REMARK    8  A    between atoms: C_18  and  S_19
REMARK                            x       y       z     vdW  Elec       q    Type
REMARK                         _______ _______ _______ _____ _____    ______ ____
ROOT
ATOM      1  C   UNK A   0       0.708  -0.753   0.000  0.00  0.00    +0.000 C 
ATOM      2  N   UNK A   1       1.421  -1.158   0.000  0.00  0.00    +0.000 NA
ATOM      3  O   UNK A   0       0.708   0.077   0.000  0.00  0.00    +0.000 OA
ENDROOT
BRANCH   1   5
ATOM      4  C   UNK A   0      -0.708  -0.753   0.000  0.00  0.00    +0.000 C 
ATOM      5  C   UNK A   0      -0.014  -1.158   0.000  0.00  0.00    +0.000 C 
BRANCH   4   6
ATOM      6  C   UNK A   0      -1.421  -1.158   0.000  0.00  0.00    +0.000 A 
ATOM      7  C   UNK A   0      -2.135  -0.753   0.000  0.00  0.00    +0.000 A 
ATOM      8  N   UNK A   0      -2.857  -1.158   0.000  0.00  0.00    +0.000 NA
ATOM      9  C   UNK A   0      -2.857  -1.983   0.000  0.00  0.00    +0.000 A 
ATOM     10  N   UNK A   0      -2.135  -2.389   0.000  0.00  0.00    +0.000 NA
ATOM     11  C   UNK A   0      -1.421  -1.983   0.000  0.00  0.00    +0.000 A 
ATOM     12  C   UNK A   0      -0.578  -2.542   0.000  0.00  0.00    +0.000 C 
ATOM     13  O   UNK A   0      -3.570  -2.389   0.000  0.00  0.00    +0.000 OA
ATOM     14  O   UNK A   0      -2.135   0.077   0.000  0.00  0.00    +0.000 OA
ENDBRANCH   4   6
ENDBRANCH   1   5
BRANCH   2  15
ATOM     15  C   UNK A   1       2.125  -0.753   0.000  0.00  0.00    +0.000 C 
BRANCH  15  16
ATOM     16  C   UNK A   1       2.843  -1.158   0.000  0.00  0.00    +0.000 C 
ATOM     17  O   UNK A   1       3.570  -0.753   0.000  0.00  0.00    +0.000 OA
ENDBRANCH  15  16
BRANCH  15  18
ATOM     18  C   UNK A   1       2.125   0.077   0.000  0.00  0.00    +0.000 C 
BRANCH  18  19
ATOM     19  S   UNK A   1       2.843   0.487   0.000  0.00  0.00    +0.000 S 
ATOM     20  O   UNK A   1       3.570   0.077   0.000  0.00  0.00    +0.000 OA
BRANCH  19  21
ATOM     21  C   UNK A   1       2.843   1.307   0.000  0.00  0.00    +0.000 C 
BRANCH  21  22
ATOM     22  S   UNK A   1       3.570   1.722   0.000  0.00  0.00    +0.000 S 
ATOM     23  C   UNK A   1       3.570   2.542   0.000  0.00  0.00    +0.000 C 
ENDBRANCH  21  22
ENDBRANCH  19  21
ENDBRANCH  18  19
ENDBRANCH  15  18
ENDBRANCH   2  15
TORSDOF 8
