REMARK  Name = 
REMARK  2 active torsions:
REMARK  status: ('A' for Active; 'I' for Inactive)
REMARK    1  A    between atoms: C_12  and  C_25
REMARK    2  A    between atoms: C_29  and  C_31
REMARK                            x       y       z     vdW  Elec       q    Type
REMARK                         _______ _______ _______ _____ _____    ______ ____
ROOT
ATOM      1  C   UNL     1       0.000   0.825   0.000  0.00  0.00    +0.000 C 
ATOM      2  C   UNL     1       0.715   1.238   0.000  0.00  0.00    +0.000 C 
ATOM      3  C   UNL     1       0.715   2.062   0.000  0.00  0.00    +0.000 C 
ATOM      4  O   UNL     1       1.429   2.475   0.000  0.00  0.00    +0.000 OA
ATOM      5  C   UNL     1       2.143   2.062   0.000  0.00  0.00    +0.000 C 
ATOM      6  C   UNL     1       2.143   1.238   0.000  0.00  0.00    +0.000 C 
ATOM      7  N   UNL     1       1.429   0.825   0.000  0.00  0.00    +0.000 N 
ATOM      8  C   UNL     1       1.429   0.000   0.000  0.00  0.00    +0.000 A 
ATOM      9  C   UNL     1       2.143  -0.412   0.000  0.00  0.00    +0.000 A 
ATOM     10  C   UNL     1       2.858   0.000   0.000  0.00  0.00    +0.000 A 
ATOM     11  C   UNL     1       3.572  -0.412   0.000  0.00  0.00    +0.000 A 
ATOM     12  C   UNL     1       3.572  -1.238   0.000  0.00  0.00    +0.000 A 
ATOM     13  N   UNL     1       2.858  -1.650   0.000  0.00  0.00    +0.000 NA
ATOM     14  C   UNL     1       2.143  -1.238   0.000  0.00  0.00    +0.000 A 
ATOM     15  N   UNL     1       1.429  -1.650   0.000  0.00  0.00    +0.000 NA
ATOM     16  C   UNL     1       0.715  -1.238   0.000  0.00  0.00    +0.000 A 
ATOM     17  N   UNL     1       0.715  -0.412   0.000  0.00  0.00    +0.000 NA
ATOM     18  N   UNL     1       0.000  -1.650   0.000  0.00  0.00    +0.000 N 
ATOM     19  C   UNL     1       0.000  -2.475   0.000  0.00  0.00    +0.000 C 
ATOM     20  C   UNL     1      -0.715  -2.888   0.000  0.00  0.00    +0.000 C 
ATOM     21  O   UNL     1      -1.429  -2.475   0.000  0.00  0.00    +0.000 OA
ATOM     22  C   UNL     1      -1.429  -1.650   0.000  0.00  0.00    +0.000 C 
ATOM     23  C   UNL     1      -0.715  -1.238   0.000  0.00  0.00    +0.000 C 
ATOM     24  C   UNL     1      -0.715  -0.412   0.000  0.00  0.00    +0.000 C 
ENDROOT
BRANCH  12  25
ATOM     25  C   UNL     1       4.287  -1.650   0.000  0.00  0.00    +0.000 A 
ATOM     26  C   UNL     1       5.001  -1.238   0.000  0.00  0.00    +0.000 A 
ATOM     27  C   UNL     1       5.716  -1.650   0.000  0.00  0.00    +0.000 A 
ATOM     28  C   UNL     1       5.716  -2.475   0.000  0.00  0.00    +0.000 A 
ATOM     29  C   UNL     1       5.001  -2.888   0.000  0.00  0.00    +0.000 A 
ATOM     30  C   UNL     1       4.287  -2.475   0.000  0.00  0.00    +0.000 A 
BRANCH  29  31
ATOM     31  C   UNL     1       5.001  -3.712   0.000  0.00  0.00    +0.000 C 
ATOM     32  O   UNL     1       5.716  -4.125   0.000  0.00  0.00    +0.000 OA
ATOM     33  N   UNL     1       4.287  -4.125   0.000  0.00  0.00    +0.000 NA
ATOM     34  C   UNL     1       4.287  -4.950   0.000  0.00  0.00    +0.000 C 
ENDBRANCH  29  31
ENDBRANCH  12  25
TORSDOF 2
