REMARK  Name = 
REMARK  17 active torsions:
REMARK  status: ('A' for Active; 'I' for Inactive)
REMARK    1  A    between atoms: C_2  and  C_3
REMARK    2  A    between atoms: C_3  and  C_4
REMARK    3  A    between atoms: C_4  and  C_5
REMARK    4  A    between atoms: C_5  and  C_6
REMARK    5  A    between atoms: N_7  and  C_8
REMARK    6  A    between atoms: C_8  and  C_9
REMARK    7  A    between atoms: C_8  and  C_26
REMARK    8  A    between atoms: N_10  and  C_11
REMARK    9  A    between atoms: C_11  and  C_12
REMARK   10  A    between atoms: N_13  and  C_14
REMARK   11  A    between atoms: C_14  and  C_15
REMARK   12  A    between atoms: C_15  and  C_16
REMARK   13  A    between atoms: C_16  and  N_17
REMARK   14  A    between atoms: N_17  and  C_18
REMARK   15  A    between atoms: C_18  and  C_19
REMARK   16  A    between atoms: C_19  and  C_20
REMARK   17  A    between atoms: C_20  and  C_21
REMARK                            x       y       z     vdW  Elec       q    Type
REMARK                         _______ _______ _______ _____ _____    ______ ____
ROOT
ATOM      1  C   UNK     1      -1.787  -0.412   0.000  0.00  0.00    +0.000 C 
ATOM      2  N   UNK     1      -1.071  -0.003   0.000  0.00  0.00    +0.000 NA
ATOM      3  O   UNK     1      -1.790  -1.237   0.000  0.00  0.00    +0.000 OA
ENDROOT
BRANCH   2   4
ATOM      4  C   UNK     1      -0.358  -0.417   0.000  0.00  0.00    +0.000 C 
BRANCH   4   5
ATOM      5  C   UNK     1       0.358  -0.008   0.000  0.00  0.00    +0.000 C 
ATOM      6  N   UNK     1       1.071  -0.423   0.000  0.00  0.00    +0.000 NA
ATOM      7  O   UNK     1       0.361   0.817   0.000  0.00  0.00    +0.000 OA
BRANCH   6   8
ATOM      8  C   UNK     1       1.787  -0.013   0.000  0.00  0.00    +0.000 C 
BRANCH   8   9
ATOM      9  C   UNK     1       2.500  -0.428   0.000  0.00  0.00    +0.000 C 
BRANCH   9  10
ATOM     10  C   UNK     1       3.216  -0.018   0.000  0.00  0.00    +0.000 C 
BRANCH  10  11
ATOM     11  N   UNK     1       3.929  -0.433   0.000  0.00  0.00    +0.000 NA
BRANCH  11  12
ATOM     12  C   UNK     1       4.645  -0.023   0.000  0.00  0.00    +0.000 C 
BRANCH  12  13
ATOM     13  C   UNK     1       5.358  -0.438   0.000  0.00  0.00    +0.000 C 
BRANCH  13  14
ATOM     14  C   UNK     1       6.074  -0.028   0.000  0.00  0.00    +0.000 C 
BRANCH  14  15
ATOM     15  C   UNK     1       6.787  -0.443   0.000  0.00  0.00    +0.000 C 
ATOM     16  N   UNK     1       7.503  -0.033   0.000  0.00  0.00    +0.000 NA
ENDBRANCH  14  15
ENDBRANCH  13  14
ENDBRANCH  12  13
ENDBRANCH  11  12
ENDBRANCH  10  11
ENDBRANCH   9  10
ENDBRANCH   8   9
ENDBRANCH   6   8
ENDBRANCH   4   5
ENDBRANCH   2   4
BRANCH   1  17
ATOM     17  C   UNK     1      -2.500   0.003   0.000  0.00  0.00    +0.000 C 
BRANCH  17  19
ATOM     18  C   UNK     1      -3.929   0.008   0.000  0.00  0.00    +0.000 C 
ATOM     19  N   UNK     1      -3.216  -0.407   0.000  0.00  0.00    +0.000 NA
ATOM     20  O   UNK     1      -3.926   0.833   0.000  0.00  0.00    +0.000 OA
BRANCH  18  21
ATOM     21  C   UNK     1      -4.645  -0.402   0.000  0.00  0.00    +0.000 C 
BRANCH  21  22
ATOM     22  C   UNK     1      -5.358   0.013   0.000  0.00  0.00    +0.000 C 
BRANCH  22  23
ATOM     23  C   UNK     1      -6.074  -0.397   0.000  0.00  0.00    +0.000 C 
ATOM     24  N   UNK     1      -6.077  -1.222   0.000  0.00  0.00    +0.000 NA
BRANCH  23  26
ATOM     25  O   UNK     1      -7.503  -0.392   0.000  0.00  0.00    +0.000 OA
ATOM     26  C   UNK     1      -6.787   0.018   0.000  0.00  0.00    +0.000 C 
ATOM     27  O   UNK     1      -6.784   0.843   0.000  0.00  0.00    +0.000 OA
ENDBRANCH  23  26
ENDBRANCH  22  23
ENDBRANCH  21  22
ENDBRANCH  18  21
ENDBRANCH  17  19
BRANCH  17  28
ATOM     28  C   UNK     1      -2.497   0.828   0.000  0.00  0.00    +0.000 C 
ATOM     29  S   UNK     1      -1.781   1.237   0.000  0.00  0.00    +0.000 S 
ENDBRANCH  17  28
ENDBRANCH   1  17
TORSDOF 17
