REMARK  Name = 
REMARK  5 active torsions:
REMARK  status: ('A' for Active; 'I' for Inactive)
REMARK    1  A    between atoms: C_1  and  C_8
REMARK    2  A    between atoms: C_2  and  C_20
REMARK    3  A    between atoms: N_19  and  C_27
REMARK    4  A    between atoms: C_27  and  C_28
REMARK    5  A    between atoms: C_28  and  C_29
REMARK                            x       y       z     vdW  Elec       q    Type
REMARK                         _______ _______ _______ _____ _____    ______ ____
ROOT
ATOM      1  C   UNL     1      -1.131   0.912   0.000  0.00  0.00    +0.000 C 
ATOM      2  C   UNL     1      -0.306   0.912   0.000  0.00  0.00    +0.000 C 
ATOM      3  C   UNL     1      -0.051   1.696   0.000  0.00  0.00    +0.000 C 
ATOM      4  N   UNL     1      -0.718   2.181   0.000  0.00  0.00    +0.000 NA
ATOM      5  C   UNL     1      -1.386   1.696   0.000  0.00  0.00    +0.000 C 
ATOM      6  O   UNL     1      -2.170   1.951   0.000  0.00  0.00    +0.000 OA
ATOM      7  O   UNL     1       0.734   1.951   0.000  0.00  0.00    +0.000 OA
ENDROOT
BRANCH   1   8
ATOM      8  C   UNL     1      -1.616   0.244   0.000  0.00  0.00    +0.000 A 
ATOM      9  C   UNL     1      -1.361  -0.540   0.000  0.00  0.00    +0.000 A 
ATOM     10  N   UNL     1      -2.028  -1.025   0.000  0.00  0.00    +0.000 N 
ATOM     11  C   UNL     1      -2.028  -1.850   0.000  0.00  0.00    +0.000 C 
ATOM     12  C   UNL     1      -2.696  -0.540   0.000  0.00  0.00    +0.000 A 
ATOM     13  C   UNL     1      -2.441   0.244   0.000  0.00  0.00    +0.000 A 
ATOM     14  C   UNL     1      -2.993   0.857   0.000  0.00  0.00    +0.000 A 
ATOM     15  C   UNL     1      -3.800   0.686   0.000  0.00  0.00    +0.000 A 
ATOM     16  C   UNL     1      -4.055  -0.099   0.000  0.00  0.00    +0.000 A 
ATOM     17  C   UNL     1      -3.503  -0.712   0.000  0.00  0.00    +0.000 A 
ENDBRANCH   1   8
BRANCH   2  20
ATOM     18  C   UNL     1       1.004   0.244   0.000  0.00  0.00    +0.000 A 
ATOM     19  N   UNL     1       1.259  -0.540   0.000  0.00  0.00    +0.000 N 
ATOM     20  C   UNL     1       0.179   0.244   0.000  0.00  0.00    +0.000 A 
ATOM     21  C   UNL     1      -0.076  -0.540   0.000  0.00  0.00    +0.000 A 
ATOM     22  C   UNL     1       0.592  -1.025   0.000  0.00  0.00    +0.000 A 
ATOM     23  C   UNL     1       0.505  -1.846   0.000  0.00  0.00    +0.000 A 
ATOM     24  C   UNL     1      -0.248  -2.181   0.000  0.00  0.00    +0.000 A 
ATOM     25  C   UNL     1      -0.916  -1.696   0.000  0.00  0.00    +0.000 A 
ATOM     26  C   UNL     1      -0.829  -0.876   0.000  0.00  0.00    +0.000 A 
BRANCH  19  27
ATOM     27  C   UNL     1       2.044  -0.795   0.000  0.00  0.00    +0.000 C 
BRANCH  27  28
ATOM     28  C   UNL     1       2.657  -0.243   0.000  0.00  0.00    +0.000 C 
BRANCH  28  29
ATOM     29  C   UNL     1       3.442  -0.498   0.000  0.00  0.00    +0.000 C 
ATOM     30  N   UNL     1       4.055   0.054   0.000  0.00  0.00    +0.000 NA
ENDBRANCH  28  29
ENDBRANCH  27  28
ENDBRANCH  19  27
ENDBRANCH   2  20
TORSDOF 5
