REMARK  Name = 
REMARK  10 active torsions:
REMARK  status: ('A' for Active; 'I' for Inactive)
REMARK    1  A    between atoms: C_2  and  C_3
REMARK    2  A    between atoms: C_3  and  C_4
REMARK    3  A    between atoms: C_4  and  C_22
REMARK    4  A    between atoms: N_12  and  C_14
REMARK    5  A    between atoms: C_14  and  C_15
REMARK    6  A    between atoms: C_15  and  C_16
REMARK    7  A    between atoms: C_16  and  N_17
REMARK    8  A    between atoms: N_17  and  C_18
REMARK    9  A    between atoms: N_17  and  C_20
REMARK   10  A    between atoms: C_22  and  C_23
REMARK                            x       y       z     vdW  Elec       q    Type
REMARK                         _______ _______ _______ _____ _____    ______ ____
ROOT
ATOM      1  C   UNL     1      -1.872   4.143   0.000  0.00  0.00    +0.000 C 
ATOM      2  C   UNL     1      -1.205   4.628   0.000  0.00  0.00    +0.000 C 
ATOM      3  C   UNL     1      -0.451   4.293   0.000  0.00  0.00    +0.000 C 
ATOM      4  C   UNL     1      -0.365   3.472   0.000  0.00  0.00    +0.000 C 
ATOM      5  C   UNL     1      -1.032   2.987   0.000  0.00  0.00    +0.000 C 
ATOM      6  C   UNL     1      -1.786   3.323   0.000  0.00  0.00    +0.000 C 
ATOM      7  C   UNL     1       0.349   3.885   0.000  0.00  0.00    +0.000 C 
ATOM      8  C   UNL     1       0.963   3.333   0.000  0.00  0.00    +0.000 C 
ATOM      9  N   UNL     1       0.627   2.579   0.000  0.00  0.00    +0.000 NA
ATOM     10  C   UNL     1      -0.193   2.665   0.000  0.00  0.00    +0.000 C 
ENDROOT
BRANCH   1  11
ATOM     11  C   UNL     1      -2.665   3.916   0.000  0.00  0.00    +0.000 C 
BRANCH  11  13
ATOM     12  C   UNL     1      -2.272   2.542   0.000  0.00  0.00    +0.000 C 
ATOM     13  C   UNL     1      -2.865   3.115   0.000  0.00  0.00    +0.000 C 
ENDBRANCH  11  13
ENDBRANCH   1  11
BRANCH   9  14
ATOM     14  C   UNL     1       1.040   1.865   0.000  0.00  0.00    +0.000 C 
BRANCH  14  15
ATOM     15  C   UNL     1       1.865   1.865   0.000  0.00  0.00    +0.000 C 
BRANCH  15  16
ATOM     16  C   UNL     1       2.277   1.150   0.000  0.00  0.00    +0.000 C 
BRANCH  16  17
ATOM     17  N   UNL     1       3.102   1.150   0.000  0.00  0.00    +0.000 NA
BRANCH  17  18
ATOM     18  C   UNL     1       3.515   1.865   0.000  0.00  0.00    +0.000 C 
ATOM     19  C   UNL     1       4.340   1.865   0.000  0.00  0.00    +0.000 C 
ENDBRANCH  17  18
BRANCH  17  20
ATOM     20  C   UNL     1       3.515   0.436   0.000  0.00  0.00    +0.000 C 
ATOM     21  C   UNL     1       4.340   0.436   0.000  0.00  0.00    +0.000 C 
ENDBRANCH  17  20
ENDBRANCH  16  17
ENDBRANCH  15  16
ENDBRANCH  14  15
ENDBRANCH   9  14
BRANCH   1  22
ATOM     22  C   UNL     1      -2.234   4.885   0.000  0.00  0.00    +0.000 C 
BRANCH  22  23
ATOM     23  C   UNL     1      -3.057   4.942   0.000  0.00  0.00    +0.000 C 
ATOM     24  C   UNL     1      -3.518   4.258   0.000  0.00  0.00    +0.000 C 
ENDBRANCH  22  23
ENDBRANCH   1  22
TORSDOF 10
