REMARK  Name = 
REMARK  8 active torsions:
REMARK  status: ('A' for Active; 'I' for Inactive)
REMARK    1  A    between atoms: C_4  and  C_7
REMARK    2  A    between atoms: C_12  and  C_15
REMARK    3  A    between atoms: C_15  and  C_16
REMARK    4  A    between atoms: C_16  and  C_17
REMARK    5  A    between atoms: C_17  and  C_18
REMARK    6  A    between atoms: C_18  and  N_19
REMARK    7  A    between atoms: C_20  and  C_22
REMARK    8  A    between atoms: C_23  and  C_24
REMARK                            x       y       z     vdW  Elec       q    Type
REMARK                         _______ _______ _______ _____ _____    ______ ____
ROOT
ATOM      1  C   UNL     1       2.143  -5.362   0.000  0.00  0.00    +0.000 C 
ENDROOT
BRANCH   1   7
ATOM      2  C   UNL     1      -0.715  -3.712   0.000  0.00  0.00    +0.000 C 
ATOM      3  O   UNL     1      -0.715  -2.888   0.000  0.00  0.00    +0.000 OA
ATOM      4  N   UNL     1       0.000  -4.125   0.000  0.00  0.00    +0.000 N 
ATOM      5  C   UNL     1       0.715  -3.712   0.000  0.00  0.00    +0.000 C 
ATOM      6  C   UNL     1       1.429  -4.125   0.000  0.00  0.00    +0.000 C 
ATOM      7  C   UNL     1       1.429  -4.950   0.000  0.00  0.00    +0.000 C 
ATOM      8  C   UNL     1       0.715  -5.362   0.000  0.00  0.00    +0.000 C 
ATOM      9  C   UNL     1       0.000  -4.950   0.000  0.00  0.00    +0.000 C 
BRANCH   2  13
ATOM     10  C   UNL     1      -2.858  -4.950   0.000  0.00  0.00    +0.000 A 
ATOM     11  C   UNL     1      -2.858  -4.125   0.000  0.00  0.00    +0.000 A 
ATOM     12  C   UNL     1      -2.143  -3.712   0.000  0.00  0.00    +0.000 A 
ATOM     13  C   UNL     1      -1.429  -4.125   0.000  0.00  0.00    +0.000 A 
ATOM     14  C   UNL     1      -1.429  -4.950   0.000  0.00  0.00    +0.000 A 
ATOM     15  C   UNL     1      -2.143  -5.362   0.000  0.00  0.00    +0.000 A 
ENDBRANCH   2  13
ENDBRANCH   1   7
BRANCH   1  16
ATOM     16  C   UNL     1       2.858  -4.950   0.000  0.00  0.00    +0.000 C 
BRANCH  16  17
ATOM     17  C   UNL     1       3.572  -5.362   0.000  0.00  0.00    +0.000 C 
BRANCH  17  18
ATOM     18  C   UNL     1       4.287  -4.950   0.000  0.00  0.00    +0.000 C 
BRANCH  18  19
ATOM     19  N   UNL     1       5.001  -5.362   0.000  0.00  0.00    +0.000 NA
ATOM     20  C   UNL     1       5.716  -4.950   0.000  0.00  0.00    +0.000 C 
ATOM     21  O   UNL     1       5.716  -4.125   0.000  0.00  0.00    +0.000 OA
BRANCH  20  22
ATOM     22  C   UNL     1       6.430  -5.362   0.000  0.00  0.00    +0.000 C 
ATOM     23  C   UNL     1       7.145  -4.950   0.000  0.00  0.00    +0.000 C 
BRANCH  23  24
ATOM     24  C   UNL     1       7.859  -5.362   0.000  0.00  0.00    +0.000 A 
ATOM     25  C   UNL     1       8.574  -4.950   0.000  0.00  0.00    +0.000 A 
ATOM     26  C   UNL     1       9.288  -5.362   0.000  0.00  0.00    +0.000 A 
ATOM     27  C   UNL     1       9.288  -6.188   0.000  0.00  0.00    +0.000 A 
ATOM     28  N   UNL     1       8.574  -6.600   0.000  0.00  0.00    +0.000 NA
ATOM     29  C   UNL     1       7.859  -6.188   0.000  0.00  0.00    +0.000 A 
ENDBRANCH  23  24
ENDBRANCH  20  22
ENDBRANCH  18  19
ENDBRANCH  17  18
ENDBRANCH  16  17
ENDBRANCH   1  16
TORSDOF 8
