REMARK  Name = 
REMARK  6 active torsions:
REMARK  status: ('A' for Active; 'I' for Inactive)
REMARK    1  A    between atoms: C_6  and  C_9
REMARK    2  A    between atoms: C_9  and  C_24
REMARK    3  A    between atoms: C_16  and  O_32
REMARK    4  A    between atoms: C_18  and  O_32
REMARK    5  A    between atoms: C_19  and  C_24
REMARK    6  A    between atoms: C_27  and  O_31
REMARK                            x       y       z     vdW  Elec       q    Type
REMARK                         _______ _______ _______ _____ _____    ______ ____
ROOT
ATOM      1  C   UNL     1      -1.367   2.749   0.000  0.00  0.00    +0.000 C 
ATOM      2  C   UNL     1      -2.796   0.443   0.000  0.00  0.00    +0.000 A 
ATOM      3  C   UNL     1      -2.983  -0.358   0.000  0.00  0.00    +0.000 A 
ATOM      4  C   UNL     1       0.150   0.172   0.000  0.00  0.00    +0.000 C 
ATOM      5  C   UNL     1       0.485  -0.444   0.000  0.00  0.00    +0.000 C 
ATOM      6  C   UNL     1      -0.207   1.252   0.000  0.00  0.00    +0.000 C 
ATOM      7  C   UNL     1      -0.013   2.063   0.000  0.00  0.00    +0.000 C 
ATOM      8  C   UNL     1      -1.563   1.378   0.000  0.00  0.00    +0.000 C 
ATOM      9  C   UNL     1       0.896   0.366   0.000  0.00  0.00    +0.000 C 
ATOM     10  C   UNL     1      -1.994   0.672   0.000  0.00  0.00    +0.000 A 
ATOM     11  C   UNL     1      -2.394  -0.927   0.000  0.00  0.00    +0.000 A 
ATOM     12  C   UNL     1       1.045  -0.522   0.000  0.00  0.00    +0.000 C 
ATOM     13  C   UNL     1      -0.730   1.336   0.000  0.00  0.00    +0.000 C 
ATOM     14  C   UNL     1      -1.341   0.155   0.000  0.00  0.00    +0.000 A 
ATOM     15  C   UNL     1      -1.625  -0.638   0.000  0.00  0.00    +0.000 A 
ATOM     16  C   UNL     1      -0.369  -0.543   0.000  0.00  0.00    +0.000 C 
ATOM     17  C   UNL     1       0.147   0.880   0.000  0.00  0.00    +0.000 C 
ATOM     18  C   UNL     1      -0.512   0.374   0.000  0.00  0.00    +0.000 C 
ATOM     19  C   UNL     1       0.329  -1.106   0.000  0.00  0.00    +0.000 C 
ATOM     20  N   UNL     1      -0.810   2.171   0.000  0.00  0.00    +0.000 NA
ATOM     21  O   UNL     1      -0.959  -1.112   0.000  0.00  0.00    +0.000 OA
ENDROOT
BRANCH  12  23
ATOM     22  C   UNL     1       1.513  -1.555   0.000  0.00  0.00    +0.000 C 
ATOM     23  C   UNL     1       1.796  -0.804   0.000  0.00  0.00    +0.000 C 
ATOM     24  O   UNL     1       2.079  -0.053   0.000  0.00  0.00    +0.000 OA
BRANCH  23  25
ATOM     25  C   UNL     1       2.547  -1.087   0.000  0.00  0.00    +0.000 C 
BRANCH  25  27
ATOM     26  C   UNL     1       3.918  -0.861   0.000  0.00  0.00    +0.000 C 
ATOM     27  C   UNL     1       3.167  -0.578   0.000  0.00  0.00    +0.000 C 
ENDBRANCH  25  27
ENDBRANCH  23  25
ENDBRANCH  12  23
BRANCH  19  29
ATOM     28  C   UNL     1      -0.362  -2.312   0.000  0.00  0.00    +0.000 C 
ATOM     29  O   UNL     1       0.332  -1.909   0.000  0.00  0.00    +0.000 OA
ENDBRANCH  19  29
BRANCH  11  30
ATOM     30  O   UNL     1      -2.557  -1.712   0.000  0.00  0.00    +0.000 OA
BRANCH  30  32
ATOM     31  C   UNL     1      -3.481  -2.749   0.000  0.00  0.00    +0.000 C 
ATOM     32  C   UNL     1      -3.319  -1.964   0.000  0.00  0.00    +0.000 C 
ATOM     33  O   UNL     1      -3.918  -1.430   0.000  0.00  0.00    +0.000 OA
ENDBRANCH  30  32
ENDBRANCH  11  30
TORSDOF 6
