REMARK  Name = 
REMARK  5 active torsions:
REMARK  status: ('A' for Active; 'I' for Inactive)
REMARK    1  A    between atoms: C_2  and  O_12
REMARK    2  A    between atoms: C_3  and  C_7
REMARK    3  A    between atoms: C_4  and  O_13
REMARK    4  A    between atoms: C_7  and  C_8
REMARK    5  A    between atoms: C_8  and  C_9
REMARK                            x       y       z     vdW  Elec       q    Type
REMARK                         _______ _______ _______ _____ _____    ______ ____
ROOT
ATOM      1  C   UNL     1      -0.715   0.412   0.000  0.00  0.00    +0.000 A 
ATOM      2  C   UNL     1      -1.429   0.000   0.000  0.00  0.00    +0.000 A 
ATOM      3  C   UNL     1       0.000   0.000   0.000  0.00  0.00    +0.000 A 
ATOM      4  C   UNL     1      -1.429  -0.825   0.000  0.00  0.00    +0.000 A 
ATOM      5  C   UNL     1       0.000  -0.825   0.000  0.00  0.00    +0.000 A 
ATOM      6  C   UNL     1      -0.715  -1.237   0.000  0.00  0.00    +0.000 A 
ENDROOT
BRANCH   2   7
ATOM      7  O   UNL     1      -2.143   0.412   0.000  0.00  0.00    +0.000 OA
ATOM      8  C   UNL     1      -2.143   1.238   0.000  0.00  0.00    +0.000 C 
ENDBRANCH   2   7
BRANCH   4   9
ATOM      9  O   UNL     1      -2.143  -1.237   0.000  0.00  0.00    +0.000 OA
ATOM     10  C   UNL     1      -2.858  -0.825   0.000  0.00  0.00    +0.000 C 
ENDBRANCH   4   9
BRANCH   3  11
ATOM     11  C   UNL     1       0.714   0.412   0.000  0.00  0.00    +0.000 C 
BRANCH  11  12
ATOM     12  C   UNL     1       1.429   0.000   0.000  0.00  0.00    +0.000 C 
BRANCH  12  13
ATOM     13  C   UNL     1       2.143   0.412   0.000  0.00  0.00    +0.000 C 
ATOM     14  O   UNL     1       2.858   0.000   0.000  0.00  0.00    +0.000 OA
ATOM     15  O   UNL     1       2.143   1.237   0.000  0.00  0.00    +0.000 OA
ENDBRANCH  12  13
ENDBRANCH  11  12
ENDBRANCH   3  11
TORSDOF 5
