REMARK  Name = 
REMARK  6 active torsions:
REMARK  status: ('A' for Active; 'I' for Inactive)
REMARK    1  A    between atoms: N_4  and  C_5
REMARK    2  A    between atoms: C_7  and  N_31
REMARK    3  A    between atoms: C_10  and  N_11
REMARK    4  A    between atoms: C_14  and  N_15
REMARK    5  A    between atoms: C_22  and  C_25
REMARK    6  A    between atoms: N_31  and  C_32
REMARK                            x       y       z     vdW  Elec       q    Type
REMARK                         _______ _______ _______ _____ _____    ______ ____
ROOT
ATOM      1  N   UNL     1       4.887   3.467   0.000  0.00  0.00    +0.000 N 
ATOM      2  C   UNL     1       5.299   2.752   0.000  0.00  0.00    +0.000 C 
ATOM      3  C   UNL     1       4.747   2.139   0.000  0.00  0.00    +0.000 C 
ATOM      4  C   UNL     1       3.993   2.475   0.000  0.00  0.00    +0.000 C 
ATOM      5  C   UNL     1       4.080   3.296   0.000  0.00  0.00    +0.000 C 
ATOM      6  O   UNL     1       3.466   3.848   0.000  0.00  0.00    +0.000 OA
ENDROOT
BRANCH   4   7
ATOM      7  N   UNL     1       3.279   2.062   0.000  0.00  0.00    +0.000 NA
ATOM      8  C   UNL     1       3.279   1.238   0.000  0.00  0.00    +0.000 A 
ATOM      9  N   UNL     1       3.993   0.825   0.000  0.00  0.00    +0.000 NA
ATOM     10  C   UNL     1       3.993   0.000   0.000  0.00  0.00    +0.000 A 
ATOM     11  N   UNL     1       3.279  -0.412   0.000  0.00  0.00    +0.000 NA
ATOM     12  C   UNL     1       2.564   0.000   0.000  0.00  0.00    +0.000 A 
ATOM     13  C   UNL     1       1.780  -0.255   0.000  0.00  0.00    +0.000 A 
ATOM     14  C   UNL     1       1.295   0.412   0.000  0.00  0.00    +0.000 A 
ATOM     15  N   UNL     1       1.780   1.080   0.000  0.00  0.00    +0.000 NA
ATOM     16  N   UNL     1       2.564   0.825   0.000  0.00  0.00    +0.000 N 
BRANCH  14  17
ATOM     17  C   UNL     1       0.470   0.412   0.000  0.00  0.00    +0.000 C 
ATOM     18  C   UNL     1      -0.355   0.412   0.000  0.00  0.00    +0.000 C 
ATOM     19  C   UNL     1       0.470  -0.412   0.000  0.00  0.00    +0.000 C 
ATOM     20  C   UNL     1       0.470   1.238   0.000  0.00  0.00    +0.000 C 
ENDBRANCH  14  17
ENDBRANCH   4   7
BRANCH   1  26
ATOM     21  C   UNL     1       4.737   4.888   0.000  0.00  0.00    +0.000 C 
ATOM     22  C   UNL     1       5.073   5.642   0.000  0.00  0.00    +0.000 C 
ATOM     23  C   UNL     1       5.893   5.728   0.000  0.00  0.00    +0.000 C 
ATOM     24  C   UNL     1       6.378   5.061   0.000  0.00  0.00    +0.000 C 
ATOM     25  C   UNL     1       6.043   4.307   0.000  0.00  0.00    +0.000 C 
ATOM     26  C   UNL     1       5.222   4.221   0.000  0.00  0.00    +0.000 C 
BRANCH  21  30
ATOM     27  C   UNL     1       3.767   6.223   0.000  0.00  0.00    +0.000 C 
ATOM     28  C   UNL     1       3.432   5.469   0.000  0.00  0.00    +0.000 C 
ATOM     29  O   UNL     1       2.611   5.383   0.000  0.00  0.00    +0.000 OA
ATOM     30  N   UNL     1       3.917   4.802   0.000  0.00  0.00    +0.000 NA
ENDBRANCH  21  30
BRANCH  23  31
ATOM     31  N   UNL     1       6.229   6.482   0.000  0.00  0.00    +0.000 NA
BRANCH  31  32
ATOM     32  C   UNL     1       5.744   7.149   0.000  0.00  0.00    +0.000 C 
ATOM     33  C   UNL     1       5.259   7.817   0.000  0.00  0.00    +0.000 C 
ATOM     34  C   UNL     1       6.411   7.634   0.000  0.00  0.00    +0.000 C 
ATOM     35  C   UNL     1       5.077   6.664   0.000  0.00  0.00    +0.000 C 
ENDBRANCH  31  32
ENDBRANCH  23  31
ENDBRANCH   1  26
TORSDOF 6
