REMARK  Name = 
REMARK  5 active torsions:
REMARK  status: ('A' for Active; 'I' for Inactive)
REMARK    1  A    between atoms: C_2  and  C_3
REMARK    2  A    between atoms: C_2  and  N_13
REMARK    3  A    between atoms: C_3  and  N_4
REMARK    4  A    between atoms: C_5  and  C_7
REMARK    5  A    between atoms: C_14  and  C_16
REMARK                            x       y       z     vdW  Elec       q    Type
REMARK                         _______ _______ _______ _____ _____    ______ ____
ROOT
ATOM      1  C   UNL     1       3.572  -2.888   0.000  0.00  0.00    +0.000 C 
ATOM      2  C   UNL     1       3.572  -3.712   0.000  0.00  0.00    +0.000 C 
ENDROOT
BRANCH   2   3
ATOM      3  N   UNL     1       4.287  -4.125   0.000  0.00  0.00    +0.000 NA
ATOM      4  C   UNL     1       5.001  -3.712   0.000  0.00  0.00    +0.000 C 
ATOM      5  O   UNL     1       5.001  -2.888   0.000  0.00  0.00    +0.000 OA
BRANCH   4   6
ATOM      6  C   UNL     1       5.716  -4.125   0.000  0.00  0.00    +0.000 A 
ATOM      7  C   UNL     1       6.430  -3.712   0.000  0.00  0.00    +0.000 A 
ATOM      8  C   UNL     1       7.145  -4.125   0.000  0.00  0.00    +0.000 A 
ATOM      9  C   UNL     1       7.145  -4.950   0.000  0.00  0.00    +0.000 A 
ATOM     10  N   UNL     1       6.430  -5.362   0.000  0.00  0.00    +0.000 NA
ATOM     11  C   UNL     1       5.716  -4.950   0.000  0.00  0.00    +0.000 A 
ENDBRANCH   4   6
ENDBRANCH   2   3
BRANCH   2  12
ATOM     12  C   UNL     1       2.858  -4.125   0.000  0.00  0.00    +0.000 C 
BRANCH  12  13
ATOM     13  N   UNL     1       2.143  -3.712   0.000  0.00  0.00    +0.000 NA
ATOM     14  C   UNL     1       1.429  -4.125   0.000  0.00  0.00    +0.000 C 
ATOM     15  O   UNL     1       1.429  -4.950   0.000  0.00  0.00    +0.000 OA
BRANCH  14  16
ATOM     16  C   UNL     1       0.715  -3.712   0.000  0.00  0.00    +0.000 A 
ATOM     17  C   UNL     1       0.000  -4.125   0.000  0.00  0.00    +0.000 A 
ATOM     18  C   UNL     1      -0.715  -3.712   0.000  0.00  0.00    +0.000 A 
ATOM     19  C   UNL     1      -0.715  -2.888   0.000  0.00  0.00    +0.000 A 
ATOM     20  N   UNL     1       0.000  -2.475   0.000  0.00  0.00    +0.000 NA
ATOM     21  C   UNL     1       0.715  -2.888   0.000  0.00  0.00    +0.000 A 
ENDBRANCH  14  16
ENDBRANCH  12  13
ENDBRANCH   2  12
TORSDOF 5
