REMARK  Name = 
REMARK  44 active torsions:
REMARK  status: ('A' for Active; 'I' for Inactive)
REMARK    1  A    between atoms: O_1  and  C_2
REMARK    2  A    between atoms: O_1  and  C_29
REMARK    3  A    between atoms: C_6  and  C_11
REMARK    4  A    between atoms: C_13  and  C_14
REMARK    5  A    between atoms: C_13  and  C_24
REMARK    6  A    between atoms: C_14  and  C_23
REMARK    7  A    between atoms: C_15  and  C_25
REMARK    8  A    between atoms: C_16  and  C_17
REMARK    9  A    between atoms: C_16  and  C_26
REMARK   10  A    between atoms: C_17  and  C_18
REMARK   11  A    between atoms: C_18  and  C_19
REMARK   12  A    between atoms: C_19  and  C_20
REMARK   13  A    between atoms: C_20  and  C_21
REMARK   14  A    between atoms: C_21  and  C_22
REMARK   15  A    between atoms: C_22  and  C_23
REMARK   16  A    between atoms: C_24  and  C_25
REMARK   17  A    between atoms: C_26  and  C_27
REMARK   18  A    between atoms: C_27  and  C_28
REMARK   19  A    between atoms: C_28  and  C_29
REMARK   20  A    between atoms: C_28  and  N_32
REMARK   21  A    between atoms: C_33  and  C_34
REMARK   22  A    between atoms: C_34  and  C_54
REMARK   23  A    between atoms: C_35  and  C_36
REMARK   24  A    between atoms: C_35  and  C_60
REMARK   25  A    between atoms: C_36  and  C_37
REMARK   26  A    between atoms: C_37  and  C_38
REMARK   27  A    between atoms: C_38  and  C_39
REMARK   28  A    between atoms: C_39  and  C_40
REMARK   29  A    between atoms: C_40  and  C_41
REMARK   30  A    between atoms: C_41  and  C_42
REMARK   31  A    between atoms: C_44  and  C_45
REMARK   32  A    between atoms: C_44  and  C_57
REMARK   33  A    between atoms: C_45  and  C_46
REMARK   34  A    between atoms: C_46  and  C_47
REMARK   35  A    between atoms: C_47  and  C_48
REMARK   36  A    between atoms: C_48  and  C_49
REMARK   37  A    between atoms: C_49  and  C_50
REMARK   38  A    between atoms: C_50  and  C_51
REMARK   39  A    between atoms: C_51  and  C_52
REMARK   40  A    between atoms: C_52  and  C_53
REMARK   41  A    between atoms: C_53  and  C_54
REMARK   42  A    between atoms: C_57  and  C_58
REMARK   43  A    between atoms: C_58  and  C_59
REMARK   44  A    between atoms: C_59  and  C_60
REMARK                            x       y       z     vdW  Elec       q    Type
REMARK                         _______ _______ _______ _____ _____    ______ ____
ROOT
ATOM      1  C   UNL     1       1.783   0.038   0.000  0.00  0.00    +0.000 C 
ENDROOT
BRANCH   1   2
ATOM      2  N   UNL     1       1.800   0.863   0.000  0.00  0.00    +0.000 NA
ATOM      3  C   UNL     1       1.076   1.258   0.000  0.00  0.00    +0.000 C 
ATOM      4  O   UNL     1       1.056   2.083   0.000  0.00  0.00    +0.000 OA
BRANCH   3   5
ATOM      5  C   UNL     1       0.372   0.828   0.000  0.00  0.00    +0.000 C 
BRANCH   5   6
ATOM      6  C   UNL     1      -0.352   1.222   0.000  0.00  0.00    +0.000 C 
BRANCH   6   7
ATOM      7  C   UNL     1      -1.056   0.792   0.000  0.00  0.00    +0.000 C 
BRANCH   7   8
ATOM      8  C   UNL     1      -1.781   1.187   0.000  0.00  0.00    +0.000 C 
BRANCH   8   9
ATOM      9  C   UNL     1      -2.485   0.757   0.000  0.00  0.00    +0.000 C 
BRANCH   9  10
ATOM     10  C   UNL     1      -3.209   1.152   0.000  0.00  0.00    +0.000 C 
BRANCH  10  11
ATOM     11  C   UNL     1      -3.913   0.722   0.000  0.00  0.00    +0.000 C 
BRANCH  11  12
ATOM     12  C   UNL     1      -4.638   1.117   0.000  0.00  0.00    +0.000 C 
BRANCH  12  13
ATOM     13  C   UNL     1      -5.342   0.687   0.000  0.00  0.00    +0.000 C 
BRANCH  13  14
ATOM     14  C   UNL     1      -6.066   1.082   0.000  0.00  0.00    +0.000 C 
BRANCH  14  15
ATOM     15  C   UNL     1      -6.771   0.652   0.000  0.00  0.00    +0.000 C 
BRANCH  15  16
ATOM     16  C   UNL     1      -7.495   1.046   0.000  0.00  0.00    +0.000 C 
BRANCH  16  17
ATOM     17  C   UNL     1      -8.199   0.616   0.000  0.00  0.00    +0.000 C 
BRANCH  17  18
ATOM     18  C   UNL     1      -8.924   1.011   0.000  0.00  0.00    +0.000 C 
BRANCH  18  19
ATOM     19  C   UNL     1      -8.944   1.836   0.000  0.00  0.00    +0.000 C 
BRANCH  19  20
ATOM     20  C   UNL     1      -8.240   2.266   0.000  0.00  0.00    +0.000 C 
BRANCH  20  21
ATOM     21  C   UNL     1      -7.516   1.871   0.000  0.00  0.00    +0.000 C 
BRANCH  21  22
ATOM     22  C   UNL     1      -6.811   2.301   0.000  0.00  0.00    +0.000 C 
BRANCH  22  23
ATOM     23  C   UNL     1      -6.087   1.906   0.000  0.00  0.00    +0.000 C 
BRANCH  23  24
ATOM     24  C   UNL     1      -5.383   2.337   0.000  0.00  0.00    +0.000 C 
BRANCH  24  25
ATOM     25  C   UNL     1      -4.659   1.942   0.000  0.00  0.00    +0.000 C 
BRANCH  25  26
ATOM     26  C   UNL     1      -3.954   2.372   0.000  0.00  0.00    +0.000 C 
BRANCH  26  27
ATOM     27  C   UNL     1      -3.230   1.977   0.000  0.00  0.00    +0.000 C 
BRANCH  27  28
ATOM     28  C   UNL     1      -2.526   2.407   0.000  0.00  0.00    +0.000 C 
ATOM     29  C   UNL     1      -1.801   2.012   0.000  0.00  0.00    +0.000 C 
ENDBRANCH  27  28
ENDBRANCH  26  27
ENDBRANCH  25  26
ENDBRANCH  24  25
ENDBRANCH  23  24
ENDBRANCH  22  23
ENDBRANCH  21  22
ENDBRANCH  20  21
ENDBRANCH  19  20
ENDBRANCH  18  19
ENDBRANCH  17  18
ENDBRANCH  16  17
ENDBRANCH  15  16
ENDBRANCH  14  15
ENDBRANCH  13  14
ENDBRANCH  12  13
ENDBRANCH  11  12
ENDBRANCH  10  11
ENDBRANCH   9  10
ENDBRANCH   8   9
ENDBRANCH   7   8
ENDBRANCH   6   7
ENDBRANCH   5   6
ENDBRANCH   3   5
ENDBRANCH   1   2
BRANCH   1  30
ATOM     30  C   UNL     1       2.489  -0.389   0.000  0.00  0.00    +0.000 C 
ATOM     31  O   UNL     1       2.472  -1.214   0.000  0.00  0.00    +0.000 OA
BRANCH  30  32
ATOM     32  C   UNL     1       3.212   0.008   0.000  0.00  0.00    +0.000 C 
ATOM     33  O   UNL     1       3.229   0.833   0.000  0.00  0.00    +0.000 OA
BRANCH  32  34
ATOM     34  C   UNL     1       3.918  -0.419   0.000  0.00  0.00    +0.000 C 
BRANCH  34  35
ATOM     35  C   UNL     1       4.641  -0.021   0.000  0.00  0.00    +0.000 C 
BRANCH  35  36
ATOM     36  C   UNL     1       5.346  -0.449   0.000  0.00  0.00    +0.000 C 
BRANCH  36  37
ATOM     37  C   UNL     1       6.069  -0.051   0.000  0.00  0.00    +0.000 C 
BRANCH  37  38
ATOM     38  C   UNL     1       6.775  -0.479   0.000  0.00  0.00    +0.000 C 
BRANCH  38  39
ATOM     39  C   UNL     1       7.498  -0.081   0.000  0.00  0.00    +0.000 C 
BRANCH  39  40
ATOM     40  C   UNL     1       8.204  -0.508   0.000  0.00  0.00    +0.000 C 
BRANCH  40  41
ATOM     41  C   UNL     1       8.927  -0.111   0.000  0.00  0.00    +0.000 C 
BRANCH  41  42
ATOM     42  C   UNL     1       8.944   0.714   0.000  0.00  0.00    +0.000 C 
BRANCH  42  43
ATOM     43  C   UNL     1       8.238   1.141   0.000  0.00  0.00    +0.000 C 
BRANCH  43  44
ATOM     44  C   UNL     1       7.515   0.744   0.000  0.00  0.00    +0.000 C 
BRANCH  44  45
ATOM     45  C   UNL     1       6.809   1.171   0.000  0.00  0.00    +0.000 C 
BRANCH  45  46
ATOM     46  C   UNL     1       6.087   0.773   0.000  0.00  0.00    +0.000 C 
ATOM     47  C   UNL     1       5.381   1.200   0.000  0.00  0.00    +0.000 C 
ENDBRANCH  45  46
ENDBRANCH  44  45
ENDBRANCH  43  44
ENDBRANCH  42  43
ENDBRANCH  41  42
ENDBRANCH  40  41
ENDBRANCH  39  40
ENDBRANCH  38  39
ENDBRANCH  37  38
ENDBRANCH  36  37
ENDBRANCH  35  36
ENDBRANCH  34  35
ENDBRANCH  32  34
ENDBRANCH  30  32
ENDBRANCH   1  30
BRANCH   1  48
ATOM     48  C   UNL     1       1.060  -0.359   0.000  0.00  0.00    +0.000 C 
BRANCH  48  49
ATOM     49  O   UNL     1       0.355   0.068   0.000  0.00  0.00    +0.000 OA
BRANCH  49  50
ATOM     50  C   UNL     1      -0.360  -0.344   0.000  0.00  0.00    +0.000 C 
ATOM     51  C   UNL     1      -0.360  -1.169   0.000  0.00  0.00    +0.000 C 
ATOM     52  O   UNL     1      -1.074   0.068   0.000  0.00  0.00    +0.000 OA
ATOM     53  C   UNL     1      -1.074  -1.582   0.000  0.00  0.00    +0.000 C 
ATOM     54  C   UNL     1      -1.789  -0.344   0.000  0.00  0.00    +0.000 C 
ATOM     55  C   UNL     1      -1.789  -1.169   0.000  0.00  0.00    +0.000 C 
ATOM     56  O   UNL     1       0.355  -1.582   0.000  0.00  0.00    +0.000 OA
ATOM     57  O   UNL     1      -1.074  -2.407   0.000  0.00  0.00    +0.000 OA
ATOM     58  O   UNL     1      -2.503  -1.582   0.000  0.00  0.00    +0.000 OA
BRANCH  54  59
ATOM     59  C   UNL     1      -2.503   0.068   0.000  0.00  0.00    +0.000 C 
ATOM     60  O   UNL     1      -3.218  -0.344   0.000  0.00  0.00    +0.000 OA
ENDBRANCH  54  59
ENDBRANCH  49  50
ENDBRANCH  48  49
ENDBRANCH   1  48
TORSDOF 44
