REMARK  Name = 
REMARK  1 active torsions:
REMARK  status: ('A' for Active; 'I' for Inactive)
REMARK    1  A    between atoms: C_3  and  C_7
REMARK                            x       y       z     vdW  Elec       q    Type
REMARK                         _______ _______ _______ _____ _____    ______ ____
ROOT
ATOM      1  C   UNL     1      -1.067   0.616   0.000  0.00  0.00    +0.000 C 
ATOM      2  C   UNL     1      -1.067  -0.209   0.000  0.00  0.00    +0.000 C 
ATOM      3  C   UNL     1      -0.354  -0.620   0.000  0.00  0.00    +0.000 C 
ATOM      4  C   UNL     1       0.355  -0.209   0.000  0.00  0.00    +0.000 C 
ATOM      5  C   UNL     1       0.355   0.616   0.000  0.00  0.00    +0.000 C 
ATOM      6  C   UNL     1      -0.354   1.031   0.000  0.00  0.00    +0.000 C 
ATOM      7  C   UNL     1      -0.354   1.856   0.000  0.00  0.00    +0.000 C 
ATOM      8  O   UNL     1       1.069  -0.625   0.000  0.00  0.00    +0.000 OA
ENDROOT
BRANCH   3   9
ATOM      9  C   UNL     1      -0.354  -1.446   0.000  0.00  0.00    +0.000 C 
ATOM     10  C   UNL     1      -1.069  -1.856   0.000  0.00  0.00    +0.000 C 
ATOM     11  C   UNL     1       0.357  -1.856   0.000  0.00  0.00    +0.000 C 
ENDBRANCH   3   9
TORSDOF 1
