REMARK  Name = 
REMARK  7 active torsions:
REMARK  status: ('A' for Active; 'I' for Inactive)
REMARK    1  A    between atoms: C_2  and  C_4
REMARK    2  A    between atoms: C_4  and  N_5
REMARK    3  A    between atoms: C_4  and  C_6
REMARK    4  A    between atoms: C_9  and  C_10
REMARK    5  A    between atoms: C_17  and  N_18
REMARK    6  A    between atoms: N_22  and  C_23
REMARK    7  A    between atoms: C_23  and  C_24
REMARK                            x       y       z     vdW  Elec       q    Type
REMARK                         _______ _______ _______ _____ _____    ______ ____
ROOT
ATOM      1  C   UNL     1       1.338   0.084   0.000  0.00  0.00    +0.000 C 
ATOM      2  N   UNL     1       0.620   0.491   0.000  0.00  0.00    +0.000 NA
ATOM      3  C   UNL     1       0.023  -0.068   0.000  0.00  0.00    +0.000 C 
ATOM      4  C   UNL     1      -0.785   0.099   0.000  0.00  0.00    +0.000 C 
ATOM      5  C   UNL     1       0.353  -0.816   0.000  0.00  0.00    +0.000 C 
ATOM      6  O   UNL     1       0.024  -1.388   0.000  0.00  0.00    +0.000 OA
ATOM      7  N   UNL     1       1.172  -0.724   0.000  0.00  0.00    +0.000 N 
ENDROOT
BRANCH   4   8
ATOM      8  C   UNL     1      -1.044   0.881   0.000  0.00  0.00    +0.000 A 
ATOM      9  C   UNL     1      -0.563   1.553   0.000  0.00  0.00    +0.000 A 
ATOM     10  N   UNL     1      -1.044   2.205   0.000  0.00  0.00    +0.000 N 
ATOM     11  C   UNL     1      -1.826   1.954   0.000  0.00  0.00    +0.000 A 
ATOM     12  C   UNL     1      -2.538   2.375   0.000  0.00  0.00    +0.000 A 
ATOM     13  C   UNL     1      -3.260   1.954   0.000  0.00  0.00    +0.000 A 
ATOM     14  C   UNL     1      -3.260   1.132   0.000  0.00  0.00    +0.000 A 
ATOM     15  C   UNL     1      -2.538   0.711   0.000  0.00  0.00    +0.000 A 
ATOM     16  C   UNL     1      -1.826   1.132   0.000  0.00  0.00    +0.000 A 
ATOM     17  H   UNL     1      -0.875   2.728   0.000  0.00  0.00    +0.000 HD
BRANCH  15  18
ATOM     18  N   UNL     1      -2.535  -0.114   0.000  0.00  0.00    +0.000 N 
ATOM     19  H   UNL     1      -3.010  -0.391   0.000  0.00  0.00    +0.000 HD
ATOM     20  H   UNL     1      -2.058  -0.387   0.000  0.00  0.00    +0.000 HD
ENDBRANCH  15  18
ENDBRANCH   4   8
BRANCH   1  21
ATOM     21  C   UNL     1       2.088   0.425   0.000  0.00  0.00    +0.000 C 
BRANCH  21  22
ATOM     22  N   UNL     1       2.759  -0.055   0.000  0.00  0.00    +0.000 NA
ATOM     23  H   UNL     1       3.260   0.172   0.000  0.00  0.00    +0.000 HD
ATOM     24  H   UNL     1       2.705  -0.603   0.000  0.00  0.00    +0.000 HD
ENDBRANCH  21  22
BRANCH  21  26
ATOM     25  C   UNL     1       2.920   1.588   0.000  0.00  0.00    +0.000 C 
ATOM     26  C   UNL     1       2.168   1.246   0.000  0.00  0.00    +0.000 C 
ATOM     27  O   UNL     1       1.497   1.726   0.000  0.00  0.00    +0.000 OA
ENDBRANCH  21  26
ENDBRANCH   1  21
BRANCH   7  28
ATOM     28  C   UNL     1       1.728  -1.332   0.000  0.00  0.00    +0.000 C 
BRANCH  28  29
ATOM     29  C   UNL     1       1.480  -2.119   0.000  0.00  0.00    +0.000 C 
ATOM     30  O   UNL     1       0.943  -2.237   0.000  0.00  0.00    +0.000 OA
ATOM     31  O   UNL     1       2.036  -2.728   0.000  0.00  0.00    +0.000 OA
ENDBRANCH  28  29
ENDBRANCH   7  28
TORSDOF 7
