REMARK  Name = 
REMARK  7 active torsions:
REMARK  status: ('A' for Active; 'I' for Inactive)
REMARK    1  A    between atoms: C_5  and  N_36
REMARK    2  A    between atoms: C_6  and  C_7
REMARK    3  A    between atoms: C_7  and  N_8
REMARK    4  A    between atoms: N_8  and  C_11
REMARK    5  A    between atoms: C_11  and  C_12
REMARK    6  A    between atoms: C_13  and  C_14
REMARK    7  A    between atoms: N_25  and  C_26
REMARK                            x       y       z     vdW  Elec       q    Type
REMARK                         _______ _______ _______ _____ _____    ______ ____
ROOT
ATOM      1  C   UNL     1      -0.715  -1.238   0.000  0.00  0.00    +0.000 C 
ATOM      2  O   UNL     1      -0.715  -0.412   0.000  0.00  0.00    +0.000 OA
ATOM      3  N   UNL     1       0.000  -1.650   0.000  0.00  0.00    +0.000 NA
ATOM      4  C   UNL     1       0.715  -1.238   0.000  0.00  0.00    +0.000 A 
ATOM      5  N   UNL     1       0.715  -0.412   0.000  0.00  0.00    +0.000 NA
ATOM      6  C   UNL     1       1.429   0.000   0.000  0.00  0.00    +0.000 A 
ATOM      7  C   UNL     1       2.143  -0.412   0.000  0.00  0.00    +0.000 A 
ATOM      8  N   UNL     1       2.858   0.000   0.000  0.00  0.00    +0.000 NA
ATOM      9  C   UNL     1       3.572  -0.412   0.000  0.00  0.00    +0.000 A 
ATOM     10  N   UNL     1       3.572  -1.238   0.000  0.00  0.00    +0.000 NA
ATOM     11  C   UNL     1       2.858  -1.650   0.000  0.00  0.00    +0.000 A 
ATOM     12  N   UNL     1       2.858  -2.475   0.000  0.00  0.00    +0.000 NA
ATOM     13  C   UNL     1       2.143  -1.238   0.000  0.00  0.00    +0.000 A 
ATOM     14  C   UNL     1       1.429  -1.650   0.000  0.00  0.00    +0.000 A 
ENDROOT
BRANCH  12  15
ATOM     15  C   UNL     1       3.572  -2.888   0.000  0.00  0.00    +0.000 A 
ATOM     16  C   UNL     1       4.287  -2.475   0.000  0.00  0.00    +0.000 A 
ATOM     17  C   UNL     1       5.001  -2.888   0.000  0.00  0.00    +0.000 A 
ATOM     18 BR   UNL     1       5.716  -2.475   0.000  0.00  0.00    +0.000 Br
ATOM     19  C   UNL     1       5.001  -3.712   0.000  0.00  0.00    +0.000 A 
ATOM     20 CL   UNL     1       5.716  -4.125   0.000  0.00  0.00    +0.000 Cl
ATOM     21  C   UNL     1       4.287  -4.125   0.000  0.00  0.00    +0.000 A 
ATOM     22  C   UNL     1       3.572  -3.712   0.000  0.00  0.00    +0.000 A 
ENDBRANCH  12  15
BRANCH   1  24
ATOM     23  C   UNL     1      -2.143  -1.238   0.000  0.00  0.00    +0.000 C 
ATOM     24  C   UNL     1      -1.429  -1.650   0.000  0.00  0.00    +0.000 C 
BRANCH  23  25
ATOM     25  C   UNL     1      -2.858  -1.650   0.000  0.00  0.00    +0.000 C 
BRANCH  25  26
ATOM     26  N   UNL     1      -3.572  -1.238   0.000  0.00  0.00    +0.000 N 
ATOM     27  C   UNL     1      -3.160  -0.523   0.000  0.00  0.00    +0.000 C 
ATOM     28  C   UNL     1      -3.985  -1.952   0.000  0.00  0.00    +0.000 C 
BRANCH  26  29
ATOM     29  C   UNL     1      -4.287  -0.825   0.000  0.00  0.00    +0.000 C 
BRANCH  29  35
ATOM     30  C   UNL     1      -4.474  -2.610   0.000  0.00  0.00    +0.000 C 
ATOM     31  N   UNL     1      -5.088  -2.058   0.000  0.00  0.00    +0.000 N 
ATOM     32  C   UNL     1      -5.894  -2.229   0.000  0.00  0.00    +0.000 A 
ATOM     33  N   UNL     1      -6.307  -1.515   0.000  0.00  0.00    +0.000 NA
ATOM     34  C   UNL     1      -5.755  -0.902   0.000  0.00  0.00    +0.000 A 
ATOM     35  C   UNL     1      -5.001  -1.238   0.000  0.00  0.00    +0.000 A 
BRANCH  34  36
ATOM     36  N   UNL     1      -5.926  -0.095   0.000  0.00  0.00    +0.000 N 
ATOM     37  O   UNL     1      -6.711   0.160   0.000  0.00  0.00    +0.000 OA
ATOM     38  O   UNL     1      -5.313   0.457   0.000  0.00  0.00    +0.000 OA
ENDBRANCH  34  36
ENDBRANCH  29  35
ENDBRANCH  26  29
ENDBRANCH  25  26
ENDBRANCH  23  25
ENDBRANCH   1  24
TORSDOF 7
