REMARK  Name = 
REMARK  8 active torsions:
REMARK  status: ('A' for Active; 'I' for Inactive)
REMARK    1  A    between atoms: C_2  and  O_7
REMARK    2  A    between atoms: C_5  and  C_8
REMARK    3  A    between atoms: O_7  and  C_18
REMARK    4  A    between atoms: C_8  and  C_9
REMARK    5  A    between atoms: C_14  and  O_17
REMARK    6  A    between atoms: O_17  and  C_19
REMARK    7  A    between atoms: C_18  and  C_20
REMARK    8  A    between atoms: C_19  and  C_21
REMARK                            x       y       z     vdW  Elec       q    Type
REMARK                         _______ _______ _______ _____ _____    ______ ____
ROOT
ATOM      1  C   UNL     1       0.021   1.052   0.000  0.00  0.00    +0.000 C 
ATOM      2  C   UNL     1      -0.722   1.464   0.000  0.00  0.00    +0.000 C 
ATOM      3  C   UNL     1       0.722   1.464   0.000  0.00  0.00    +0.000 C 
ENDROOT
BRANCH   1   8
ATOM      4  C   UNL     1      -2.125   0.639   0.000  0.00  0.00    +0.000 A 
ATOM      5  C   UNL     1      -2.125  -0.186   0.000  0.00  0.00    +0.000 A 
ATOM      6  C   UNL     1      -1.423  -0.598   0.000  0.00  0.00    +0.000 A 
ATOM      7  C   UNL     1      -0.722  -0.186   0.000  0.00  0.00    +0.000 A 
ATOM      8  C   UNL     1      -0.722   0.639   0.000  0.00  0.00    +0.000 A 
ATOM      9  C   UNL     1      -1.423   1.052   0.000  0.00  0.00    +0.000 A 
BRANCH   5  10
ATOM     10  O   UNL     1      -2.867  -0.557   0.000  0.00  0.00    +0.000 OA
BRANCH  10  11
ATOM     11  C   UNL     1      -3.569  -0.144   0.000  0.00  0.00    +0.000 C 
BRANCH  11  12
ATOM     12  C   UNL     1      -4.286  -0.551   0.000  0.00  0.00    +0.000 C 
ATOM     13  C   UNL     1      -5.095  -0.557   0.000  0.00  0.00    +0.000 C 
ATOM     14  O   UNL     1      -4.641  -1.382   0.000  0.00  0.00    +0.000 OA
ENDBRANCH  11  12
ENDBRANCH  10  11
ENDBRANCH   5  10
ENDBRANCH   1   8
BRANCH   1  15
ATOM     15  C   UNL     1       0.722   0.639   0.000  0.00  0.00    +0.000 A 
ATOM     16  C   UNL     1       0.722  -0.186   0.000  0.00  0.00    +0.000 A 
ATOM     17  C   UNL     1       1.423  -0.598   0.000  0.00  0.00    +0.000 A 
ATOM     18  C   UNL     1       2.166  -0.186   0.000  0.00  0.00    +0.000 A 
ATOM     19  C   UNL     1       2.166   0.639   0.000  0.00  0.00    +0.000 A 
ATOM     20  C   UNL     1       1.423   1.052   0.000  0.00  0.00    +0.000 A 
BRANCH  18  21
ATOM     21  O   UNL     1       2.867  -0.598   0.000  0.00  0.00    +0.000 OA
BRANCH  21  22
ATOM     22  C   UNL     1       3.569  -0.186   0.000  0.00  0.00    +0.000 C 
BRANCH  22  23
ATOM     23  C   UNL     1       4.286  -0.592   0.000  0.00  0.00    +0.000 C 
ATOM     24  O   UNL     1       4.682  -1.464   0.000  0.00  0.00    +0.000 OA
ATOM     25  C   UNL     1       5.095  -0.598   0.000  0.00  0.00    +0.000 C 
ENDBRANCH  22  23
ENDBRANCH  21  22
ENDBRANCH  18  21
ENDBRANCH   1  15
TORSDOF 8
