REMARK  Name = 
REMARK  0 active torsions:
REMARK  status: ('A' for Active; 'I' for Inactive)
REMARK                            x       y       z     vdW  Elec       q    Type
REMARK                         _______ _______ _______ _____ _____    ______ ____
ROOT
ATOM      1 CR   UNL     1       0.000   0.000   0.000  0.00  0.00    +0.000 Cr
ENDROOT
TORSDOF 0
REMARK  Name = 
REMARK  0 active torsions:
REMARK  status: ('A' for Active; 'I' for Inactive)
REMARK                            x       y       z     vdW  Elec       q    Type
REMARK                         _______ _______ _______ _____ _____    ______ ____
ROOT
ATOM      1  O   UNL     1       3.241   0.715   0.000  0.00  0.00    +0.000 OA
ATOM      2  N   UNL     1       2.829   0.000   0.000  0.00  0.00    +0.000 N 
ATOM      3  O   UNL     1       3.241  -0.715   0.000  0.00  0.00    +0.000 OA
ATOM      4  O   UNL     1       2.004   0.000   0.000  0.00  0.00    +0.000 OA
ENDROOT
TORSDOF 0
REMARK  Name = 
REMARK  0 active torsions:
REMARK  status: ('A' for Active; 'I' for Inactive)
REMARK                            x       y       z     vdW  Elec       q    Type
REMARK                         _______ _______ _______ _____ _____    ______ ____
ROOT
ATOM      1  O   UNL     1       0.412  -2.365   0.000  0.00  0.00    +0.000 OA
ATOM      2  N   UNL     1       0.000  -3.079   0.000  0.00  0.00    +0.000 N 
ATOM      3  O   UNL     1       0.412  -3.793   0.000  0.00  0.00    +0.000 OA
ATOM      4  O   UNL     1      -0.825  -3.079   0.000  0.00  0.00    +0.000 OA
ENDROOT
TORSDOF 0
REMARK  Name = 
REMARK  0 active torsions:
REMARK  status: ('A' for Active; 'I' for Inactive)
REMARK                            x       y       z     vdW  Elec       q    Type
REMARK                         _______ _______ _______ _____ _____    ______ ____
ROOT
ATOM      1  O   UNL     1       3.654  -2.365   0.000  0.00  0.00    +0.000 OA
ATOM      2  N   UNL     1       3.241  -3.079   0.000  0.00  0.00    +0.000 N 
ATOM      3  O   UNL     1       3.654  -3.793   0.000  0.00  0.00    +0.000 OA
ATOM      4  O   UNL     1       2.416  -3.079   0.000  0.00  0.00    +0.000 OA
ENDROOT
TORSDOF 0
