REMARK  Name = 
REMARK  0 active torsions:
REMARK  status: ('A' for Active; 'I' for Inactive)
REMARK                            x       y       z     vdW  Elec       q    Type
REMARK                         _______ _______ _______ _____ _____    ______ ____
ROOT
ATOM      1  C   UNL     1       4.781   1.110   0.000  0.00  0.00    +0.000 C 
ATOM      2  C   UNL     1       4.781   1.935   0.000  0.00  0.00    +0.000 C 
ATOM      3  C   UNL     1       4.067   2.348   0.000  0.00  0.00    +0.000 C 
ATOM      4  C   UNL     1       3.352   1.935   0.000  0.00  0.00    +0.000 A 
ATOM      5  C   UNL     1       3.352   1.110   0.000  0.00  0.00    +0.000 A 
ATOM      6  C   UNL     1       2.638   0.698   0.000  0.00  0.00    +0.000 A 
ATOM      7  C   UNL     1       1.923   1.110   0.000  0.00  0.00    +0.000 A 
ATOM      8  C   UNL     1       1.923   1.935   0.000  0.00  0.00    +0.000 A 
ATOM      9  N   UNL     1       2.638   2.348   0.000  0.00  0.00    +0.000 NA
ATOM     10  C   UNL     1       1.139   2.190   0.000  0.00  0.00    +0.000 C 
ATOM     11  C   UNL     1       0.654   1.523   0.000  0.00  0.00    +0.000 C 
ATOM     12  C   UNL     1       1.139   0.856   0.000  0.00  0.00    +0.000 C 
ATOM     13  N   UNL     1       2.638  -0.127   0.000  0.00  0.00    +0.000 NA
ATOM     14  C   UNL     1       4.067   0.698   0.000  0.00  0.00    +0.000 C 
ENDROOT
TORSDOF 0
