REMARK  Name = 
REMARK  6 active torsions:
REMARK  status: ('A' for Active; 'I' for Inactive)
REMARK    1  A    between atoms: N_2  and  C_3
REMARK    2  A    between atoms: N_2  and  C_16
REMARK    3  A    between atoms: C_3  and  C_4
REMARK    4  A    between atoms: C_7  and  C_8
REMARK    5  A    between atoms: C_9  and  C_10
REMARK    6  A    between atoms: C_16  and  C_17
REMARK                            x       y       z     vdW  Elec       q    Type
REMARK                         _______ _______ _______ _____ _____    ______ ____
ROOT
ATOM      1  C   UNL     1       1.566  -3.721   0.000  0.00  0.00    +0.000 C 
ATOM      2  N   UNL     1       1.566  -2.896   0.000  0.00  0.00    +0.000 NA
ENDROOT
BRANCH   2   3
ATOM      3  C   UNL     1       2.281  -2.483   0.000  0.00  0.00    +0.000 C 
BRANCH   3   4
ATOM      4  C   UNL     1       2.995  -2.896   0.000  0.00  0.00    +0.000 A 
ATOM      5  C   UNL     1       3.710  -2.483   0.000  0.00  0.00    +0.000 A 
ATOM      6  C   UNL     1       4.424  -2.896   0.000  0.00  0.00    +0.000 A 
ATOM      7  C   UNL     1       4.424  -3.721   0.000  0.00  0.00    +0.000 A 
ATOM      8  C   UNL     1       3.710  -4.133   0.000  0.00  0.00    +0.000 A 
ATOM      9  C   UNL     1       2.995  -3.721   0.000  0.00  0.00    +0.000 A 
BRANCH   7  10
ATOM     10  C   UNL     1       5.139  -4.133   0.000  0.00  0.00    +0.000 C 
ATOM     11  C   UNL     1       5.139  -4.958   0.000  0.00  0.00    +0.000 C 
BRANCH  11  12
ATOM     12  C   UNL     1       5.853  -5.371   0.000  0.00  0.00    +0.000 C 
ATOM     13  O   UNL     1       6.568  -4.958   0.000  0.00  0.00    +0.000 OA
ATOM     14  N   UNL     1       5.853  -6.196   0.000  0.00  0.00    +0.000 NA
ATOM     15  O   UNL     1       6.568  -6.608   0.000  0.00  0.00    +0.000 OA
ENDBRANCH  11  12
ENDBRANCH   7  10
ENDBRANCH   3   4
ENDBRANCH   2   3
BRANCH   2  16
ATOM     16  C   UNL     1       0.852  -2.483   0.000  0.00  0.00    +0.000 C 
BRANCH  16  17
ATOM     17  C   UNL     1       0.852  -1.659   0.000  0.00  0.00    +0.000 C 
ATOM     18  C   UNL     1       0.116  -2.032   0.000  0.00  0.00    +0.000 C 
ATOM     19  C   UNL     1       0.566  -1.242   0.000  0.00  0.00    +0.000 C 
ATOM     20  C   UNL     1       0.566  -0.494   0.000  0.00  0.00    +0.000 C 
ATOM     21  C   UNL     1       1.301  -0.121   0.000  0.00  0.00    +0.000 C 
ATOM     22  C   UNL     1       2.037  -0.494   0.000  0.00  0.00    +0.000 C 
ATOM     23  C   UNL     1       2.037  -1.242   0.000  0.00  0.00    +0.000 C 
ATOM     24  C   UNL     1       1.301  -1.616   0.000  0.00  0.00    +0.000 C 
ATOM     25  C   UNL     1       1.587  -2.032   0.000  0.00  0.00    +0.000 C 
ATOM     26  C   UNL     1       0.852  -0.911   0.000  0.00  0.00    +0.000 C 
ENDBRANCH  16  17
ENDBRANCH   2  16
TORSDOF 6
