REMARK  Name = 
REMARK  6 active torsions:
REMARK  status: ('A' for Active; 'I' for Inactive)
REMARK    1  A    between atoms: C_2  and  O_5
REMARK    2  A    between atoms: O_5  and  C_6
REMARK    3  A    between atoms: C_11  and  O_12
REMARK    4  A    between atoms: O_12  and  C_13
REMARK    5  A    between atoms: C_21  and  C_26
REMARK    6  A    between atoms: C_26  and  C_27
REMARK                            x       y       z     vdW  Elec       q    Type
REMARK                         _______ _______ _______ _____ _____    ______ ____
ROOT
ATOM      1  C   UNL     1       4.014   0.412   0.000  0.00  0.00    +0.000 A 
ATOM      2  C   UNL     1       3.602   1.127   0.000  0.00  0.00    +0.000 A 
ATOM      3  C   UNL     1       2.777   1.127   0.000  0.00  0.00    +0.000 A 
ATOM      4  C   UNL     1       2.365   0.412   0.000  0.00  0.00    +0.000 A 
ATOM      5  C   UNL     1       2.777  -0.302   0.000  0.00  0.00    +0.000 A 
ATOM      6  C   UNL     1       3.602  -0.302   0.000  0.00  0.00    +0.000 A 
ATOM      7  C   UNL     1       1.540   0.412   0.000  0.00  0.00    +0.000 C 
ATOM      8  C   UNL     1       1.127  -0.302   0.000  0.00  0.00    +0.000 C 
ATOM      9  C   UNL     1       0.302  -0.302   0.000  0.00  0.00    +0.000 C 
ATOM     10  O   UNL     1      -0.111  -1.016   0.000  0.00  0.00    +0.000 OA
ATOM     11  C   UNL     1      -0.111   0.412   0.000  0.00  0.00    +0.000 C 
ATOM     12  C   UNL     1       0.302   1.127   0.000  0.00  0.00    +0.000 C 
ATOM     13  N   UNL     1       1.127   1.127   0.000  0.00  0.00    +0.000 NA
ATOM     14  C   UNL     1       1.540   1.841   0.000  0.00  0.00    +0.000 C 
ATOM     15  C   UNL     1       2.365   1.841   0.000  0.00  0.00    +0.000 C 
ENDROOT
BRANCH   1  16
ATOM     16  O   UNL     1       4.840   0.412   0.000  0.00  0.00    +0.000 OA
BRANCH  16  18
ATOM     17  H   UNL     1       5.665  -1.016   0.000  0.00  0.00    +0.000 HD
ATOM     18  C   UNL     1       5.252  -0.302   0.000  0.00  0.00    +0.000 C 
ATOM     19  H   UNL     1       6.077  -0.302   0.000  0.00  0.00    +0.000 HD
ATOM     20  H   UNL     1       5.665   0.412   0.000  0.00  0.00    +0.000 HD
ENDBRANCH  16  18
ENDBRANCH   1  16
BRANCH  11  21
ATOM     21  C   UNL     1      -0.935   0.412   0.000  0.00  0.00    +0.000 C 
BRANCH  21  22
ATOM     22  C   UNL     1      -1.348   1.127   0.000  0.00  0.00    +0.000 C 
ATOM     23  C   UNL     1      -2.173   1.127   0.000  0.00  0.00    +0.000 C 
ATOM     24  C   UNL     1      -0.935   1.841   0.000  0.00  0.00    +0.000 C 
ENDBRANCH  21  22
ENDBRANCH  11  21
BRANCH   6  25
ATOM     25  O   UNL     1       4.014  -1.016   0.000  0.00  0.00    +0.000 OA
BRANCH  25  26
ATOM     26  C   UNL     1       4.840  -1.016   0.000  0.00  0.00    +0.000 C 
ATOM     27  H   UNL     1       4.557  -1.792   0.000  0.00  0.00    +0.000 HD
ATOM     28  H   UNL     1       5.122  -1.792   0.000  0.00  0.00    +0.000 HD
ATOM     29  H   UNL     1       4.427  -0.302   0.000  0.00  0.00    +0.000 HD
ENDBRANCH  25  26
ENDBRANCH   6  25
TORSDOF 6
