REMARK  Name = 
REMARK  3 active torsions:
REMARK  status: ('A' for Active; 'I' for Inactive)
REMARK    1  A    between atoms: C_3  and  N_4
REMARK    2  A    between atoms: N_7  and  C_8
REMARK    3  A    between atoms: C_10  and  C_11
REMARK                            x       y       z     vdW  Elec       q    Type
REMARK                         _______ _______ _______ _____ _____    ______ ____
ROOT
ATOM      1  C   UNL     1       3.728   1.944   0.000  0.00  0.00    +0.000 C 
ATOM      2  N   UNL     1       3.370   1.201   0.000  0.00  0.00    +0.000 NA
ATOM      3  C   UNL     1       2.566   1.017   0.000  0.00  0.00    +0.000 C 
ATOM      4  C   UNL     1       1.921   1.532   0.000  0.00  0.00    +0.000 A 
ATOM      5  C   UNL     1       1.921   2.357   0.000  0.00  0.00    +0.000 A 
ATOM      6  N   UNL     1       2.566   2.871   0.000  0.00  0.00    +0.000 NA
ATOM      7  C   UNL     1       3.370   2.687   0.000  0.00  0.00    +0.000 C 
ATOM      8  O   UNL     1       3.884   3.333   0.000  0.00  0.00    +0.000 OA
ATOM      9  C   UNL     1       1.206   2.769   0.000  0.00  0.00    +0.000 A 
ATOM     10  C   UNL     1       0.492   2.357   0.000  0.00  0.00    +0.000 A 
ATOM     11  C   UNL     1       0.492   1.532   0.000  0.00  0.00    +0.000 A 
ATOM     12  C   UNL     1       1.206   1.119   0.000  0.00  0.00    +0.000 A 
ENDROOT
BRANCH   3  13
ATOM     13  C   UNL     1       2.382   0.213   0.000  0.00  0.00    +0.000 A 
ATOM     14  C   UNL     1       2.987  -0.348   0.000  0.00  0.00    +0.000 A 
ATOM     15  C   UNL     1       2.803  -1.153   0.000  0.00  0.00    +0.000 A 
ATOM     16  C   UNL     1       2.015  -1.396   0.000  0.00  0.00    +0.000 A 
ATOM     17  C   UNL     1       1.410  -0.835   0.000  0.00  0.00    +0.000 A 
ATOM     18  C   UNL     1       1.594  -0.030   0.000  0.00  0.00    +0.000 A 
ENDBRANCH   3  13
BRANCH   1  22
ATOM     19  N   UNL     1       5.790   2.659   0.000  0.00  0.00    +0.000 NA
ATOM     20  C   UNL     1       4.965   2.659   0.000  0.00  0.00    +0.000 C 
ATOM     21  O   UNL     1       4.553   3.373   0.000  0.00  0.00    +0.000 OA
ATOM     22  N   UNL     1       4.553   1.944   0.000  0.00  0.00    +0.000 NA
BRANCH  19  25
ATOM     23  F   UNL     1       7.440   2.659   0.000  0.00  0.00    +0.000 F 
ATOM     24  C   UNL     1       7.028   3.373   0.000  0.00  0.00    +0.000 A 
ATOM     25  C   UNL     1       6.203   3.373   0.000  0.00  0.00    +0.000 A 
ATOM     26  C   UNL     1       5.790   4.088   0.000  0.00  0.00    +0.000 A 
ATOM     27  C   UNL     1       6.203   4.802   0.000  0.00  0.00    +0.000 A 
ATOM     28  C   UNL     1       7.028   4.802   0.000  0.00  0.00    +0.000 A 
ATOM     29  C   UNL     1       7.440   4.088   0.000  0.00  0.00    +0.000 A 
ENDBRANCH  19  25
ENDBRANCH   1  22
TORSDOF 3
