REMARK  Name = 
REMARK  14 active torsions:
REMARK  status: ('A' for Active; 'I' for Inactive)
REMARK    1  A    between atoms: C_2  and  O_4
REMARK    2  A    between atoms: O_4  and  P_5
REMARK    3  A    between atoms: P_5  and  C_7
REMARK    4  A    between atoms: P_5  and  O_34
REMARK    5  A    between atoms: C_7  and  C_8
REMARK    6  A    between atoms: C_7  and  P_24
REMARK    7  A    between atoms: C_8  and  C_9
REMARK    8  A    between atoms: C_11  and  C_20
REMARK    9  A    between atoms: C_13  and  C_15
REMARK   10  A    between atoms: P_24  and  O_26
REMARK   11  A    between atoms: P_24  and  O_30
REMARK   12  A    between atoms: O_26  and  C_27
REMARK   13  A    between atoms: O_30  and  C_31
REMARK   14  A    between atoms: O_34  and  C_35
REMARK                            x       y       z     vdW  Elec       q    Type
REMARK                         _______ _______ _______ _____ _____    ______ ____
ROOT
ATOM      1  C   UNL     1       0.000   2.475   0.000  0.00  0.00    +0.000 C 
ENDROOT
BRANCH   1   2
ATOM      2  P   UNL     1      -0.715   2.062   0.000  0.00  0.00    +0.000 P 
ATOM      3  O   UNL     1      -0.302   1.348   0.000  0.00  0.00    +0.000 OA
BRANCH   2   4
ATOM      4  O   UNL     1      -1.429   1.650   0.000  0.00  0.00    +0.000 OA
BRANCH   4   6
ATOM      5  C   UNL     1      -0.715   0.412   0.000  0.00  0.00    +0.000 C 
ATOM      6  C   UNL     1      -1.429   0.825   0.000  0.00  0.00    +0.000 C 
ATOM      7  C   UNL     1      -2.143   0.412   0.000  0.00  0.00    +0.000 C 
ENDBRANCH   4   6
ENDBRANCH   2   4
BRANCH   2   8
ATOM      8  O   UNL     1      -1.127   2.777   0.000  0.00  0.00    +0.000 OA
BRANCH   8   9
ATOM      9  C   UNL     1      -1.952   2.777   0.000  0.00  0.00    +0.000 C 
ATOM     10  C   UNL     1      -2.365   3.491   0.000  0.00  0.00    +0.000 C 
ATOM     11  C   UNL     1      -2.365   2.062   0.000  0.00  0.00    +0.000 C 
ENDBRANCH   8   9
ENDBRANCH   2   8
ENDBRANCH   1   2
BRANCH   1  12
ATOM     12  P   UNL     1       0.000   3.300   0.000  0.00  0.00    +0.000 P 
ATOM     13  O   UNL     1      -0.825   3.300   0.000  0.00  0.00    +0.000 OA
BRANCH  12  14
ATOM     14  O   UNL     1       0.825   3.300   0.000  0.00  0.00    +0.000 OA
BRANCH  14  15
ATOM     15  C   UNL     1       1.238   4.014   0.000  0.00  0.00    +0.000 C 
ATOM     16  C   UNL     1       2.062   4.014   0.000  0.00  0.00    +0.000 C 
ATOM     17  C   UNL     1       0.825   4.729   0.000  0.00  0.00    +0.000 C 
ENDBRANCH  14  15
ENDBRANCH  12  14
BRANCH  12  18
ATOM     18  O   UNL     1       0.000   4.125   0.000  0.00  0.00    +0.000 OA
BRANCH  18  19
ATOM     19  C   UNL     1      -0.715   4.537   0.000  0.00  0.00    +0.000 C 
ATOM     20  C   UNL     1      -0.715   5.362   0.000  0.00  0.00    +0.000 C 
ATOM     21  C   UNL     1      -1.429   4.125   0.000  0.00  0.00    +0.000 C 
ENDBRANCH  18  19
ENDBRANCH  12  18
ENDBRANCH   1  12
BRANCH   1  22
ATOM     22  C   UNL     1       0.715   2.062   0.000  0.00  0.00    +0.000 C 
BRANCH  22  23
ATOM     23  C   UNL     1       0.715   1.238   0.000  0.00  0.00    +0.000 A 
ATOM     24  C   UNL     1       1.429   0.825   0.000  0.00  0.00    +0.000 A 
ATOM     25  C   UNL     1       1.429   0.000   0.000  0.00  0.00    +0.000 A 
ATOM     26  C   UNL     1       0.715  -0.412   0.000  0.00  0.00    +0.000 A 
ATOM     27  C   UNL     1       0.000   0.000   0.000  0.00  0.00    +0.000 A 
ATOM     28  C   UNL     1       0.000   0.825   0.000  0.00  0.00    +0.000 A 
ATOM     29  O   UNL     1       0.715  -1.238   0.000  0.00  0.00    +0.000 OA
BRANCH  25  30
ATOM     30  C   UNL     1       2.143  -0.412   0.000  0.00  0.00    +0.000 C 
ATOM     31  C   UNL     1       2.858  -0.825   0.000  0.00  0.00    +0.000 C 
ATOM     32  C   UNL     1       1.731  -1.127   0.000  0.00  0.00    +0.000 C 
ATOM     33  C   UNL     1       2.556   0.302   0.000  0.00  0.00    +0.000 C 
ENDBRANCH  25  30
BRANCH  27  34
ATOM     34  C   UNL     1      -0.715  -0.412   0.000  0.00  0.00    +0.000 C 
ATOM     35  C   UNL     1      -1.429  -0.825   0.000  0.00  0.00    +0.000 C 
ATOM     36  C   UNL     1      -1.127   0.302   0.000  0.00  0.00    +0.000 C 
ATOM     37  C   UNL     1      -0.302  -1.127   0.000  0.00  0.00    +0.000 C 
ENDBRANCH  27  34
ENDBRANCH  22  23
ENDBRANCH   1  22
TORSDOF 14
