REMARK  Name = 
REMARK  9 active torsions:
REMARK  status: ('A' for Active; 'I' for Inactive)
REMARK    1  A    between atoms: C_5  and  N_8
REMARK    2  A    between atoms: C_10  and  C_38
REMARK    3  A    between atoms: C_12  and  N_13
REMARK    4  A    between atoms: N_16  and  C_17
REMARK    5  A    between atoms: C_17  and  C_18
REMARK    6  A    between atoms: C_24  and  O_25
REMARK    7  A    between atoms: O_25  and  C_26
REMARK    8  A    between atoms: N_32  and  C_33
REMARK    9  A    between atoms: C_33  and  C_34
REMARK                            x       y       z     vdW  Elec       q    Type
REMARK                         _______ _______ _______ _____ _____    ______ ____
ROOT
ATOM      1  C   UNL     1       2.784   2.348   0.000  0.00  0.00    +0.000 C 
ENDROOT
BRANCH   1   2
ATOM      2  C   UNL     1       3.499   1.935   0.000  0.00  0.00    +0.000 A 
ATOM      3  C   UNL     1       4.213   2.348   0.000  0.00  0.00    +0.000 A 
ATOM      4  C   UNL     1       4.928   1.935   0.000  0.00  0.00    +0.000 A 
ATOM      5  F   UNL     1       5.642   2.348   0.000  0.00  0.00    +0.000 F 
ATOM      6  C   UNL     1       4.928   1.110   0.000  0.00  0.00    +0.000 A 
ATOM      7  C   UNL     1       4.213   0.698   0.000  0.00  0.00    +0.000 A 
ATOM      8  C   UNL     1       3.499   1.110   0.000  0.00  0.00    +0.000 A 
BRANCH   8   9
ATOM      9  O   UNL     1       2.784   0.698   0.000  0.00  0.00    +0.000 OA
BRANCH   9  10
ATOM     10  C   UNL     1       2.070   1.110   0.000  0.00  0.00    +0.000 A 
ATOM     11  C   UNL     1       1.356   0.698   0.000  0.00  0.00    +0.000 A 
ATOM     12  C   UNL     1       0.641   1.110   0.000  0.00  0.00    +0.000 A 
ATOM     13  C   UNL     1       0.641   1.935   0.000  0.00  0.00    +0.000 A 
ATOM     14  C   UNL     1       1.356   2.348   0.000  0.00  0.00    +0.000 A 
ATOM     15  C   UNL     1       2.070   1.935   0.000  0.00  0.00    +0.000 A 
ATOM     16  N   UNL     1      -0.143   2.190   0.000  0.00  0.00    +0.000 N 
ATOM     17  N   UNL     1      -0.628   1.523   0.000  0.00  0.00    +0.000 NA
ATOM     18  C   UNL     1      -0.143   0.856   0.000  0.00  0.00    +0.000 A 
BRANCH  16  19
ATOM     19  C   UNL     1      -0.398   2.975   0.000  0.00  0.00    +0.000 C 
BRANCH  19  20
ATOM     20  C   UNL     1      -1.205   3.147   0.000  0.00  0.00    +0.000 C 
ATOM     21  O   UNL     1      -1.758   2.533   0.000  0.00  0.00    +0.000 OA
ENDBRANCH  19  20
ENDBRANCH  16  19
ENDBRANCH   9  10
ENDBRANCH   8   9
ENDBRANCH   1   2
BRANCH   1  25
ATOM     22  N   UNL     1       2.070   4.410   0.000  0.00  0.00    +0.000 NA
ATOM     23  C   UNL     1       2.070   3.585   0.000  0.00  0.00    +0.000 C 
ATOM     24  O   UNL     1       1.356   3.173   0.000  0.00  0.00    +0.000 OA
ATOM     25  N   UNL     1       2.784   3.173   0.000  0.00  0.00    +0.000 NA
BRANCH  22  30
ATOM     26  N   UNL     1       1.269   5.643   0.000  0.00  0.00    +0.000 N 
ATOM     27  N   UNL     1       0.462   5.815   0.000  0.00  0.00    +0.000 NA
ATOM     28  C   UNL     1       0.050   5.101   0.000  0.00  0.00    +0.000 A 
ATOM     29  C   UNL     1       0.602   4.487   0.000  0.00  0.00    +0.000 A 
ATOM     30  C   UNL     1       1.356   4.823   0.000  0.00  0.00    +0.000 A 
BRANCH  26  35
ATOM     31  C   UNL     1       3.722   7.852   0.000  0.00  0.00    +0.000 C 
ATOM     32  C   UNL     1       3.109   7.300   0.000  0.00  0.00    +0.000 A 
ATOM     33  C   UNL     1       3.280   6.492   0.000  0.00  0.00    +0.000 A 
ATOM     34  C   UNL     1       2.667   5.941   0.000  0.00  0.00    +0.000 A 
ATOM     35  C   UNL     1       1.882   6.196   0.000  0.00  0.00    +0.000 A 
ATOM     36  C   UNL     1       1.711   7.002   0.000  0.00  0.00    +0.000 A 
ATOM     37  C   UNL     1       2.324   7.554   0.000  0.00  0.00    +0.000 A 
ENDBRANCH  26  35
BRANCH  28  38
ATOM     38  C   UNL     1      -0.771   5.014   0.000  0.00  0.00    +0.000 C 
ATOM     39  C   UNL     1      -1.591   4.928   0.000  0.00  0.00    +0.000 C 
ATOM     40  C   UNL     1      -0.857   5.835   0.000  0.00  0.00    +0.000 C 
ATOM     41  C   UNL     1      -0.684   4.194   0.000  0.00  0.00    +0.000 C 
ENDBRANCH  28  38
ENDBRANCH  22  30
ENDBRANCH   1  25
TORSDOF 9
