REMARK  Name = 
REMARK  7 active torsions:
REMARK  status: ('A' for Active; 'I' for Inactive)
REMARK    1  A    between atoms: C_1  and  C_6
REMARK    2  A    between atoms: C_6  and  N_8
REMARK    3  A    between atoms: C_6  and  C_15
REMARK    4  A    between atoms: C_7  and  C_11
REMARK    5  A    between atoms: C_9  and  S_16
REMARK    6  A    between atoms: C_17  and  C_23
REMARK    7  A    between atoms: C_23  and  C_26
REMARK                            x       y       z     vdW  Elec       q    Type
REMARK                         _______ _______ _______ _____ _____    ______ ____
ROOT
ATOM      1  C   UNL     1       1.229   0.820   0.000  0.00  0.00    +0.000 C 
ENDROOT
BRANCH   1   2
ATOM      2  C   UNL     1       1.947   0.407   0.000  0.00  0.00    +0.000 C 
ATOM      3  O   UNL     1       1.947  -0.419   0.000  0.00  0.00    +0.000 OA
ATOM      4  C   UNL     1       2.663   0.823   0.000  0.00  0.00    +0.000 C 
ATOM      5  C   UNL     1       3.375  -0.419   0.000  0.00  0.00    +0.000 C 
ATOM      6  C   UNL     1       3.375   0.407   0.000  0.00  0.00    +0.000 C 
ATOM      7  C   UNL     1       2.663  -0.832   0.000  0.00  0.00    +0.000 C 
ATOM      8  O   UNL     1       4.091  -0.832   0.000  0.00  0.00    +0.000 OA
ATOM      9  O   UNL     1       2.671   1.646   0.000  0.00  0.00    +0.000 OA
ATOM     10  O   UNL     1       4.094   0.814   0.000  0.00  0.00    +0.000 OA
BRANCH   7  11
ATOM     11  S   UNL     1       2.663  -1.655   0.000  0.00  0.00    +0.000 S 
ATOM     12  C   UNL     1       3.378  -2.068   0.000  0.00  0.00    +0.000 C 
ENDBRANCH   7  11
ENDBRANCH   1   2
BRANCH   1  14
ATOM     13  C   UNL     1      -0.208   0.829   0.000  0.00  0.00    +0.000 C 
ATOM     14  N   UNL     1       0.510   0.416   0.000  0.00  0.00    +0.000 NA
ATOM     15  O   UNL     1      -0.208   1.652   0.000  0.00  0.00    +0.000 OA
BRANCH  13  17
ATOM     16  N   UNL     1      -1.584   0.896   0.000  0.00  0.00    +0.000 NA
ATOM     17  C   UNL     1      -0.918   0.410   0.000  0.00  0.00    +0.000 C 
ATOM     18  C   UNL     1      -2.252   0.410   0.000  0.00  0.00    +0.000 C 
ATOM     19  C   UNL     1      -1.171  -0.375   0.000  0.00  0.00    +0.000 C 
ATOM     20  C   UNL     1      -1.994  -0.375   0.000  0.00  0.00    +0.000 C 
ATOM     21  C   UNL     1      -1.592   1.719   0.000  0.00  0.00    +0.000 C 
BRANCH  20  22
ATOM     22  C   UNL     1      -2.660  -0.858   0.000  0.00  0.00    +0.000 C 
BRANCH  22  23
ATOM     23  C   UNL     1      -3.381  -0.454   0.000  0.00  0.00    +0.000 C 
ATOM     24  C   UNL     1      -4.094  -0.867   0.000  0.00  0.00    +0.000 C 
ENDBRANCH  22  23
ENDBRANCH  20  22
ENDBRANCH  13  17
ENDBRANCH   1  14
BRANCH   1  25
ATOM     25  C   UNL     1       1.229   1.643   0.000  0.00  0.00    +0.000 C 
ATOM     26 CL   UNL     1       0.516   2.059   0.000  0.00  0.00    +0.000 Cl
ATOM     27  C   UNL     1       1.938   2.068   0.000  0.00  0.00    +0.000 C 
ENDBRANCH   1  25
TORSDOF 7
