REMARK  Name = 
REMARK  2 active torsions:
REMARK  status: ('A' for Active; 'I' for Inactive)
REMARK    1  A    between atoms: C_1  and  C_25
REMARK    2  A    between atoms: C_15  and  C_23
REMARK                            x       y       z     vdW  Elec       q    Type
REMARK                         _______ _______ _______ _____ _____    ______ ____
ROOT
ATOM      1  C   UNL     1       2.686   0.584   0.000  0.00  0.00    +0.000 C 
ATOM      2  C   UNL     1       1.861   0.587   0.000  0.00  0.00    +0.000 C 
ATOM      3  C   UNL     1       1.856  -0.838   0.000  0.00  0.00    +0.000 C 
ATOM      4  C   UNL     1       2.681  -0.841   0.000  0.00  0.00    +0.000 C 
ATOM      5  C   UNL     1       3.099  -0.128   0.000  0.00  0.00    +0.000 C 
ATOM      6  C   UNL     1       0.442  -0.844   0.000  0.00  0.00    +0.000 C 
ATOM      7  C   UNL     1       0.439  -1.669   0.000  0.00  0.00    +0.000 C 
ATOM      8  C   UNL     1       1.148  -2.082   0.000  0.00  0.00    +0.000 C 
ATOM      9  C   UNL     1       1.864  -1.674   0.000  0.00  0.00    +0.000 C 
ATOM     10  C   UNL     1       0.439   1.412   0.000  0.00  0.00    +0.000 C 
ATOM     11  C   UNL     1       0.439   0.587   0.000  0.00  0.00    +0.000 C 
ATOM     12  C   UNL     1       1.863   1.412   0.000  0.00  0.00    +0.000 C 
ATOM     13  O   UNL     1       1.147   1.826   0.000  0.00  0.00    +0.000 OA
ATOM     14  C   UNL     1      -0.385   0.587   0.000  0.00  0.00    +0.000 C 
ATOM     15  C   UNL     1      -0.800  -0.128   0.000  0.00  0.00    +0.000 C 
ATOM     16  C   UNL     1      -0.387  -0.845   0.000  0.00  0.00    +0.000 C 
ATOM     17  O   UNL     1       2.575   1.826   0.000  0.00  0.00    +0.000 OA
ATOM     18  C   UNL     1      -1.628  -0.124   0.000  0.00  0.00    +0.000 C 
ATOM     19  C   UNL     1       1.144  -2.905   0.000  0.00  0.00    +0.000 C 
ATOM     20  O   UNL     1       2.578  -2.083   0.000  0.00  0.00    +0.000 OA
ATOM     21  C   UNL     1       1.270  -0.252   0.000  0.00  0.00    +0.000 C 
ATOM     22  O   UNL     1       3.091  -1.555   0.000  0.00  0.00    +0.000 OA
ATOM     23  C   UNL     1       3.812   0.287   0.000  0.00  0.00    +0.000 C 
ATOM     24  C   UNL     1       3.812  -0.538   0.000  0.00  0.00    +0.000 C 
ATOM     25  O   UNL     1       3.097   1.302   0.000  0.00  0.00    +0.000 OA
ENDROOT
BRANCH  10  26
ATOM     26  C   UNL     1      -0.278   1.826   0.000  0.00  0.00    +0.000 C 
ATOM     27  C   UNL     1      -0.278   2.651   0.000  0.00  0.00    +0.000 C 
ATOM     28  C   UNL     1      -0.996   1.415   0.000  0.00  0.00    +0.000 C 
BRANCH  28  29
ATOM     29  C   UNL     1      -1.712   1.828   0.000  0.00  0.00    +0.000 A 
ATOM     30  C   UNL     1      -1.716   2.653   0.000  0.00  0.00    +0.000 A 
ATOM     31  S   UNL     1      -2.501   2.905   0.000  0.00  0.00    +0.000 S 
ATOM     32  C   UNL     1      -2.984   2.236   0.000  0.00  0.00    +0.000 A 
ATOM     33  N   UNL     1      -2.496   1.570   0.000  0.00  0.00    +0.000 NA
ATOM     34  C   UNL     1      -3.812   2.240   0.000  0.00  0.00    +0.000 C 
ENDBRANCH  28  29
ENDBRANCH  10  26
TORSDOF 2
