REMARK  Name = 
REMARK  8 active torsions:
REMARK  status: ('A' for Active; 'I' for Inactive)
REMARK    1  A    between atoms: C_4  and  C_5
REMARK    2  A    between atoms: C_5  and  C_6
REMARK    3  A    between atoms: C_6  and  O_16
REMARK    4  A    between atoms: C_7  and  C_8
REMARK    5  A    between atoms: C_7  and  O_16
REMARK    6  A    between atoms: C_7  and  P_17
REMARK    7  A    between atoms: O_14  and  P_17
REMARK    8  A    between atoms: O_15  and  P_17
REMARK                            x       y       z     vdW  Elec       q    Type
REMARK                         _______ _______ _______ _____ _____    ______ ____
ROOT
ATOM      1  C   UNL     1       0.000   0.825   0.000  0.00  0.00    +0.000 C 
ENDROOT
BRANCH   1   2
ATOM      2  C   UNL     1       0.715   1.238   0.000  0.00  0.00    +0.000 C 
ATOM      3 CL   UNL     1       1.429   1.650   0.000  0.00  0.00    +0.000 Cl
ATOM      4 CL   UNL     1       1.127   0.523   0.000  0.00  0.00    +0.000 Cl
ATOM      5 CL   UNL     1       0.302   1.952   0.000  0.00  0.00    +0.000 Cl
ENDBRANCH   1   2
BRANCH   1   7
ATOM      6  O   UNL     1      -0.825   0.000   0.000  0.00  0.00    +0.000 OA
ATOM      7  P   UNL     1       0.000   0.000   0.000  0.00  0.00    +0.000 P 
BRANCH   7   9
ATOM      8  C   UNL     1       0.715  -1.238   0.000  0.00  0.00    +0.000 C 
ATOM      9  O   UNL     1       0.000  -0.825   0.000  0.00  0.00    +0.000 OA
ENDBRANCH   7   9
BRANCH   7  11
ATOM     10  C   UNL     1       1.238  -0.715   0.000  0.00  0.00    +0.000 C 
ATOM     11  O   UNL     1       0.825   0.000   0.000  0.00  0.00    +0.000 OA
ENDBRANCH   7  11
ENDBRANCH   1   7
BRANCH   1  12
ATOM     12  O   UNL     1      -0.715   1.238   0.000  0.00  0.00    +0.000 OA
BRANCH  12  13
ATOM     13  C   UNL     1      -0.715   2.062   0.000  0.00  0.00    +0.000 C 
ATOM     14  O   UNL     1       0.000   2.475   0.000  0.00  0.00    +0.000 OA
BRANCH  13  15
ATOM     15  C   UNL     1      -1.429   2.475   0.000  0.00  0.00    +0.000 C 
BRANCH  15  17
ATOM     16  C   UNL     1      -2.143   3.712   0.000  0.00  0.00    +0.000 C 
ATOM     17  C   UNL     1      -1.429   3.300   0.000  0.00  0.00    +0.000 C 
ENDBRANCH  15  17
ENDBRANCH  13  15
ENDBRANCH  12  13
ENDBRANCH   1  12
TORSDOF 8
