REMARK  Name = 
REMARK  1 active torsions:
REMARK  status: ('A' for Active; 'I' for Inactive)
REMARK    1  A    between atoms: C_7  and  O_15
REMARK                            x       y       z     vdW  Elec       q    Type
REMARK                         _______ _______ _______ _____ _____    ______ ____
ROOT
ATOM      1  C   UNL     1       2.170  -0.372   0.000  0.00  0.00    +0.000 A 
ATOM      2  N   UNL     1       2.689   0.234   0.000  0.00  0.00    +0.000 NA
ATOM      3  C   UNL     1       2.449   0.997   0.000  0.00  0.00    +0.000 A 
ATOM      4  C   UNL     1       1.671   1.132   0.000  0.00  0.00    +0.000 A 
ATOM      5  C   UNL     1      -0.267   1.152   0.000  0.00  0.00    +0.000 A 
ATOM      6  C   UNL     1      -1.050   0.972   0.000  0.00  0.00    +0.000 A 
ATOM      7  C   UNL     1      -1.298   0.175   0.000  0.00  0.00    +0.000 A 
ATOM      8  C   UNL     1      -0.758  -0.429   0.000  0.00  0.00    +0.000 A 
ATOM      9  N   UNL     1       0.710  -0.686   0.000  0.00  0.00    +0.000 NA
ATOM     10  C   UNL     1       0.078  -0.252   0.000  0.00  0.00    +0.000 A 
ATOM     11  C   UNL     1       1.396  -0.224   0.000  0.00  0.00    +0.000 A 
ATOM     12  C   UNL     1       0.325   0.545   0.000  0.00  0.00    +0.000 A 
ATOM     13  C   UNL     1       1.092   0.545   0.000  0.00  0.00    +0.000 A 
ATOM     14  C   UNL     1       2.444  -1.152   0.000  0.00  0.00    +0.000 C 
ENDROOT
BRANCH   7  15
ATOM     15  O   UNL     1      -2.106  -0.001   0.000  0.00  0.00    +0.000 OA
ATOM     16  C   UNL     1      -2.689   0.583   0.000  0.00  0.00    +0.000 C 
ENDBRANCH   7  15
TORSDOF 1
