REMARK  Name = 
REMARK  10 active torsions:
REMARK  status: ('A' for Active; 'I' for Inactive)
REMARK    1  A    between atoms: O_2  and  C_3
REMARK    2  A    between atoms: C_4  and  O_5
REMARK    3  A    between atoms: C_7  and  C_15
REMARK    4  A    between atoms: C_9  and  C_10
REMARK    5  A    between atoms: C_10  and  C_11
REMARK    6  A    between atoms: C_11  and  C_12
REMARK    7  A    between atoms: N_17  and  C_18
REMARK    8  A    between atoms: C_18  and  C_19
REMARK    9  A    between atoms: N_23  and  C_24
REMARK   10  A    between atoms: C_24  and  C_25
REMARK                            x       y       z     vdW  Elec       q    Type
REMARK                         _______ _______ _______ _____ _____    ______ ____
ROOT
ATOM      1  C   UNL     1      -0.608   3.651   0.000  0.00  0.00    +0.000 A 
ATOM      2  C   UNL     1      -1.322   3.238   0.000  0.00  0.00    +0.000 A 
ATOM      3  C   UNL     1      -2.037   3.651   0.000  0.00  0.00    +0.000 A 
ATOM      4  C   UNL     1      -2.037   4.476   0.000  0.00  0.00    +0.000 A 
ATOM      5  C   UNL     1      -1.322   4.888   0.000  0.00  0.00    +0.000 A 
ATOM      6  C   UNL     1      -0.608   4.476   0.000  0.00  0.00    +0.000 A 
ENDROOT
BRANCH   3   7
ATOM      7  C   UNL     1      -2.751   3.238   0.000  0.00  0.00    +0.000 C 
ATOM      8  O   UNL     1      -3.466   3.651   0.000  0.00  0.00    +0.000 OA
ATOM      9  N   UNL     1      -2.751   2.413   0.000  0.00  0.00    +0.000 NA
BRANCH   9  10
ATOM     10  C   UNL     1      -3.466   2.001   0.000  0.00  0.00    +0.000 C 
BRANCH  10  11
ATOM     11  C   UNL     1      -3.466   1.176   0.000  0.00  0.00    +0.000 C 
ATOM     12  C   UNL     1      -2.798   0.691   0.000  0.00  0.00    +0.000 C 
ATOM     13  C   UNL     1      -3.053  -0.094   0.000  0.00  0.00    +0.000 C 
ATOM     14  C   UNL     1      -3.878  -0.094   0.000  0.00  0.00    +0.000 C 
ATOM     15  N   UNL     1      -4.133   0.691   0.000  0.00  0.00    +0.000 NA
BRANCH  15  16
ATOM     16  C   UNL     1      -4.918   0.946   0.000  0.00  0.00    +0.000 C 
BRANCH  16  17
ATOM     17  C   UNL     1      -5.531   0.394   0.000  0.00  0.00    +0.000 C 
ATOM     18  C   UNL     1      -5.359  -0.413   0.000  0.00  0.00    +0.000 C 
ENDBRANCH  16  17
ENDBRANCH  15  16
ENDBRANCH  10  11
ENDBRANCH   9  10
ENDBRANCH   3   7
BRANCH   1  20
ATOM     19  C   UNL     1       0.821   3.651   0.000  0.00  0.00    +0.000 C 
ATOM     20  O   UNL     1       0.107   3.238   0.000  0.00  0.00    +0.000 OA
ENDBRANCH   1  20
BRANCH   2  21
ATOM     21  O   UNL     1      -1.322   2.413   0.000  0.00  0.00    +0.000 OA
ATOM     22  C   UNL     1      -2.037   2.001   0.000  0.00  0.00    +0.000 C 
ENDBRANCH   2  21
BRANCH   5  23
ATOM     23  C   UNL     1      -1.322   5.713   0.000  0.00  0.00    +0.000 C 
BRANCH  23  24
ATOM     24  C   UNL     1      -0.608   6.126   0.000  0.00  0.00    +0.000 C 
BRANCH  24  25
ATOM     25  C   UNL     1      -0.608   6.951   0.000  0.00  0.00    +0.000 C 
ATOM     26  F   UNL     1       0.107   7.363   0.000  0.00  0.00    +0.000 F 
ENDBRANCH  24  25
ENDBRANCH  23  24
ENDBRANCH   5  23
TORSDOF 10
