REMARK  Name = 
REMARK  21 active torsions:
REMARK  status: ('A' for Active; 'I' for Inactive)
REMARK    1  A    between atoms: CG1_2  and  CB_3
REMARK    2  A    between atoms: CB_3  and  CA_5
REMARK    3  A    between atoms: CA_9  and  CB_10
REMARK    4  A    between atoms: CB_10  and  CG_11
REMARK    5  A    between atoms: CA_23  and  CB_109
REMARK    6  A    between atoms: CA_41  and  CB_42
REMARK    7  A    between atoms: C_52  and  C_53
REMARK    8  A    between atoms: C_53  and  C_54
REMARK    9  A    between atoms: C_59  and  C_60
REMARK   10  A    between atoms: C_60  and  C_61
REMARK   11  A    between atoms: CA_66  and  CB_67
REMARK   12  A    between atoms: CB_67  and  CG_68
REMARK   13  A    between atoms: C_80  and  C_81
REMARK   14  A    between atoms: C_81  and  C_82
REMARK   15  A    between atoms: C_87  and  C_88
REMARK   16  A    between atoms: C_88  and  C_89
REMARK   17  A    between atoms: C_94  and  C_95
REMARK   18  A    between atoms: C_95  and  C_96
REMARK   19  A    between atoms: C_96  and  C_97
REMARK   20  A    between atoms: C_102  and  C_103
REMARK   21  A    between atoms: C_103  and  C_104
REMARK                            x       y       z     vdW  Elec       q    Type
REMARK                         _______ _______ _______ _____ _____    ______ ____
ROOT
ATOM      1  CA  ILE A   1       5.113  11.790   0.000  0.00  0.00    +0.000 C 
ATOM      2  N   ILE A   1       4.658  11.101   0.000  0.00  0.00    +0.000 NA
ATOM      3  C   TRP A  14       4.006  11.606   0.000  0.00  0.00    +0.000 C 
ATOM      4  O   TRP A  14       3.615  12.332   0.000  0.00  0.00    +0.000 OA
ATOM      5  CA  TRP A  14       3.242  11.293   0.000  0.00  0.00    +0.000 C 
ATOM      6  N   TRP A  14       3.132  10.475   0.000  0.00  0.00    +0.000 NA
ATOM      7  C   THR A  13       2.325  10.647   0.000  0.00  0.00    +0.000 C 
ATOM      8  O   THR A  13       2.070  11.432   0.000  0.00  0.00    +0.000 OA
ATOM      9  CA  THR A  13       1.773  10.034   0.000  0.00  0.00    +0.000 C 
ATOM     10  N   THR A  13       2.028   9.249   0.000  0.00  0.00    +0.000 NA
ATOM     11  C   PRO A  12       1.226   9.054   0.000  0.00  0.00    +0.000 C 
ATOM     12  O   PRO A  12       0.656   9.650   0.000  0.00  0.00    +0.000 OA
ATOM     13  CA  PRO A  12       0.995   8.262   0.000  0.00  0.00    +0.000 C 
ATOM     14  CB  PRO A  12       0.251   7.904   0.000  0.00  0.00    +0.000 C 
ATOM     15  CG  PRO A  12       0.362   7.086   0.000  0.00  0.00    +0.000 C 
ATOM     16  CD  PRO A  12       1.174   6.939   0.000  0.00  0.00    +0.000 C 
ATOM     17  N   PRO A  12       1.565   7.665   0.000  0.00  0.00    +0.000 N 
ATOM     18  C   PRO A  11       0.928   7.141   0.000  0.00  0.00    +0.000 C 
ATOM     19  O   PRO A  11       0.155   7.431   0.000  0.00  0.00    +0.000 OA
ATOM     20  CA  PRO A  11       1.063   6.328   0.000  0.00  0.00    +0.000 C 
ATOM     21  CB  PRO A  11       0.548   5.683   0.000  0.00  0.00    +0.000 C 
ATOM     22  CG  PRO A  11       1.003   4.994   0.000  0.00  0.00    +0.000 C 
ATOM     23  CD  PRO A  11       1.798   5.214   0.000  0.00  0.00    +0.000 C 
ATOM     24  N   PRO A  11       1.835   6.038   0.000  0.00  0.00    +0.000 N 
ATOM     25  C   SER A  10       1.488   5.289   0.000  0.00  0.00    +0.000 C 
ATOM     26  O   SER A  10       0.667   5.215   0.000  0.00  0.00    +0.000 OA
ATOM     27  CA  SER A  10       1.963   4.615   0.000  0.00  0.00    +0.000 C 
ATOM     28  N   SER A  10       2.785   4.689   0.000  0.00  0.00    +0.000 NA
ATOM     29  C   ALA A   9       2.797   3.864   0.000  0.00  0.00    +0.000 C 
ATOM     30  O   ALA A   9       2.089   3.441   0.000  0.00  0.00    +0.000 OA
ATOM     31  CA  ALA A   9       3.518   3.462   0.000  0.00  0.00    +0.000 C 
ATOM     32  CB  ALA A   9       3.530   2.637   0.000  0.00  0.00    +0.000 C 
ATOM     33  N   ALA A   9       4.226   3.885   0.000  0.00  0.00    +0.000 NA
ATOM     34  C   UNK A   8       4.595   3.147   0.000  0.00  0.00    +0.000 C 
ATOM     35  O   UNK A   8       4.141   2.459   0.000  0.00  0.00    +0.000 OA
ATOM     36  C   UNK A   8       5.419   3.098   0.000  0.00  0.00    +0.000 C 
ATOM     37  N   UNK A   8       5.873   3.786   0.000  0.00  0.00    +0.000 NA
ATOM     38  C   UNK A   7       6.526   3.282   0.000  0.00  0.00    +0.000 C 
ATOM     39  O   UNK A   7       6.415   2.464   0.000  0.00  0.00    +0.000 OA
ATOM     40  C   UNK A   7       7.289   3.595   0.000  0.00  0.00    +0.000 C 
ATOM     41  N   UNK A   7       7.400   4.412   0.000  0.00  0.00    +0.000 NA
ATOM     42  C   TRP A   6       8.207   4.240   0.000  0.00  0.00    +0.000 C 
ATOM     43  O   TRP A   6       8.462   3.456   0.000  0.00  0.00    +0.000 OA
ATOM     44  CA  TRP A   6       8.759   4.854   0.000  0.00  0.00    +0.000 C 
ATOM     45  N   TRP A   6       8.504   5.638   0.000  0.00  0.00    +0.000 NA
ATOM     46  C   UNK A   5       9.305   5.834   0.000  0.00  0.00    +0.000 C 
ATOM     47  O   UNK A   5       9.876   5.237   0.000  0.00  0.00    +0.000 OA
ATOM     48  C   UNK A   5       9.537   6.626   0.000  0.00  0.00    +0.000 C 
ATOM     49  N   UNK A   5       8.967   7.222   0.000  0.00  0.00    +0.000 NA
ATOM     50  C   UNK A   4       9.604   7.746   0.000  0.00  0.00    +0.000 C 
ATOM     51  O   UNK A   4      10.376   7.456   0.000  0.00  0.00    +0.000 OA
ATOM     52  C   UNK A   4       9.469   8.560   0.000  0.00  0.00    +0.000 C 
ATOM     53  N   UNK A   4       8.696   8.850   0.000  0.00  0.00    +0.000 NA
ATOM     54  C   UNK A   3       9.043   9.598   0.000  0.00  0.00    +0.000 C 
ATOM     55  O   UNK A   3       9.865   9.672   0.000  0.00  0.00    +0.000 OA
ATOM     56  C   UNK A   3       8.568  10.273   0.000  0.00  0.00    +0.000 C 
ATOM     57  N   UNK A   3       7.747  10.199   0.000  0.00  0.00    +0.000 NA
ATOM     58  C   UNK A   2       7.734  11.024   0.000  0.00  0.00    +0.000 C 
ATOM     59  O   UNK A   2       8.442  11.447   0.000  0.00  0.00    +0.000 OA
ATOM     60  C   UNK A   2       7.014  11.426   0.000  0.00  0.00    +0.000 C 
ATOM     61  N   UNK A   2       6.305  11.002   0.000  0.00  0.00    +0.000 NA
ATOM     62  C   ILE A   1       5.936  11.740   0.000  0.00  0.00    +0.000 C 
ATOM     63  O   ILE A   1       6.391  12.429   0.000  0.00  0.00    +0.000 OA
ENDROOT
BRANCH   9  64
ATOM     64  CB  THR A  13       0.966  10.205   0.000  0.00  0.00    +0.000 C 
ATOM     65  CG2 THR A  13       0.711  10.990   0.000  0.00  0.00    +0.000 C 
ATOM     66  OG1 THR A  13       0.251   9.793   0.000  0.00  0.00    +0.000 OA
ENDBRANCH   9  64
BRANCH   1  67
ATOM     67  CB  ILE A   1       4.744  12.527   0.000  0.00  0.00    +0.000 C 
ATOM     68  CG2 ILE A   1       3.920  12.577   0.000  0.00  0.00    +0.000 C 
BRANCH  67  70
ATOM     69  CD1 ILE A   1       4.829  13.954   0.000  0.00  0.00    +0.000 C 
ATOM     70  CG1 ILE A   1       5.198  13.216   0.000  0.00  0.00    +0.000 C 
ENDBRANCH  67  70
ENDBRANCH   1  67
BRANCH  27  71
ATOM     71  CB  SER A  10       1.617   3.866   0.000  0.00  0.00    +0.000 C 
ATOM     72  OG  SER A  10       0.795   3.792   0.000  0.00  0.00    +0.000 OA
ENDBRANCH  27  71
BRANCH  48  73
ATOM     73  C   UNK A   5      10.338   6.821   0.000  0.00  0.00    +0.000 C 
BRANCH  73  74
ATOM     74  C   UNK A   5      10.908   6.225   0.000  0.00  0.00    +0.000 C 
ATOM     75  N   UNK A   5      11.710   6.421   0.000  0.00  0.00    +0.000 NA
ENDBRANCH  73  74
ENDBRANCH  48  73
BRANCH  52  76
ATOM     76  C   UNK A   4      10.106   9.084   0.000  0.00  0.00    +0.000 C 
BRANCH  76  77
ATOM     77  C   UNK A   4      10.878   8.794   0.000  0.00  0.00    +0.000 C 
ATOM     78  N   UNK A   4      11.516   9.318   0.000  0.00  0.00    +0.000 NA
ENDBRANCH  76  77
ENDBRANCH  52  76
BRANCH   5  79
ATOM     79  CB  TRP A  14       2.590  11.798   0.000  0.00  0.00    +0.000 C 
BRANCH  79  80
ATOM     80  CG  TRP A  14       2.700  12.615   0.000  0.00  0.00    +0.000 A 
ATOM     81  CD1 TRP A  14       3.427  13.006   0.000  0.00  0.00    +0.000 A 
ATOM     82  NE1 TRP A  14       3.280  13.818   0.000  0.00  0.00    +0.000 NA
ATOM     83  CE2 TRP A  14       2.462  13.929   0.000  0.00  0.00    +0.000 A 
ATOM     84  CD2 TRP A  14       2.104  13.185   0.000  0.00  0.00    +0.000 A 
ATOM     85  CE3 TRP A  14       1.282  13.124   0.000  0.00  0.00    +0.000 A 
ATOM     86  CZ3 TRP A  14       0.817  13.805   0.000  0.00  0.00    +0.000 A 
ATOM     87  CH2 TRP A  14       1.175  14.549   0.000  0.00  0.00    +0.000 A 
ATOM     88  CZ2 TRP A  14       1.997  14.610   0.000  0.00  0.00    +0.000 A 
ENDBRANCH  79  80
ENDBRANCH   5  79
BRANCH  56  89
ATOM     89  C   UNK A   3       8.915  11.021   0.000  0.00  0.00    +0.000 C 
BRANCH  89  90
ATOM     90  C   UNK A   3       9.737  11.095   0.000  0.00  0.00    +0.000 C 
BRANCH  90  91
ATOM     91  C   UNK A   3      10.084  11.844   0.000  0.00  0.00    +0.000 C 
ATOM     92  N   UNK A   3      10.905  11.918   0.000  0.00  0.00    +0.000 NA
ENDBRANCH  90  91
ENDBRANCH  89  90
ENDBRANCH  56  89
BRANCH  44  93
ATOM     93  CB  TRP A   6       9.566   4.682   0.000  0.00  0.00    +0.000 C 
BRANCH  93  94
ATOM     94  CG  TRP A   6       9.821   3.897   0.000  0.00  0.00    +0.000 A 
ATOM     95  CD1 TRP A   6       9.336   3.230   0.000  0.00  0.00    +0.000 A 
ATOM     96  NE1 TRP A   6       9.821   2.563   0.000  0.00  0.00    +0.000 NA
ATOM     97  CE2 TRP A   6      10.605   2.817   0.000  0.00  0.00    +0.000 A 
ATOM     98  CD2 TRP A   6      10.605   3.643   0.000  0.00  0.00    +0.000 A 
ATOM     99  CE3 TRP A   6      11.320   4.055   0.000  0.00  0.00    +0.000 A 
ATOM    100  CZ3 TRP A   6      12.034   3.643   0.000  0.00  0.00    +0.000 A 
ATOM    101  CH2 TRP A   6      12.034   2.817   0.000  0.00  0.00    +0.000 A 
ATOM    102  CZ2 TRP A   6      11.320   2.405   0.000  0.00  0.00    +0.000 A 
ENDBRANCH  93  94
ENDBRANCH  44  93
BRANCH  60 103
ATOM    103  C   UNK A   2       7.001  12.251   0.000  0.00  0.00    +0.000 C 
BRANCH 103 104
ATOM    104  C   UNK A   2       7.710  12.674   0.000  0.00  0.00    +0.000 C 
ATOM    105  N   UNK A   2       7.697  13.499   0.000  0.00  0.00    +0.000 NA
ENDBRANCH 103 104
ENDBRANCH  60 103
BRANCH  40 106
ATOM    106  C   UNK A   7       7.942   3.090   0.000  0.00  0.00    +0.000 C 
BRANCH 106 107
ATOM    107  C   UNK A   7       7.831   2.272   0.000  0.00  0.00    +0.000 C 
ATOM    108  N   UNK A   7       8.484   1.768   0.000  0.00  0.00    +0.000 NA
ENDBRANCH 106 107
ENDBRANCH  40 106
BRANCH  36 109
ATOM    109  C   UNK A   8       5.788   2.360   0.000  0.00  0.00    +0.000 C 
BRANCH 109 110
ATOM    110  C   UNK A   8       5.333   1.671   0.000  0.00  0.00    +0.000 C 
ATOM    111  N   UNK A   8       5.702   0.933   0.000  0.00  0.00    +0.000 NA
ENDBRANCH 109 110
ENDBRANCH  36 109
TORSDOF 21
