REMARK  Name = 
REMARK  3 active torsions:
REMARK  status: ('A' for Active; 'I' for Inactive)
REMARK    1  A    between atoms: C_12  and  C_32
REMARK    2  A    between atoms: C_15  and  C_22
REMARK    3  A    between atoms: C_25  and  N_29
REMARK                            x       y       z     vdW  Elec       q    Type
REMARK                         _______ _______ _______ _____ _____    ______ ____
ROOT
ATOM      1  C   UNL     1      -1.821  -0.825   0.000  0.00  0.00    +0.000 C 
ATOM      2  C   UNL     1      -1.107  -1.237   0.000  0.00  0.00    +0.000 C 
ATOM      3  C   UNL     1       0.322  -2.062   0.000  0.00  0.00    +0.000 C 
ATOM      4  C   UNL     1      -0.392  -2.475   0.000  0.00  0.00    +0.000 C 
ATOM      5  C   UNL     1      -1.107  -2.062   0.000  0.00  0.00    +0.000 C 
ATOM      6  C   UNL     1      -1.821  -2.475   0.000  0.00  0.00    +0.000 C 
ATOM      7  C   UNL     1      -2.536  -1.237   0.000  0.00  0.00    +0.000 C 
ATOM      8  C   UNL     1      -2.536  -2.062   0.000  0.00  0.00    +0.000 C 
ATOM      9  C   UNL     1       0.322  -1.237   0.000  0.00  0.00    +0.000 C 
ATOM     10  C   UNL     1      -0.392  -0.825   0.000  0.00  0.00    +0.000 C 
ATOM     11  C   UNL     1       1.821  -1.080   0.000  0.00  0.00    +0.000 C 
ATOM     12  C   UNL     1       1.821   0.255   0.000  0.00  0.00    +0.000 C 
ATOM     13  C   UNL     1       0.322   0.412   0.000  0.00  0.00    +0.000 C 
ATOM     14  C   UNL     1       2.306  -0.412   0.000  0.00  0.00    +0.000 C 
ATOM     15  C   UNL     1      -0.392   0.000   0.000  0.00  0.00    +0.000 C 
ATOM     16  O   UNL     1      -3.250  -2.475   0.000  0.00  0.00    +0.000 OA
ATOM     17  C   UNL     1       1.036   0.000   0.000  0.00  0.00    +0.000 C 
ATOM     18  C   UNL     1       1.037   0.825   0.000  0.00  0.00    +0.000 C 
ATOM     19  C   UNL     1       1.036  -0.825   0.000  0.00  0.00    +0.000 C 
ATOM     20  O   UNL     1       1.821   1.080   0.000  0.00  0.00    +0.000 OA
ENDROOT
BRANCH  15  21
ATOM     21  C   UNL     1      -1.107   0.412   0.000  0.00  0.00    +0.000 A 
ATOM     22  C   UNL     1      -1.821   1.650   0.000  0.00  0.00    +0.000 A 
ATOM     23  C   UNL     1      -2.536   1.238   0.000  0.00  0.00    +0.000 A 
ATOM     24  C   UNL     1      -2.536   0.412   0.000  0.00  0.00    +0.000 A 
ATOM     25  C   UNL     1      -1.821   0.000   0.000  0.00  0.00    +0.000 A 
ATOM     26  C   UNL     1      -1.107   1.238   0.000  0.00  0.00    +0.000 A 
BRANCH  23  27
ATOM     27  N   UNL     1      -3.250   1.650   0.000  0.00  0.00    +0.000 N 
ATOM     28  C   UNL     1      -3.250   2.475   0.000  0.00  0.00    +0.000 C 
ATOM     29  C   UNL     1      -3.965   1.238   0.000  0.00  0.00    +0.000 C 
ENDBRANCH  23  27
ENDBRANCH  15  21
BRANCH  12  30
ATOM     30  C   UNL     1       2.536   0.667   0.000  0.00  0.00    +0.000 C 
ATOM     31  C   UNL     1       3.250   1.080   0.000  0.00  0.00    +0.000 C 
ATOM     32  C   UNL     1       3.965   1.492   0.000  0.00  0.00    +0.000 C 
ENDBRANCH  12  30
TORSDOF 3
