REMARK  Name = 
REMARK  7 active torsions:
REMARK  status: ('A' for Active; 'I' for Inactive)
REMARK    1  A    between atoms: C_5  and  O_11
REMARK    2  A    between atoms: C_7  and  N_8
REMARK    3  A    between atoms: O_11  and  C_12
REMARK    4  A    between atoms: C_16  and  O_19
REMARK    5  A    between atoms: O_19  and  C_20
REMARK    6  A    between atoms: C_24  and  C_26
REMARK    7  A    between atoms: C_26  and  N_27
REMARK                            x       y       z     vdW  Elec       q    Type
REMARK                         _______ _______ _______ _____ _____    ______ ____
ROOT
ATOM      1  C   UNL     1       5.716  -4.125   0.000  0.00  0.00    +0.000 C 
ATOM      2  C   UNL     1       6.430  -3.712   0.000  0.00  0.00    +0.000 C 
ATOM      3  C   UNL     1       7.145  -4.125   0.000  0.00  0.00    +0.000 C 
ATOM      4  C   UNL     1       7.145  -4.950   0.000  0.00  0.00    +0.000 C 
ATOM      5  C   UNL     1       6.430  -5.362   0.000  0.00  0.00    +0.000 C 
ATOM      6  C   UNL     1       5.716  -4.950   0.000  0.00  0.00    +0.000 C 
ATOM      7  O   UNL     1       5.001  -5.362   0.000  0.00  0.00    +0.000 OA
ATOM      8  N   UNL     1       7.859  -5.362   0.000  0.00  0.00    +0.000 NA
ATOM      9  N   UNL     1       6.430  -2.888   0.000  0.00  0.00    +0.000 NA
ENDROOT
BRANCH   1  10
ATOM     10  O   UNL     1       5.001  -3.712   0.000  0.00  0.00    +0.000 OA
BRANCH  10  15
ATOM     11  C   UNL     1       4.471  -0.606   0.000  0.00  0.00    +0.000 C 
ATOM     12  C   UNL     1       5.001  -1.238   0.000  0.00  0.00    +0.000 C 
ATOM     13  C   UNL     1       5.716  -1.650   0.000  0.00  0.00    +0.000 C 
ATOM     14  O   UNL     1       5.716  -2.475   0.000  0.00  0.00    +0.000 OA
ATOM     15  C   UNL     1       5.001  -2.888   0.000  0.00  0.00    +0.000 C 
ATOM     16  C   UNL     1       4.287  -2.475   0.000  0.00  0.00    +0.000 C 
ATOM     17  C   UNL     1       4.287  -1.650   0.000  0.00  0.00    +0.000 C 
ATOM     18  O   UNL     1       3.572  -2.888   0.000  0.00  0.00    +0.000 OA
ATOM     19  O   UNL     1       5.532  -0.606   0.000  0.00  0.00    +0.000 OA
BRANCH  17  20
ATOM     20  N   UNL     1       3.572  -1.238   0.000  0.00  0.00    +0.000 NA
ATOM     21  C   UNL     1       3.572  -0.412   0.000  0.00  0.00    +0.000 C 
ENDBRANCH  17  20
ENDBRANCH  10  15
ENDBRANCH   1  10
BRANCH   5  22
ATOM     22  O   UNL     1       6.430  -6.188   0.000  0.00  0.00    +0.000 OA
BRANCH  22  23
ATOM     23  C   UNL     1       5.716  -6.600   0.000  0.00  0.00    +0.000 C 
ATOM     24  C   UNL     1       5.716  -7.425   0.000  0.00  0.00    +0.000 C 
ATOM     25  C   UNL     1       5.001  -7.838   0.000  0.00  0.00    +0.000 C 
ATOM     26  C   UNL     1       4.287  -7.425   0.000  0.00  0.00    +0.000 C 
ATOM     27  C   UNL     1       4.287  -6.600   0.000  0.00  0.00    +0.000 C 
ATOM     28  O   UNL     1       5.001  -6.188   0.000  0.00  0.00    +0.000 OA
ATOM     29  N   UNL     1       6.430  -7.838   0.000  0.00  0.00    +0.000 NA
BRANCH  27  30
ATOM     30  C   UNL     1       3.572  -6.188   0.000  0.00  0.00    +0.000 C 
BRANCH  30  31
ATOM     31  N   UNL     1       3.572  -5.362   0.000  0.00  0.00    +0.000 NA
ATOM     32  C   UNL     1       4.287  -4.950   0.000  0.00  0.00    +0.000 C 
ENDBRANCH  30  31
ENDBRANCH  27  30
ENDBRANCH  22  23
ENDBRANCH   5  22
TORSDOF 7
