REMARK  Name = 
REMARK  7 active torsions:
REMARK  status: ('A' for Active; 'I' for Inactive)
REMARK    1  A    between atoms: C_15  and  C_17
REMARK    2  A    between atoms: C_15  and  N_25
REMARK    3  A    between atoms: C_18  and  C_22
REMARK    4  A    between atoms: C_19  and  C_23
REMARK    5  A    between atoms: C_20  and  N_26
REMARK    6  A    between atoms: C_21  and  S_30
REMARK    7  A    between atoms: N_25  and  S_30
REMARK                            x       y       z     vdW  Elec       q    Type
REMARK                         _______ _______ _______ _____ _____    ______ ____
ROOT
ATOM      1  C   UNL     1      -0.412   0.412   0.000  0.00  0.00    +0.000 C 
ENDROOT
BRANCH   1   6
ATOM      2  C   UNL     1      -1.127  -0.825   0.000  0.00  0.00    +0.000 A 
ATOM      3  C   UNL     1       0.302  -0.825   0.000  0.00  0.00    +0.000 A 
ATOM      4  C   UNL     1      -1.127  -1.650   0.000  0.00  0.00    +0.000 A 
ATOM      5  C   UNL     1       0.302  -1.650   0.000  0.00  0.00    +0.000 A 
ATOM      6  C   UNL     1      -0.412  -0.412   0.000  0.00  0.00    +0.000 A 
ATOM      7  C   UNL     1      -0.412  -2.062   0.000  0.00  0.00    +0.000 A 
BRANCH   7   8
ATOM      8  C   UNL     1      -0.412  -2.888   0.000  0.00  0.00    +0.000 C 
ATOM      9  N   UNL     1       0.302  -3.300   0.000  0.00  0.00    +0.000 NA
ATOM     10  O   UNL     1      -1.127  -3.300   0.000  0.00  0.00    +0.000 OA
BRANCH   9  15
ATOM     11  C   UNL     1       1.016  -5.362   0.000  0.00  0.00    +0.000 A 
ATOM     12  C   UNL     1       1.016  -4.537   0.000  0.00  0.00    +0.000 A 
ATOM     13  C   UNL     1       0.302  -5.775   0.000  0.00  0.00    +0.000 A 
ATOM     14  C   UNL     1      -0.412  -4.537   0.000  0.00  0.00    +0.000 A 
ATOM     15  C   UNL     1       0.302  -4.125   0.000  0.00  0.00    +0.000 A 
ATOM     16  N   UNL     1      -0.412  -5.362   0.000  0.00  0.00    +0.000 NA
ENDBRANCH   9  15
ENDBRANCH   7   8
ENDBRANCH   1   6
BRANCH   1  17
ATOM     17  N   UNL     1       0.302   0.825   0.000  0.00  0.00    +0.000 NA
BRANCH  17  20
ATOM     18  O   UNL     1      -0.523   1.650   0.000  0.00  0.00    +0.000 OA
ATOM     19  O   UNL     1       1.127   1.650   0.000  0.00  0.00    +0.000 OA
ATOM     20  S   UNL     1       0.302   1.650   0.000  0.00  0.00    +0.000 S 
BRANCH  20  26
ATOM     21  C   UNL     1      -0.412   3.712   0.000  0.00  0.00    +0.000 A 
ATOM     22  C   UNL     1       1.016   3.712   0.000  0.00  0.00    +0.000 A 
ATOM     23  C   UNL     1      -0.412   2.888   0.000  0.00  0.00    +0.000 A 
ATOM     24  C   UNL     1       1.016   2.888   0.000  0.00  0.00    +0.000 A 
ATOM     25  C   UNL     1       0.302   4.125   0.000  0.00  0.00    +0.000 A 
ATOM     26  C   UNL     1       0.302   2.475   0.000  0.00  0.00    +0.000 A 
BRANCH  25  30
ATOM     27  C   UNL     1       0.302   5.775   0.000  0.00  0.00    +0.000 C 
ATOM     28  C   UNL     1      -0.523   4.950   0.000  0.00  0.00    +0.000 C 
ATOM     29  C   UNL     1       1.127   4.950   0.000  0.00  0.00    +0.000 C 
ATOM     30  C   UNL     1       0.302   4.950   0.000  0.00  0.00    +0.000 C 
ENDBRANCH  25  30
ENDBRANCH  20  26
ENDBRANCH  17  20
ENDBRANCH   1  17
TORSDOF 7
