REMARK  Name = 
REMARK  3 active torsions:
REMARK  status: ('A' for Active; 'I' for Inactive)
REMARK    1  A    between atoms: N_7  and  C_26
REMARK    2  A    between atoms: C_28  and  C_34
REMARK    3  A    between atoms: C_29  and  O_36
REMARK                            x       y       z     vdW  Elec       q    Type
REMARK                         _______ _______ _______ _____ _____    ______ ____
ROOT
ATOM      1  C   UNL     1      -2.408   1.659   0.000  0.00  0.00    +0.000 A 
ATOM      2  C   UNL     1      -3.123   1.242   0.000  0.00  0.00    +0.000 A 
ATOM      3  C   UNL     1      -3.116   0.411   0.000  0.00  0.00    +0.000 A 
ATOM      4  C   UNL     1      -2.398   0.005   0.000  0.00  0.00    +0.000 A 
ATOM      5  C   UNL     1      -1.690   1.250   0.000  0.00  0.00    +0.000 A 
ATOM      6  C   UNL     1      -1.687   0.419   0.000  0.00  0.00    +0.000 A 
ATOM      7  N   UNL     1      -0.896   0.165   0.000  0.00  0.00    +0.000 N 
ATOM      8  C   UNL     1      -0.901   1.510   0.000  0.00  0.00    +0.000 A 
ATOM      9  C   UNL     1      -0.414   0.840   0.000  0.00  0.00    +0.000 A 
ATOM     10  C   UNL     1       0.742   1.684   0.000  0.00  0.00    +0.000 A 
ATOM     11  C   UNL     1       0.410   0.930   0.000  0.00  0.00    +0.000 A 
ATOM     12  N   UNL     1       1.023   0.381   0.000  0.00  0.00    +0.000 NA
ATOM     13  C   UNL     1       1.561   1.600   0.000  0.00  0.00    +0.000 A 
ATOM     14  C   UNL     1       1.733   0.796   0.000  0.00  0.00    +0.000 A 
ATOM     15  C   UNL     1       2.514   0.545   0.000  0.00  0.00    +0.000 A 
ATOM     16  C   UNL     1       3.123   1.096   0.000  0.00  0.00    +0.000 A 
ATOM     17  C   UNL     1       2.946   1.902   0.000  0.00  0.00    +0.000 A 
ATOM     18  C   UNL     1       2.166   2.150   0.000  0.00  0.00    +0.000 A 
ATOM     19  C   UNL     1      -0.568   2.262   0.000  0.00  0.00    +0.000 A 
ATOM     20  C   UNL     1       0.248   2.354   0.000  0.00  0.00    +0.000 A 
ATOM     21  C   UNL     1       0.413   3.158   0.000  0.00  0.00    +0.000 C 
ATOM     22  N   UNL     1      -0.301   3.564   0.000  0.00  0.00    +0.000 NA
ATOM     23  C   UNL     1      -0.907   3.010   0.000  0.00  0.00    +0.000 C 
ATOM     24 CL   UNL     1      -2.392  -0.825   0.000  0.00  0.00    +0.000 Cl
ATOM     25 CL   UNL     1       2.688  -0.266   0.000  0.00  0.00    +0.000 Cl
ATOM     26  O   UNL     1      -1.720   3.177   0.000  0.00  0.00    +0.000 OA
ATOM     27  O   UNL     1       1.169   3.501   0.000  0.00  0.00    +0.000 OA
ENDROOT
BRANCH   7  28
ATOM     28  C   UNL     1      -0.880  -0.660   0.000  0.00  0.00    +0.000 C 
ATOM     29  O   UNL     1      -1.589  -1.085   0.000  0.00  0.00    +0.000 OA
ATOM     30  C   UNL     1      -1.575  -1.906   0.000  0.00  0.00    +0.000 C 
ATOM     31  C   UNL     1      -0.854  -2.308   0.000  0.00  0.00    +0.000 C 
ATOM     32  C   UNL     1      -0.146  -1.883   0.000  0.00  0.00    +0.000 C 
ATOM     33  C   UNL     1      -0.159  -1.056   0.000  0.00  0.00    +0.000 C 
ATOM     34  O   UNL     1       0.552  -0.628   0.000  0.00  0.00    +0.000 OA
ATOM     35  O   UNL     1       0.579  -2.287   0.000  0.00  0.00    +0.000 OA
BRANCH  30  36
ATOM     36  C   UNL     1      -2.287  -2.332   0.000  0.00  0.00    +0.000 C 
ATOM     37  O   UNL     1      -3.012  -1.928   0.000  0.00  0.00    +0.000 OA
ENDBRANCH  30  36
BRANCH  31  38
ATOM     38  O   UNL     1      -0.842  -3.138   0.000  0.00  0.00    +0.000 OA
ATOM     39  C   UNL     1      -1.554  -3.564   0.000  0.00  0.00    +0.000 C 
ENDBRANCH  31  38
ENDBRANCH   7  28
TORSDOF 3
