REMARK  Name = 
REMARK  5 active torsions:
REMARK  status: ('A' for Active; 'I' for Inactive)
REMARK    1  A    between atoms: C_4  and  C_18
REMARK    2  A    between atoms: C_5  and  O_7
REMARK    3  A    between atoms: O_7  and  C_8
REMARK    4  A    between atoms: C_8  and  C_9
REMARK    5  A    between atoms: C_12  and  C_15
REMARK                            x       y       z     vdW  Elec       q    Type
REMARK                         _______ _______ _______ _____ _____    ______ ____
ROOT
ATOM      1  O   UNL     1       1.429  -1.650   0.000  0.00  0.00    +0.000 OA
ENDROOT
BRANCH   1   6
ATOM      2  C   UNL     1       2.143  -3.712   0.000  0.00  0.00    +0.000 A 
ATOM      3  C   UNL     1       1.429  -4.125   0.000  0.00  0.00    +0.000 A 
ATOM      4  C   UNL     1       0.715  -3.712   0.000  0.00  0.00    +0.000 A 
ATOM      5  C   UNL     1       0.715  -2.888   0.000  0.00  0.00    +0.000 A 
ATOM      6  C   UNL     1       1.429  -2.475   0.000  0.00  0.00    +0.000 A 
ATOM      7  C   UNL     1       2.143  -2.888   0.000  0.00  0.00    +0.000 A 
ATOM      8  O   UNL     1       0.000  -4.125   0.000  0.00  0.00    +0.000 OA
BRANCH   5   9
ATOM      9  C   UNL     1       0.000  -2.475   0.000  0.00  0.00    +0.000 C 
ATOM     10  O   UNL     1       0.000  -1.650   0.000  0.00  0.00    +0.000 OA
ENDBRANCH   5   9
ENDBRANCH   1   6
BRANCH   1  11
ATOM     11  C   UNL     1       0.715  -1.238   0.000  0.00  0.00    +0.000 C 
BRANCH  11  12
ATOM     12  C   UNL     1       0.715  -0.412   0.000  0.00  0.00    +0.000 A 
ATOM     13  C   UNL     1       0.000   0.000   0.000  0.00  0.00    +0.000 A 
ATOM     14  C   UNL     1       0.000   0.825   0.000  0.00  0.00    +0.000 A 
ATOM     15  C   UNL     1       0.715   1.238   0.000  0.00  0.00    +0.000 A 
ATOM     16  C   UNL     1       1.429   0.825   0.000  0.00  0.00    +0.000 A 
ATOM     17  C   UNL     1       1.429   0.000   0.000  0.00  0.00    +0.000 A 
BRANCH  15  18
ATOM     18  C   UNL     1       0.715   2.062   0.000  0.00  0.00    +0.000 C 
ATOM     19  O   UNL     1       0.000   2.475   0.000  0.00  0.00    +0.000 OA
ATOM     20  O   UNL     1       1.429   2.475   0.000  0.00  0.00    +0.000 OA
ENDBRANCH  15  18
ENDBRANCH  11  12
ENDBRANCH   1  11
TORSDOF 5
