REMARK  Name = 
REMARK  3 active torsions:
REMARK  status: ('A' for Active; 'I' for Inactive)
REMARK    1  A    between atoms: N_7  and  C1*_13
REMARK    2  A    between atoms: C_9  and  C_11
REMARK    3  A    between atoms: C4*_18  and  C5*_20
REMARK                            x       y       z     vdW  Elec       q    Type
REMARK                         _______ _______ _______ _____ _____    ______ ____
ROOT
ATOM      1  N   UNL     1       1.805   1.506   0.000  0.00  0.00    +0.000 NA
ATOM      2  N   UNL     1       1.496   0.111   0.000  0.00  0.00    +0.000 NA
ATOM      3  C   UNL     1       2.053   0.719   0.000  0.00  0.00    +0.000 A 
ATOM      4  C   UNL     1       0.442   1.076   0.000  0.00  0.00    +0.000 A 
ATOM      5  C   UNL     1       0.999   1.685   0.000  0.00  0.00    +0.000 A 
ATOM      6  C   UNL     1       0.690   0.289   0.000  0.00  0.00    +0.000 A 
ATOM      7  N   UNL     1       0.018  -0.190   0.000  0.00  0.00    +0.000 N 
ATOM      8  C   UNL     1      -0.645   0.301   0.000  0.00  0.00    +0.000 A 
ATOM      9  C   UNL     1      -0.383   1.083   0.000  0.00  0.00    +0.000 A 
ATOM     10  N   UNL     1       0.751   2.471   0.000  0.00  0.00    +0.000 NA
ENDROOT
BRANCH   7  11
ATOM     11  C1* UNL     1       0.014  -1.019   0.000  0.00  0.00    +0.000 C 
ATOM     12  C2* UNL     1      -0.241  -1.804   0.000  0.00  0.00    +0.000 C 
ATOM     13  O2* UNL     1       0.244  -2.471   0.000  0.00  0.00    +0.000 OA
ATOM     14  C3* UNL     1      -1.066  -1.804   0.000  0.00  0.00    +0.000 C 
ATOM     15  O3* UNL     1      -1.551  -2.471   0.000  0.00  0.00    +0.000 OA
ATOM     16  C4* UNL     1      -1.321  -1.019   0.000  0.00  0.00    +0.000 C 
ATOM     17  O4* UNL     1      -0.654  -0.534   0.000  0.00  0.00    +0.000 OA
BRANCH  16  18
ATOM     18  C5* UNL     1      -1.333  -0.195   0.000  0.00  0.00    +0.000 C 
ATOM     19  O5* UNL     1      -2.053   0.208   0.000  0.00  0.00    +0.000 OA
ENDBRANCH  16  18
ENDBRANCH   7  11
BRANCH   9  20
ATOM     20  C   UNL     1      -0.862   1.755   0.000  0.00  0.00    +0.000 C 
ATOM     21  N   UNL     1      -1.341   2.427   0.000  0.00  0.00    +0.000 NA
ENDBRANCH   9  20
TORSDOF 3
