REMARK  Name = 
REMARK  1 active torsions:
REMARK  status: ('A' for Active; 'I' for Inactive)
REMARK    1  A    between atoms: N_1  and  C_9
REMARK                            x       y       z     vdW  Elec       q    Type
REMARK                         _______ _______ _______ _____ _____    ______ ____
ROOT
ATOM      1  N   UNL     1      -0.013   0.158   0.000  0.00  0.00    +0.000 N 
ATOM      2  C   UNL     1       0.697   0.578   0.000  0.00  0.00    +0.000 A 
ATOM      3  N   UNL     1       0.697   1.393   0.000  0.00  0.00    +0.000 NA
ATOM      4  C   UNL     1      -0.723   0.578   0.000  0.00  0.00    +0.000 A 
ATOM      5  C   UNL     1      -0.723   1.393   0.000  0.00  0.00    +0.000 A 
ATOM      6  C   UNL     1      -0.013   1.814   0.000  0.00  0.00    +0.000 A 
ATOM      7  O   UNL     1       1.433   0.158   0.000  0.00  0.00    +0.000 OA
ATOM      8  O   UNL     1      -0.013   2.629   0.000  0.00  0.00    +0.000 OA
ATOM      9  F   UNL     1      -1.433   1.814   0.000  0.00  0.00    +0.000 F 
ENDROOT
BRANCH   1  12
ATOM     10  C   UNL     1       0.355  -1.945   0.000  0.00  0.00    +0.000 C 
ATOM     11  C   UNL     1       0.644  -1.157   0.000  0.00  0.00    +0.000 C 
ATOM     12  C   UNL     1      -0.013  -0.657   0.000  0.00  0.00    +0.000 C 
ATOM     13  O   UNL     1      -0.670  -1.157   0.000  0.00  0.00    +0.000 OA
ATOM     14  C   UNL     1      -0.434  -1.945   0.000  0.00  0.00    +0.000 C 
ATOM     15  C   UNL     1      -0.907  -2.603   0.000  0.00  0.00    +0.000 C 
ATOM     16  O   UNL     1       1.433  -0.946   0.000  0.00  0.00    +0.000 OA
ATOM     17  O   UNL     1       0.828  -2.629   0.000  0.00  0.00    +0.000 OA
ENDBRANCH   1  12
TORSDOF 1
