REMARK  Name = 
REMARK  13 active torsions:
REMARK  status: ('A' for Active; 'I' for Inactive)
REMARK    1  A    between atoms: N_4  and  C_5
REMARK    2  A    between atoms: N_4  and  C_25
REMARK    3  A    between atoms: C_5  and  C_6
REMARK    4  A    between atoms: C_6  and  C_7
REMARK    5  A    between atoms: C_7  and  C_8
REMARK    6  A    between atoms: C_8  and  N_9
REMARK    7  A    between atoms: N_9  and  C_10
REMARK    8  A    between atoms: C_10  and  C_11
REMARK    9  A    between atoms: C_11  and  C_12
REMARK   10  A    between atoms: C_12  and  N_13
REMARK   11  A    between atoms: C_25  and  C_26
REMARK   12  A    between atoms: C_26  and  C_27
REMARK   13  A    between atoms: C_27  and  N_28
REMARK                            x       y       z     vdW  Elec       q    Type
REMARK                         _______ _______ _______ _____ _____    ______ ____
ROOT
ATOM      1  C   UNL     1       9.288  -8.662   0.000  0.00  0.00    +0.000 C 
ENDROOT
BRANCH   1   5
ATOM      2  C   UNL     1      10.717 -10.312   0.000  0.00  0.00    +0.000 C 
ATOM      3  C   UNL     1      10.003  -9.900   0.000  0.00  0.00    +0.000 C 
ATOM      4  O   UNL     1       9.288 -10.312   0.000  0.00  0.00    +0.000 OA
ATOM      5  N   UNL     1      10.003  -9.075   0.000  0.00  0.00    +0.000 N 
BRANCH   5   6
ATOM      6  C   UNL     1      10.717  -8.662   0.000  0.00  0.00    +0.000 C 
BRANCH   6   7
ATOM      7  C   UNL     1      11.431  -9.075   0.000  0.00  0.00    +0.000 C 
BRANCH   7   8
ATOM      8  C   UNL     1      12.146  -8.662   0.000  0.00  0.00    +0.000 C 
BRANCH   8   9
ATOM      9  N   UNL     1      12.861  -9.075   0.000  0.00  0.00    +0.000 N 
ATOM     10  C   UNL     1      13.575  -8.662   0.000  0.00  0.00    +0.000 A 
ATOM     11  O   UNL     1      13.575  -7.838   0.000  0.00  0.00    +0.000 OA
ATOM     12  C   UNL     1      14.289  -9.075   0.000  0.00  0.00    +0.000 A 
ATOM     13  C   UNL     1      15.004  -8.662   0.000  0.00  0.00    +0.000 A 
ATOM     14  C   UNL     1      15.718  -9.075   0.000  0.00  0.00    +0.000 A 
ATOM     15  C   UNL     1      15.718  -9.900   0.000  0.00  0.00    +0.000 A 
ATOM     16  C   UNL     1      15.004 -10.312   0.000  0.00  0.00    +0.000 A 
ATOM     17  C   UNL     1      14.289  -9.900   0.000  0.00  0.00    +0.000 A 
ATOM     18  N   UNL     1      13.575 -10.312   0.000  0.00  0.00    +0.000 NA
ATOM     19  C   UNL     1      12.861  -9.900   0.000  0.00  0.00    +0.000 A 
ATOM     20  O   UNL     1      12.146 -10.312   0.000  0.00  0.00    +0.000 OA
ENDBRANCH   8   9
ENDBRANCH   7   8
ENDBRANCH   6   7
ENDBRANCH   5   6
ENDBRANCH   1   5
BRANCH   1  21
ATOM     21  C   UNL     1       8.574  -9.075   0.000  0.00  0.00    +0.000 C 
BRANCH  21  22
ATOM     22  C   UNL     1       7.859  -8.662   0.000  0.00  0.00    +0.000 C 
BRANCH  22  23
ATOM     23  C   UNL     1       7.145  -9.075   0.000  0.00  0.00    +0.000 C 
BRANCH  23  24
ATOM     24  N   UNL     1       6.430  -8.662   0.000  0.00  0.00    +0.000 NA
BRANCH  24  25
ATOM     25  C   UNL     1       5.716  -9.075   0.000  0.00  0.00    +0.000 C 
BRANCH  25  26
ATOM     26  C   UNL     1       5.001  -8.662   0.000  0.00  0.00    +0.000 C 
BRANCH  26  27
ATOM     27  C   UNL     1       4.287  -9.075   0.000  0.00  0.00    +0.000 C 
BRANCH  27  28
ATOM     28  N   UNL     1       3.572  -8.662   0.000  0.00  0.00    +0.000 N 
ATOM     29  C   UNL     1       2.858  -9.075   0.000  0.00  0.00    +0.000 A 
ATOM     30  O   UNL     1       2.858  -9.900   0.000  0.00  0.00    +0.000 OA
ATOM     31  C   UNL     1       2.143  -8.662   0.000  0.00  0.00    +0.000 A 
ATOM     32  C   UNL     1       1.429  -9.075   0.000  0.00  0.00    +0.000 A 
ATOM     33  C   UNL     1       0.715  -8.662   0.000  0.00  0.00    +0.000 A 
ATOM     34  C   UNL     1       0.715  -7.838   0.000  0.00  0.00    +0.000 A 
ATOM     35  C   UNL     1       1.429  -7.425   0.000  0.00  0.00    +0.000 A 
ATOM     36  C   UNL     1       2.143  -7.838   0.000  0.00  0.00    +0.000 A 
ATOM     37  N   UNL     1       2.858  -7.425   0.000  0.00  0.00    +0.000 NA
ATOM     38  C   UNL     1       3.572  -7.838   0.000  0.00  0.00    +0.000 A 
ATOM     39  O   UNL     1       4.287  -7.425   0.000  0.00  0.00    +0.000 OA
ENDBRANCH  27  28
ENDBRANCH  26  27
ENDBRANCH  25  26
ENDBRANCH  24  25
ENDBRANCH  23  24
ENDBRANCH  22  23
ENDBRANCH  21  22
ENDBRANCH   1  21
TORSDOF 13
