REMARK  Name = 
REMARK  5 active torsions:
REMARK  status: ('A' for Active; 'I' for Inactive)
REMARK    1  A    between atoms: C_12  and  C_15
REMARK    2  A    between atoms: C_12  and  C_24
REMARK    3  A    between atoms: C_15  and  N_31
REMARK    4  A    between atoms: C_19  and  C_25
REMARK    5  A    between atoms: C_20  and  C_25
REMARK                            x       y       z     vdW  Elec       q    Type
REMARK                         _______ _______ _______ _____ _____    ______ ____
ROOT
ATOM      1  C   UNL     1       5.496   4.823   0.000  0.00  0.00    +0.000 C 
ATOM      2  C   UNL     1       6.210   3.585   0.000  0.00  0.00    +0.000 C 
ATOM      3  C   UNL     1       4.781   4.410   0.000  0.00  0.00    +0.000 C 
ATOM      4  C   UNL     1       5.496   3.173   0.000  0.00  0.00    +0.000 C 
ATOM      5  C   UNL     1       6.210   4.410   0.000  0.00  0.00    +0.000 C 
ATOM      6  C   UNL     1       6.925   4.823   0.000  0.00  0.00    +0.000 C 
ATOM      7  N   UNL     1       4.781   3.585   0.000  0.00  0.00    +0.000 NA
ENDROOT
BRANCH   6  12
ATOM      8  C   UNL     1       7.639   6.060   0.000  0.00  0.00    +0.000 A 
ATOM      9  C   UNL     1       6.210   6.060   0.000  0.00  0.00    +0.000 A 
ATOM     10  C   UNL     1       7.639   6.885   0.000  0.00  0.00    +0.000 A 
ATOM     11  C   UNL     1       6.210   6.885   0.000  0.00  0.00    +0.000 A 
ATOM     12  C   UNL     1       6.925   5.648   0.000  0.00  0.00    +0.000 A 
ATOM     13  C   UNL     1       6.925   7.298   0.000  0.00  0.00    +0.000 A 
ATOM     14  F   UNL     1       6.925   8.123   0.000  0.00  0.00    +0.000 F 
ENDBRANCH   6  12
BRANCH   6  19
ATOM     15  C   UNL     1       7.639   3.585   0.000  0.00  0.00    +0.000 A 
ATOM     16  C   UNL     1       8.354   4.823   0.000  0.00  0.00    +0.000 A 
ATOM     17  C   UNL     1       8.354   3.173   0.000  0.00  0.00    +0.000 A 
ATOM     18  C   UNL     1       9.068   4.410   0.000  0.00  0.00    +0.000 A 
ATOM     19  C   UNL     1       7.639   4.410   0.000  0.00  0.00    +0.000 A 
ATOM     20  C   UNL     1       9.068   3.585   0.000  0.00  0.00    +0.000 A 
ATOM     21  F   UNL     1       9.783   3.173   0.000  0.00  0.00    +0.000 F 
ENDBRANCH   6  19
BRANCH   7  22
ATOM     22  C   UNL     1       4.067   3.173   0.000  0.00  0.00    +0.000 C 
BRANCH  22  23
ATOM     23  C   UNL     1       4.067   2.348   0.000  0.00  0.00    +0.000 C 
BRANCH  23  28
ATOM     24  C   UNL     1       4.067   0.698   0.000  0.00  0.00    +0.000 C 
ATOM     25  C   UNL     1       1.139   2.190   0.000  0.00  0.00    +0.000 A 
ATOM     26  C   UNL     1       0.654   1.523   0.000  0.00  0.00    +0.000 A 
ATOM     27  C   UNL     1       3.352   1.110   0.000  0.00  0.00    +0.000 A 
ATOM     28  C   UNL     1       3.352   1.935   0.000  0.00  0.00    +0.000 A 
ATOM     29  C   UNL     1       2.638   2.348   0.000  0.00  0.00    +0.000 A 
ATOM     30  C   UNL     1       1.923   1.110   0.000  0.00  0.00    +0.000 A 
ATOM     31  N   UNL     1       2.638   0.698   0.000  0.00  0.00    +0.000 NA
ATOM     32  N   UNL     1       1.923   1.935   0.000  0.00  0.00    +0.000 N 
ATOM     33  O   UNL     1       2.638   3.173   0.000  0.00  0.00    +0.000 OA
ATOM     34  S   UNL     1       1.139   0.856   0.000  0.00  0.00    +0.000 S 
ENDBRANCH  23  28
ENDBRANCH  22  23
ENDBRANCH   7  22
TORSDOF 5
