REMARK  Name = 
REMARK  5 active torsions:
REMARK  status: ('A' for Active; 'I' for Inactive)
REMARK    1  A    between atoms: C_3  and  C_39
REMARK    2  A    between atoms: C_8  and  C_20
REMARK    3  A    between atoms: C_19  and  C_25
REMARK    4  A    between atoms: C_19  and  N_40
REMARK    5  A    between atoms: C_20  and  C_22
REMARK                            x       y       z     vdW  Elec       q    Type
REMARK                         _______ _______ _______ _____ _____    ______ ____
ROOT
ATOM      1  C   UNL     1       0.082   3.862   0.000  0.00  0.00    +0.000 C 
ATOM      2  C   UNL     1       0.796   3.449   0.000  0.00  0.00    +0.000 C 
ATOM      3  N   UNL     1       0.796   2.624   0.000  0.00  0.00    +0.000 N 
ATOM      4  N   UNL     1      -0.633   3.450   0.000  0.00  0.00    +0.000 N 
ATOM      5  C   UNL     1      -1.417   2.370   0.000  0.00  0.00    +0.000 C 
ATOM      6  C   UNL     1      -1.902   3.037   0.000  0.00  0.00    +0.000 C 
ATOM      7  C   UNL     1      -1.417   3.705   0.000  0.00  0.00    +0.000 C 
ATOM      8  O   UNL     1       0.253   1.405   0.000  0.00  0.00    +0.000 OA
ATOM      9  O   UNL     1       0.082   4.687   0.000  0.00  0.00    +0.000 OA
ATOM     10  C   UNL     1       1.409   2.072   0.000  0.00  0.00    +0.000 C 
ATOM     11  O   UNL     1       2.216   2.244   0.000  0.00  0.00    +0.000 OA
ATOM     12  C   UNL     1       1.073   1.319   0.000  0.00  0.00    +0.000 C 
ATOM     13  C   UNL     1      -0.633   2.625   0.000  0.00  0.00    +0.000 C 
ATOM     14  C   UNL     1       0.081   2.212   0.000  0.00  0.00    +0.000 C 
ATOM     15  O   UNL     1       0.081   3.037   0.000  0.00  0.00    +0.000 OA
ENDROOT
BRANCH  12  18
ATOM     16  C   UNL     1       1.788   0.081   0.000  0.00  0.00    +0.000 C 
ATOM     17  C   UNL     1       2.502   1.319   0.000  0.00  0.00    +0.000 C 
ATOM     18  C   UNL     1       1.788   0.906   0.000  0.00  0.00    +0.000 C 
ENDBRANCH  12  18
BRANCH  12  20
ATOM     19  C   UNL     1       0.359   0.081   0.000  0.00  0.00    +0.000 C 
ATOM     20  N   UNL     1       1.073   0.494   0.000  0.00  0.00    +0.000 NA
ATOM     21  O   UNL     1      -0.356   0.494   0.000  0.00  0.00    +0.000 OA
BRANCH  19  24
ATOM     22  C   UNL     1       0.359  -2.394   0.000  0.00  0.00    +0.000 C 
ATOM     23  N   UNL     1       1.073  -1.981   0.000  0.00  0.00    +0.000 NA
ATOM     24  C   UNL     1       0.359  -0.744   0.000  0.00  0.00    +0.000 C 
ATOM     25  C   UNL     1      -0.356  -1.156   0.000  0.00  0.00    +0.000 C 
ATOM     26  C   UNL     1       1.073  -1.156   0.000  0.00  0.00    +0.000 C 
ATOM     27  C   UNL     1      -0.356  -1.981   0.000  0.00  0.00    +0.000 C 
ATOM     28  C   UNL     1       1.788  -2.394   0.000  0.00  0.00    +0.000 C 
ATOM     29  C   UNL     1      -1.041  -3.204   0.000  0.00  0.00    +0.000 A 
ATOM     30  C   UNL     1      -1.070  -2.393   0.000  0.00  0.00    +0.000 A 
ATOM     31  C   UNL     1      -1.693  -3.680   0.000  0.00  0.00    +0.000 A 
ATOM     32  C   UNL     1      -1.816  -2.030   0.000  0.00  0.00    +0.000 A 
ATOM     33  C   UNL     1       0.364  -3.220   0.000  0.00  0.00    +0.000 C 
ATOM     34  C   UNL     1      -2.440  -3.317   0.000  0.00  0.00    +0.000 A 
ATOM     35  C   UNL     1      -2.502  -2.491   0.000  0.00  0.00    +0.000 A 
ATOM     36  C   UNL     1      -0.353  -3.635   0.000  0.00  0.00    +0.000 A 
ATOM     37  C   UNL     1      -0.584  -4.433   0.000  0.00  0.00    +0.000 A 
ATOM     38 BR   UNL     1      -0.098  -5.099   0.000  0.00  0.00    +0.000 Br
ATOM     39  N   UNL     1      -1.411  -4.460   0.000  0.00  0.00    +0.000 NA
ENDBRANCH  19  24
ENDBRANCH  12  20
BRANCH   2  40
ATOM     40  C   UNL     1       1.510   3.862   0.000  0.00  0.00    +0.000 C 
BRANCH  40  42
ATOM     41  C   UNL     1       2.225   5.099   0.000  0.00  0.00    +0.000 C 
ATOM     42  C   UNL     1       1.511   4.687   0.000  0.00  0.00    +0.000 C 
ATOM     43  C   UNL     1       0.796   5.099   0.000  0.00  0.00    +0.000 C 
ENDBRANCH  40  42
ENDBRANCH   2  40
TORSDOF 5
