REMARK  Name = 
REMARK  2 active torsions:
REMARK  status: ('A' for Active; 'I' for Inactive)
REMARK    1  A    between atoms: C_4  and  N_11
REMARK    2  A    between atoms: C_14  and  C_21
REMARK                            x       y       z     vdW  Elec       q    Type
REMARK                         _______ _______ _______ _____ _____    ______ ____
ROOT
ATOM      1  C   UNL     1       0.695  -0.198   0.000  0.00  0.00    +0.000 C 
ATOM      2  C   UNL     1       0.705   0.604   0.000  0.00  0.00    +0.000 C 
ATOM      3  C   UNL     1      -0.040  -0.603   0.000  0.00  0.00    +0.000 C 
ATOM      4  C   UNL     1       1.417  -0.640   0.000  0.00  0.00    +0.000 C 
ATOM      5  C   UNL     1      -0.001   1.022   0.000  0.00  0.00    +0.000 C 
ATOM      6  C   UNL     1       1.455   1.046   0.000  0.00  0.00    +0.000 C 
ATOM      7  O   UNL     1       0.705   1.429   0.000  0.00  0.00    +0.000 OA
ATOM      8  C   UNL     1      -0.750  -0.197   0.000  0.00  0.00    +0.000 C 
ATOM      9  O   UNL     1      -0.040  -1.428   0.000  0.00  0.00    +0.000 OA
ATOM     10  C   UNL     1       2.163  -0.220   0.000  0.00  0.00    +0.000 C 
ATOM     11  C   UNL     1      -0.742   0.628   0.000  0.00  0.00    +0.000 C 
ATOM     12  O   UNL     1      -0.001   1.846   0.000  0.00  0.00    +0.000 OA
ATOM     13  C   UNL     1       2.169   0.592   0.000  0.00  0.00    +0.000 C 
ATOM     14  O   UNL     1       1.455   1.871   0.000  0.00  0.00    +0.000 OA
ATOM     15  C   UNL     1      -1.471  -0.602   0.000  0.00  0.00    +0.000 C 
ATOM     16  O   UNL     1       2.879  -0.632   0.000  0.00  0.00    +0.000 OA
ATOM     17  C   UNL     1      -1.441   1.053   0.000  0.00  0.00    +0.000 C 
ATOM     18  C   UNL     1      -2.174  -0.184   0.000  0.00  0.00    +0.000 A 
ATOM     19  C   UNL     1      -2.174   0.641   0.000  0.00  0.00    +0.000 A 
ATOM     20  O   UNL     1      -1.441   1.878   0.000  0.00  0.00    +0.000 OA
ATOM     21  C   UNL     1      -2.891  -0.585   0.000  0.00  0.00    +0.000 A 
ATOM     22  C   UNL     1      -2.859   1.053   0.000  0.00  0.00    +0.000 A 
ATOM     23  C   UNL     1      -3.605  -0.174   0.000  0.00  0.00    +0.000 A 
ATOM     24  C   UNL     1      -3.605   0.652   0.000  0.00  0.00    +0.000 A 
ATOM     25  O   UNL     1      -2.859   1.878   0.000  0.00  0.00    +0.000 OA
ATOM     26  C   UNL     1      -1.481  -1.427   0.000  0.00  0.00    +0.000 C 
ENDROOT
BRANCH   4  27
ATOM     27  N   UNL     1       1.417  -1.465   0.000  0.00  0.00    +0.000 NA
ATOM     28  C   UNL     1       2.124  -1.873   0.000  0.00  0.00    +0.000 C 
ATOM     29  C   UNL     1       0.697  -1.878   0.000  0.00  0.00    +0.000 C 
ENDBRANCH   4  27
BRANCH  13  30
ATOM     30  C   UNL     1       2.885   1.005   0.000  0.00  0.00    +0.000 C 
ATOM     31  N   UNL     1       3.605   0.588   0.000  0.00  0.00    +0.000 NA
ATOM     32  O   UNL     1       2.885   1.825   0.000  0.00  0.00    +0.000 OA
ENDBRANCH  13  30
TORSDOF 2
