REMARK  Name = 
REMARK  12 active torsions:
REMARK  status: ('A' for Active; 'I' for Inactive)
REMARK    1  A    between atoms: C_1  and  C_4
REMARK    2  A    between atoms: C_1  and  N_7
REMARK    3  A    between atoms: C_2  and  C_5
REMARK    4  A    between atoms: C_2  and  N_7
REMARK    5  A    between atoms: C_3  and  C_6
REMARK    6  A    between atoms: C_3  and  N_7
REMARK    7  A    between atoms: C_4  and  O_17
REMARK    8  A    between atoms: C_5  and  O_18
REMARK    9  A    between atoms: C_6  and  O_19
REMARK   10  A    between atoms: N_8  and  O_17
REMARK   11  A    between atoms: N_9  and  O_18
REMARK   12  A    between atoms: N_10  and  O_19
REMARK                            x       y       z     vdW  Elec       q    Type
REMARK                         _______ _______ _______ _____ _____    ______ ____
ROOT
ATOM      1  N   UNL     1       2.254   0.383   0.000  0.00  0.00    +0.000 NA
ENDROOT
BRANCH   1   2
ATOM      2  C   UNL     1       2.968   0.795   0.000  0.00  0.00    +0.000 C 
BRANCH   2   3
ATOM      3  C   UNL     1       2.968   1.620   0.000  0.00  0.00    +0.000 C 
BRANCH   3   4
ATOM      4  O   UNL     1       3.683   2.033   0.000  0.00  0.00    +0.000 OA
BRANCH   4   5
ATOM      5  N   UNL     1       3.683   2.858   0.000  0.00  0.00    +0.000 N 
ATOM      6  O   UNL     1       2.968   3.270   0.000  0.00  0.00    +0.000 OA
ATOM      7  O   UNL     1       4.397   3.270   0.000  0.00  0.00    +0.000 OA
ENDBRANCH   4   5
ENDBRANCH   3   4
ENDBRANCH   2   3
ENDBRANCH   1   2
BRANCH   1   8
ATOM      8  C   UNL     1       1.540   0.795   0.000  0.00  0.00    +0.000 C 
BRANCH   8   9
ATOM      9  C   UNL     1       1.540   1.620   0.000  0.00  0.00    +0.000 C 
BRANCH   9  10
ATOM     10  O   UNL     1       0.825   2.033   0.000  0.00  0.00    +0.000 OA
BRANCH  10  11
ATOM     11  N   UNL     1       0.825   2.858   0.000  0.00  0.00    +0.000 N 
ATOM     12  O   UNL     1       0.111   3.270   0.000  0.00  0.00    +0.000 OA
ATOM     13  O   UNL     1       1.540   3.270   0.000  0.00  0.00    +0.000 OA
ENDBRANCH  10  11
ENDBRANCH   9  10
ENDBRANCH   8   9
ENDBRANCH   1   8
BRANCH   1  14
ATOM     14  C   UNL     1       2.254  -0.442   0.000  0.00  0.00    +0.000 C 
BRANCH  14  15
ATOM     15  C   UNL     1       2.968  -0.855   0.000  0.00  0.00    +0.000 C 
BRANCH  15  16
ATOM     16  O   UNL     1       2.968  -1.680   0.000  0.00  0.00    +0.000 OA
BRANCH  16  17
ATOM     17  N   UNL     1       3.683  -2.092   0.000  0.00  0.00    +0.000 N 
ATOM     18  O   UNL     1       3.683  -2.917   0.000  0.00  0.00    +0.000 OA
ATOM     19  O   UNL     1       4.397  -1.680   0.000  0.00  0.00    +0.000 OA
ENDBRANCH  16  17
ENDBRANCH  15  16
ENDBRANCH  14  15
ENDBRANCH   1  14
TORSDOF 12
