REMARK  Name = 
REMARK  10 active torsions:
REMARK  status: ('A' for Active; 'I' for Inactive)
REMARK    1  A    between atoms: N_2  and  C_3
REMARK    2  A    between atoms: C_5  and  N_6
REMARK    3  A    between atoms: N_9  and  C_10
REMARK    4  A    between atoms: C_12  and  C_13
REMARK    5  A    between atoms: N_25  and  C_26
REMARK    6  A    between atoms: C_26  and  C_27
REMARK    7  A    between atoms: C_27  and  C_29
REMARK    8  A    between atoms: C_29  and  C_32
REMARK    9  A    between atoms: C_32  and  O_33
REMARK   10  A    between atoms: O_33  and  C_34
REMARK                            x       y       z     vdW  Elec       q    Type
REMARK                         _______ _______ _______ _____ _____    ______ ____
ROOT
ATOM      1  C   UNL     1       3.728   1.944   0.000  0.00  0.00    +0.000 C 
ATOM      2  N   UNL     1       3.370   1.201   0.000  0.00  0.00    +0.000 NA
ATOM      3  C   UNL     1       2.566   1.017   0.000  0.00  0.00    +0.000 C 
ATOM      4  C   UNL     1       1.921   1.532   0.000  0.00  0.00    +0.000 A 
ATOM      5  C   UNL     1       1.206   1.119   0.000  0.00  0.00    +0.000 A 
ATOM      6  C   UNL     1       0.492   1.532   0.000  0.00  0.00    +0.000 A 
ATOM      7  C   UNL     1       0.492   2.357   0.000  0.00  0.00    +0.000 A 
ATOM      8  C   UNL     1       1.206   2.769   0.000  0.00  0.00    +0.000 A 
ATOM      9  C   UNL     1       1.921   2.357   0.000  0.00  0.00    +0.000 A 
ATOM     10  N   UNL     1       2.566   2.871   0.000  0.00  0.00    +0.000 N 
ATOM     11  C   UNL     1       3.370   2.687   0.000  0.00  0.00    +0.000 C 
ATOM     12  O   UNL     1       3.884   3.333   0.000  0.00  0.00    +0.000 OA
ENDROOT
BRANCH   3  13
ATOM     13  C   UNL     1       2.382   0.213   0.000  0.00  0.00    +0.000 A 
ATOM     14  N   UNL     1       2.987  -0.348   0.000  0.00  0.00    +0.000 NA
ATOM     15  C   UNL     1       2.803  -1.153   0.000  0.00  0.00    +0.000 A 
ATOM     16  C   UNL     1       2.015  -1.396   0.000  0.00  0.00    +0.000 A 
ATOM     17  C   UNL     1       1.410  -0.835   0.000  0.00  0.00    +0.000 A 
ATOM     18  C   UNL     1       1.594  -0.030   0.000  0.00  0.00    +0.000 A 
ENDBRANCH   3  13
BRANCH   1  22
ATOM     19  N   UNL     1       5.790   1.230   0.000  0.00  0.00    +0.000 NA
ATOM     20  C   UNL     1       4.965   1.230   0.000  0.00  0.00    +0.000 C 
ATOM     21  O   UNL     1       4.553   0.515   0.000  0.00  0.00    +0.000 OA
ATOM     22  N   UNL     1       4.553   1.944   0.000  0.00  0.00    +0.000 NA
BRANCH  19  25
ATOM     23  C   UNL     1       6.203  -0.914   0.000  0.00  0.00    +0.000 A 
ATOM     24  C   UNL     1       5.790  -0.199   0.000  0.00  0.00    +0.000 A 
ATOM     25  C   UNL     1       6.203   0.515   0.000  0.00  0.00    +0.000 A 
ATOM     26  C   UNL     1       7.028   0.515   0.000  0.00  0.00    +0.000 A 
ATOM     27  C   UNL     1       7.440  -0.199   0.000  0.00  0.00    +0.000 A 
ATOM     28  C   UNL     1       7.028  -0.914   0.000  0.00  0.00    +0.000 A 
BRANCH  23  30
ATOM     29  C   UNL     1       6.203  -2.343   0.000  0.00  0.00    +0.000 C 
ATOM     30  N   UNL     1       5.790  -1.628   0.000  0.00  0.00    +0.000 NA
ENDBRANCH  23  30
ENDBRANCH  19  25
ENDBRANCH   1  22
BRANCH  10  31
ATOM     31  C   UNL     1       2.382   3.675   0.000  0.00  0.00    +0.000 C 
BRANCH  31  32
ATOM     32  C   UNL     1       1.594   3.918   0.000  0.00  0.00    +0.000 C 
ATOM     33  O   UNL     1       0.989   3.357   0.000  0.00  0.00    +0.000 OA
BRANCH  32  34
ATOM     34  C   UNL     1       1.410   4.723   0.000  0.00  0.00    +0.000 C 
ATOM     35  C   UNL     1       2.214   4.906   0.000  0.00  0.00    +0.000 C 
ATOM     36  C   UNL     1       0.606   4.539   0.000  0.00  0.00    +0.000 C 
BRANCH  34  37
ATOM     37  C   UNL     1       1.226   5.527   0.000  0.00  0.00    +0.000 C 
BRANCH  37  38
ATOM     38  O   UNL     1       0.438   5.770   0.000  0.00  0.00    +0.000 OA
BRANCH  38  39
ATOM     39  C   UNL     1       0.255   6.575   0.000  0.00  0.00    +0.000 C 
ATOM     40  C   UNL     1      -0.534   6.818   0.000  0.00  0.00    +0.000 C 
ATOM     41  O   UNL     1       0.859   7.136   0.000  0.00  0.00    +0.000 OA
ENDBRANCH  38  39
ENDBRANCH  37  38
ENDBRANCH  34  37
ENDBRANCH  32  34
ENDBRANCH  31  32
ENDBRANCH  10  31
TORSDOF 10
