REMARK  Name = 
REMARK  14 active torsions:
REMARK  status: ('A' for Active; 'I' for Inactive)
REMARK    1  A    between atoms: C_2  and  C_4
REMARK    2  A    between atoms: C_4  and  C_5
REMARK    3  A    between atoms: C_4  and  C_21
REMARK    4  A    between atoms: C_4  and  C_23
REMARK    5  A    between atoms: C_5  and  C_6
REMARK    6  A    between atoms: C_6  and  C_7
REMARK    7  A    between atoms: C_7  and  N_8
REMARK    8  A    between atoms: N_8  and  C_9
REMARK    9  A    between atoms: C_9  and  C_10
REMARK   10  A    between atoms: C_10  and  C_11
REMARK   11  A    between atoms: C_14  and  O_19
REMARK   12  A    between atoms: C_15  and  O_17
REMARK   13  A    between atoms: C_26  and  O_31
REMARK   14  A    between atoms: C_27  and  O_29
REMARK                            x       y       z     vdW  Elec       q    Type
REMARK                         _______ _______ _______ _____ _____    ______ ____
ROOT
ATOM      1  C   UNL     1      -0.715  -3.712   0.000  0.00  0.00    +0.000 C 
ENDROOT
BRANCH   1   2
ATOM      2  C   UNL     1      -1.429  -3.300   0.000  0.00  0.00    +0.000 A 
ATOM      3  C   UNL     1      -2.143  -3.712   0.000  0.00  0.00    +0.000 A 
ATOM      4  C   UNL     1      -2.858  -3.300   0.000  0.00  0.00    +0.000 A 
ATOM      5  C   UNL     1      -2.858  -2.475   0.000  0.00  0.00    +0.000 A 
ATOM      6  C   UNL     1      -2.143  -2.062   0.000  0.00  0.00    +0.000 A 
ATOM      7  C   UNL     1      -1.429  -2.475   0.000  0.00  0.00    +0.000 A 
BRANCH   5   8
ATOM      8  O   UNL     1      -3.572  -2.062   0.000  0.00  0.00    +0.000 OA
ATOM      9  C   UNL     1      -4.287  -2.475   0.000  0.00  0.00    +0.000 C 
ENDBRANCH   5   8
BRANCH   6  10
ATOM     10  O   UNL     1      -2.143  -1.238   0.000  0.00  0.00    +0.000 OA
ATOM     11  C   UNL     1      -1.429  -0.825   0.000  0.00  0.00    +0.000 C 
ENDBRANCH   6  10
ENDBRANCH   1   2
BRANCH   1  13
ATOM     12  C   UNL     1      -0.715  -2.284   0.000  0.00  0.00    +0.000 C 
ATOM     13  C   UNL     1      -0.302  -2.998   0.000  0.00  0.00    +0.000 C 
ATOM     14  C   UNL     1       0.523  -2.998   0.000  0.00  0.00    +0.000 C 
ENDBRANCH   1  13
BRANCH   1  15
ATOM     15  C   UNL     1      -1.127  -4.427   0.000  0.00  0.00    +0.000 C 
ATOM     16  N   UNL     1      -1.540  -5.141   0.000  0.00  0.00    +0.000 NA
ENDBRANCH   1  15
BRANCH   1  17
ATOM     17  C   UNL     1       0.000  -4.125   0.000  0.00  0.00    +0.000 C 
BRANCH  17  18
ATOM     18  C   UNL     1       0.715  -3.712   0.000  0.00  0.00    +0.000 C 
BRANCH  18  19
ATOM     19  C   UNL     1       1.429  -4.125   0.000  0.00  0.00    +0.000 C 
BRANCH  19  20
ATOM     20  N   UNL     1       2.143  -3.712   0.000  0.00  0.00    +0.000 NA
BRANCH  20  21
ATOM     21  C   UNL     1       2.858  -4.125   0.000  0.00  0.00    +0.000 C 
BRANCH  21  22
ATOM     22  C   UNL     1       3.572  -3.712   0.000  0.00  0.00    +0.000 C 
BRANCH  22  23
ATOM     23  C   UNL     1       4.287  -4.125   0.000  0.00  0.00    +0.000 A 
ATOM     24  C   UNL     1       5.001  -3.712   0.000  0.00  0.00    +0.000 A 
ATOM     25  C   UNL     1       5.716  -4.125   0.000  0.00  0.00    +0.000 A 
ATOM     26  C   UNL     1       5.716  -4.950   0.000  0.00  0.00    +0.000 A 
ATOM     27  C   UNL     1       5.001  -5.362   0.000  0.00  0.00    +0.000 A 
ATOM     28  C   UNL     1       4.287  -4.950   0.000  0.00  0.00    +0.000 A 
BRANCH  27  29
ATOM     29  O   UNL     1       5.001  -6.188   0.000  0.00  0.00    +0.000 OA
ATOM     30  C   UNL     1       4.287  -6.600   0.000  0.00  0.00    +0.000 C 
ENDBRANCH  27  29
BRANCH  26  31
ATOM     31  O   UNL     1       6.430  -5.362   0.000  0.00  0.00    +0.000 OA
ATOM     32  C   UNL     1       6.430  -6.188   0.000  0.00  0.00    +0.000 C 
ENDBRANCH  26  31
ENDBRANCH  22  23
ENDBRANCH  21  22
ENDBRANCH  20  21
ENDBRANCH  19  20
ENDBRANCH  18  19
ENDBRANCH  17  18
ENDBRANCH   1  17
TORSDOF 14
