REMARK  Name = 
REMARK  9 active torsions:
REMARK  status: ('A' for Active; 'I' for Inactive)
REMARK    1  A    between atoms: N_1  and  C_2
REMARK    2  A    between atoms: N_1  and  C_20
REMARK    3  A    between atoms: C_5  and  C_8
REMARK    4  A    between atoms: N_10  and  CA_11
REMARK    5  A    between atoms: CA_11  and  CB_12
REMARK    6  A    between atoms: CA_11  and  C_17
REMARK    7  A    between atoms: CB_12  and  CG_13
REMARK    8  A    between atoms: CG_13  and  CD_14
REMARK    9  A    between atoms: C_20  and  C_21
REMARK                            x       y       z     vdW  Elec       q    Type
REMARK                         _______ _______ _______ _____ _____    ______ ____
ROOT
ATOM      1  C   UNK A   0      -7.859  -4.537   0.000  0.00  0.00    +0.000 A 
ATOM      2  C   UNK A   0      -7.859  -3.712   0.000  0.00  0.00    +0.000 A 
ATOM      3  C   UNK A   0      -7.145  -3.300   0.000  0.00  0.00    +0.000 A 
ATOM      4  C   UNK A   0      -6.430  -3.712   0.000  0.00  0.00    +0.000 A 
ATOM      5  C   UNK A   0      -6.430  -4.537   0.000  0.00  0.00    +0.000 A 
ATOM      6  C   UNK A   0      -7.145  -4.950   0.000  0.00  0.00    +0.000 A 
ENDROOT
BRANCH   4   7
ATOM      7  C   UNK A   0      -5.716  -3.300   0.000  0.00  0.00    +0.000 C 
ATOM      8  O   UNK A   0      -5.716  -2.475   0.000  0.00  0.00    +0.000 OA
ATOM      9  N   GLU A   1      -5.001  -3.712   0.000  0.00  0.00    +0.000 NA
BRANCH   9  10
ATOM     10  CA  GLU A   1      -4.287  -3.300   0.000  0.00  0.00    +0.000 C 
BRANCH  10  11
ATOM     11  C   GLU A   1      -4.287  -2.475   0.000  0.00  0.00    +0.000 C 
ATOM     12  O   GLU A   1      -3.572  -2.062   0.000  0.00  0.00    +0.000 OA
ATOM     13  OXT GLU A   1      -5.001  -2.062   0.000  0.00  0.00    +0.000 OA
ENDBRANCH  10  11
BRANCH  10  14
ATOM     14  CB  GLU A   1      -3.572  -3.712   0.000  0.00  0.00    +0.000 C 
BRANCH  14  15
ATOM     15  CG  GLU A   1      -2.858  -3.300   0.000  0.00  0.00    +0.000 C 
BRANCH  15  16
ATOM     16  CD  GLU A   1      -2.143  -3.712   0.000  0.00  0.00    +0.000 C 
ATOM     17  OE1 GLU A   1      -1.429  -3.300   0.000  0.00  0.00    +0.000 OA
ATOM     18  OE2 GLU A   1      -2.143  -4.537   0.000  0.00  0.00    +0.000 OA
ENDBRANCH  15  16
ENDBRANCH  14  15
ENDBRANCH  10  14
ENDBRANCH   9  10
ENDBRANCH   4   7
BRANCH   1  19
ATOM     19  N   UNK A   0      -8.574  -4.950   0.000  0.00  0.00    +0.000 NA
BRANCH  19  20
ATOM     20  C   UNK A   0      -9.288  -4.537   0.000  0.00  0.00    +0.000 C 
BRANCH  20  21
ATOM     21  C   UNK A   0     -10.003  -4.950   0.000  0.00  0.00    +0.000 C 
ATOM     22  N   UNK A   0     -10.717  -4.537   0.000  0.00  0.00    +0.000 N 
ATOM     23  C   UNK A   0     -11.432  -4.950   0.000  0.00  0.00    +0.000 A 
ATOM     24  C   UNK A   0     -11.431  -5.775   0.000  0.00  0.00    +0.000 A 
ATOM     25  N   UNK A   0     -10.717  -6.188   0.000  0.00  0.00    +0.000 NA
ATOM     26  C   UNK A   0     -10.003  -5.775   0.000  0.00  0.00    +0.000 C 
ATOM     27  C   UNK A   0     -12.146  -4.537   0.000  0.00  0.00    +0.000 A 
ATOM     28  N   UNK A   0     -12.861  -4.950   0.000  0.00  0.00    +0.000 NA
ATOM     29  C   UNK A   0     -12.861  -5.775   0.000  0.00  0.00    +0.000 A 
ATOM     30  N   UNK A   0     -12.146  -6.188   0.000  0.00  0.00    +0.000 NA
ATOM     31  N   UNK A   0     -13.575  -6.188   0.000  0.00  0.00    +0.000 NA
ATOM     32  O   UNK A   0     -12.146  -3.712   0.000  0.00  0.00    +0.000 OA
ATOM     33  C   UNK A   0     -10.717  -3.712   0.000  0.00  0.00    +0.000 C 
ENDBRANCH  20  21
ENDBRANCH  19  20
ENDBRANCH   1  19
TORSDOF 9
