REMARK  Name = 
REMARK  4 active torsions:
REMARK  status: ('A' for Active; 'I' for Inactive)
REMARK    1  A    between atoms: C_1  and  C_2
REMARK    2  A    between atoms: C_2  and  O_5
REMARK    3  A    between atoms: O_5  and  C_9
REMARK    4  A    between atoms: C_9  and  C_11
REMARK                            x       y       z     vdW  Elec       q    Type
REMARK                         _______ _______ _______ _____ _____    ______ ____
ROOT
ATOM      1  C   UNL     1       0.357   1.031   0.000  0.00  0.00    +0.000 C 
ATOM      2  O   UNL     1       1.072   1.444   0.000  0.00  0.00    +0.000 OA
ENDROOT
BRANCH   1   3
ATOM      3  C   UNL     1      -0.357   1.444   0.000  0.00  0.00    +0.000 A 
ATOM      4  C   UNL     1      -1.072   1.031   0.000  0.00  0.00    +0.000 A 
ATOM      5  C   UNL     1      -0.357   2.269   0.000  0.00  0.00    +0.000 A 
ATOM      6  C   UNL     1      -1.786   1.444   0.000  0.00  0.00    +0.000 A 
ATOM      7  N   UNL     1      -1.072   2.681   0.000  0.00  0.00    +0.000 NA
ATOM      8  C   UNL     1      -1.786   2.269   0.000  0.00  0.00    +0.000 A 
ENDBRANCH   1   3
BRANCH   1   9
ATOM      9  O   UNL     1       0.357   0.206   0.000  0.00  0.00    +0.000 OA
BRANCH   9  10
ATOM     10  C   UNL     1       1.072  -0.206   0.000  0.00  0.00    +0.000 C 
BRANCH  10  11
ATOM     11  C   UNL     1       1.072  -1.031   0.000  0.00  0.00    +0.000 A 
ATOM     12  C   UNL     1       1.786  -1.444   0.000  0.00  0.00    +0.000 A 
ATOM     13  C   UNL     1       0.357  -1.444   0.000  0.00  0.00    +0.000 A 
ATOM     14  C   UNL     1       1.786  -2.269   0.000  0.00  0.00    +0.000 A 
ATOM     15  C   UNL     1       0.357  -2.269   0.000  0.00  0.00    +0.000 A 
ATOM     16  C   UNL     1       1.072  -2.681   0.000  0.00  0.00    +0.000 A 
ENDBRANCH  10  11
ENDBRANCH   9  10
ENDBRANCH   1   9
TORSDOF 4
