REMARK  Name = 
REMARK  10 active torsions:
REMARK  status: ('A' for Active; 'I' for Inactive)
REMARK    1  A    between atoms: O_2  and  C_3
REMARK    2  A    between atoms: C_7  and  C_8
REMARK    3  A    between atoms: C_10  and  C_11
REMARK    4  A    between atoms: C_11  and  C_12
REMARK    5  A    between atoms: C_17  and  C_18
REMARK    6  A    between atoms: C_18  and  C_19
REMARK    7  A    between atoms: N_26  and  C_27
REMARK    8  A    between atoms: C_27  and  C_28
REMARK    9  A    between atoms: C_28  and  C_31
REMARK   10  A    between atoms: C_40  and  O_41
REMARK                            x       y       z     vdW  Elec       q    Type
REMARK                         _______ _______ _______ _____ _____    ______ ____
ROOT
ATOM      1  C   UNL     1       3.631   0.658   0.000  0.00  0.00    +0.000 C 
ATOM      2  O   UNL     1       4.436   0.474   0.000  0.00  0.00    +0.000 OA
ATOM      3  C   UNL     1       4.794  -0.269   0.000  0.00  0.00    +0.000 C 
ATOM      4  C   UNL     1       4.436  -1.012   0.000  0.00  0.00    +0.000 C 
ATOM      5  O   UNL     1       4.950  -1.657   0.000  0.00  0.00    +0.000 OA
ATOM      6  N   UNL     1       3.631  -1.196   0.000  0.00  0.00    +0.000 N 
ATOM      7  C   UNL     1       2.986  -0.682   0.000  0.00  0.00    +0.000 A 
ATOM      8  C   UNL     1       2.986   0.143   0.000  0.00  0.00    +0.000 A 
ATOM      9  C   UNL     1       2.272   0.556   0.000  0.00  0.00    +0.000 A 
ATOM     10  C   UNL     1       1.558   0.143   0.000  0.00  0.00    +0.000 A 
ATOM     11 CL   UNL     1       0.843   0.556   0.000  0.00  0.00    +0.000 Cl
ATOM     12  C   UNL     1       1.558  -0.682   0.000  0.00  0.00    +0.000 A 
ATOM     13  C   UNL     1       2.272  -1.094   0.000  0.00  0.00    +0.000 A 
ENDROOT
BRANCH   1  18
ATOM     14  C   UNL     1       3.869   2.828   0.000  0.00  0.00    +0.000 A 
ATOM     15  C   UNL     1       3.081   3.071   0.000  0.00  0.00    +0.000 A 
ATOM     16  C   UNL     1       2.476   2.510   0.000  0.00  0.00    +0.000 A 
ATOM     17  C   UNL     1       2.660   1.705   0.000  0.00  0.00    +0.000 A 
ATOM     18  C   UNL     1       3.448   1.462   0.000  0.00  0.00    +0.000 A 
ATOM     19  C   UNL     1       4.053   2.023   0.000  0.00  0.00    +0.000 A 
BRANCH  19  20
ATOM     20  O   UNL     1       4.841   1.780   0.000  0.00  0.00    +0.000 OA
ATOM     21  C   UNL     1       5.446   2.341   0.000  0.00  0.00    +0.000 C 
ENDBRANCH  19  20
BRANCH  14  23
ATOM     22  C   UNL     1       5.262   3.146   0.000  0.00  0.00    +0.000 C 
ATOM     23  O   UNL     1       4.474   3.389   0.000  0.00  0.00    +0.000 OA
ENDBRANCH  14  23
ENDBRANCH   1  18
BRANCH   3  24
ATOM     24  C   UNL     1       5.619  -0.269   0.000  0.00  0.00    +0.000 C 
BRANCH  24  25
ATOM     25  C   UNL     1       6.031  -0.984   0.000  0.00  0.00    +0.000 C 
ATOM     26  O   UNL     1       5.619  -1.698   0.000  0.00  0.00    +0.000 OA
ATOM     27  N   UNL     1       6.856  -0.984   0.000  0.00  0.00    +0.000 N 
ATOM     28  C   UNL     1       7.269  -0.269   0.000  0.00  0.00    +0.000 C 
ATOM     29  C   UNL     1       8.094  -0.269   0.000  0.00  0.00    +0.000 C 
ATOM     30  C   UNL     1       8.506  -0.984   0.000  0.00  0.00    +0.000 C 
ATOM     31  C   UNL     1       8.094  -1.698   0.000  0.00  0.00    +0.000 C 
ATOM     32  C   UNL     1       7.269  -1.698   0.000  0.00  0.00    +0.000 C 
BRANCH  30  33
ATOM     33  C   UNL     1       9.331  -0.984   0.000  0.00  0.00    +0.000 C 
BRANCH  33  34
ATOM     34  C   UNL     1       9.744  -1.698   0.000  0.00  0.00    +0.000 C 
ATOM     35  O   UNL     1      10.569  -1.698   0.000  0.00  0.00    +0.000 OA
ATOM     36  O   UNL     1       9.331  -2.413   0.000  0.00  0.00    +0.000 OA
ENDBRANCH  33  34
ENDBRANCH  30  33
ENDBRANCH  24  25
ENDBRANCH   3  24
BRANCH   6  37
ATOM     37  C   UNL     1       3.448  -2.000   0.000  0.00  0.00    +0.000 C 
BRANCH  37  38
ATOM     38  C   UNL     1       4.053  -2.562   0.000  0.00  0.00    +0.000 C 
ATOM     39  C   UNL     1       4.657  -3.123   0.000  0.00  0.00    +0.000 C 
ATOM     40  C   UNL     1       4.614  -1.957   0.000  0.00  0.00    +0.000 C 
BRANCH  38  41
ATOM     41  C   UNL     1       3.491  -3.166   0.000  0.00  0.00    +0.000 C 
ATOM     42  O   UNL     1       2.687  -2.983   0.000  0.00  0.00    +0.000 OA
ENDBRANCH  38  41
ENDBRANCH  37  38
ENDBRANCH   6  37
TORSDOF 10
