REMARK  Name = 
REMARK  2 active torsions:
REMARK  status: ('A' for Active; 'I' for Inactive)
REMARK    1  A    between atoms: C_13  and  C_19
REMARK    2  A    between atoms: C_14  and  C_19
REMARK                            x       y       z     vdW  Elec       q    Type
REMARK                         _______ _______ _______ _____ _____    ______ ____
ROOT
ATOM      1  C   UNL     1       3.352   1.110   0.000  0.00  0.00    +0.000 A 
ATOM      2  C   UNL     1       3.352   1.935   0.000  0.00  0.00    +0.000 A 
ATOM      3  C   UNL     1       2.638   0.698   0.000  0.00  0.00    +0.000 A 
ATOM      4  C   UNL     1       2.638   2.348   0.000  0.00  0.00    +0.000 A 
ATOM      5  C   UNL     1       1.923   1.110   0.000  0.00  0.00    +0.000 A 
ATOM      6  C   UNL     1       1.923   1.935   0.000  0.00  0.00    +0.000 A 
ATOM      7  C   UNL     1       1.139   0.856   0.000  0.00  0.00    +0.000 C 
ATOM      8  O   UNL     1       1.474   2.944   0.000  0.00  0.00    +0.000 OA
ATOM      9  O   UNL     1       0.424   2.603   0.000  0.00  0.00    +0.000 OA
ATOM     10  O   UNL     1       0.654   1.523   0.000  0.00  0.00    +0.000 OA
ATOM     11  S   UNL     1       1.139   2.190   0.000  0.00  0.00    +0.000 S 
ENDROOT
BRANCH   7  16
ATOM     12  C   UNL     1       0.989  -0.566   0.000  0.00  0.00    +0.000 A 
ATOM     13  C   UNL     1       2.295   0.016   0.000  0.00  0.00    +0.000 A 
ATOM     14  C   UNL     1       1.325  -1.319   0.000  0.00  0.00    +0.000 A 
ATOM     15  C   UNL     1       2.630  -0.738   0.000  0.00  0.00    +0.000 A 
ATOM     16  C   UNL     1       1.474   0.102   0.000  0.00  0.00    +0.000 A 
ATOM     17  C   UNL     1       2.145  -1.405   0.000  0.00  0.00    +0.000 A 
ATOM     18  O   UNL     1       2.481  -2.159   0.000  0.00  0.00    +0.000 OA
ENDBRANCH   7  16
BRANCH   7  23
ATOM     19  C   UNL     1      -0.290   0.856   0.000  0.00  0.00    +0.000 A 
ATOM     20  C   UNL     1       0.424  -0.382   0.000  0.00  0.00    +0.000 A 
ATOM     21  C   UNL     1      -1.005   0.443   0.000  0.00  0.00    +0.000 A 
ATOM     22  C   UNL     1      -0.290  -0.794   0.000  0.00  0.00    +0.000 A 
ATOM     23  C   UNL     1       0.424   0.443   0.000  0.00  0.00    +0.000 A 
ATOM     24  C   UNL     1      -1.005  -0.382   0.000  0.00  0.00    +0.000 A 
ATOM     25  O   UNL     1      -1.719  -0.794   0.000  0.00  0.00    +0.000 OA
ENDBRANCH   7  23
TORSDOF 2
