REMARK  Name = 
REMARK  2 active torsions:
REMARK  status: ('A' for Active; 'I' for Inactive)
REMARK    1  A    between atoms: N_3  and  C_6
REMARK    2  A    between atoms: C_6  and  C_8
REMARK                            x       y       z     vdW  Elec       q    Type
REMARK                         _______ _______ _______ _____ _____    ______ ____
ROOT
ATOM      1  N   UNL     1      -0.357   0.334   0.000  0.00  0.00    +0.000 NA
ATOM      2  N   UNL     1      -1.786   0.334   0.000  0.00  0.00    +0.000 NA
ATOM      3  N   UNL     1      -1.072  -0.903   0.000  0.00  0.00    +0.000 NA
ATOM      4  C   UNL     1      -1.072  -0.078   0.000  0.00  0.00    +0.000 C 
ENDROOT
BRANCH   1   5
ATOM      5  C   UNL     1       0.357  -0.078   0.000  0.00  0.00    +0.000 C 
BRANCH   5   8
ATOM      6  O   UNL     1       1.786  -0.078   0.000  0.00  0.00    +0.000 OA
ATOM      7  O   UNL     1       1.072   1.159   0.000  0.00  0.00    +0.000 OA
ATOM      8  C   UNL     1       1.072   0.334   0.000  0.00  0.00    +0.000 C 
ENDBRANCH   5   8
ENDBRANCH   1   5
TORSDOF 2
