REMARK  Name = 
REMARK  6 active torsions:
REMARK  status: ('A' for Active; 'I' for Inactive)
REMARK    1  A    between atoms: C_7  and  N_8
REMARK    2  A    between atoms: N_8  and  C_9
REMARK    3  A    between atoms: C_9  and  C_10
REMARK    4  A    between atoms: N_12  and  C_13
REMARK    5  A    between atoms: C_16  and  C_19
REMARK    6  A    between atoms: C_24  and  C_26
REMARK                            x       y       z     vdW  Elec       q    Type
REMARK                         _______ _______ _______ _____ _____    ______ ____
ROOT
ATOM      1  N   UNL     1       0.000  -1.650   0.000  0.00  0.00    +0.000 N 
ATOM      2  C   UNL     1       0.715  -1.238   0.000  0.00  0.00    +0.000 C 
ATOM      3  O   UNL     1       1.429  -1.650   0.000  0.00  0.00    +0.000 OA
ENDROOT
BRANCH   1  10
ATOM      4  C   UNL     1       1.429  -2.475   0.000  0.00  0.00    +0.000 C 
ATOM      5  C   UNL     1       0.715  -2.888   0.000  0.00  0.00    +0.000 A 
ATOM      6  C   UNL     1       0.715  -3.712   0.000  0.00  0.00    +0.000 A 
ATOM      7  C   UNL     1       0.000  -4.125   0.000  0.00  0.00    +0.000 A 
ATOM      8  C   UNL     1      -0.715  -3.712   0.000  0.00  0.00    +0.000 A 
ATOM      9  C   UNL     1      -0.715  -2.888   0.000  0.00  0.00    +0.000 A 
ATOM     10  C   UNL     1       0.000  -2.475   0.000  0.00  0.00    +0.000 A 
ATOM     11  C   UNL     1      -1.535  -2.974   0.000  0.00  0.00    +0.000 C 
ENDBRANCH   1  10
BRANCH   2  12
ATOM     12  C   UNL     1       0.715  -0.412   0.000  0.00  0.00    +0.000 C 
ATOM     13  C   UNL     1       0.000   0.000   0.000  0.00  0.00    +0.000 C 
ATOM     14  C   UNL     1       0.000   0.825   0.000  0.00  0.00    +0.000 C 
ATOM     15  S   UNL     1       0.715   1.238   0.000  0.00  0.00    +0.000 S 
ATOM     16  O   UNL     1       0.184   1.869   0.000  0.00  0.00    +0.000 OA
ATOM     17  O   UNL     1       1.245   1.869   0.000  0.00  0.00    +0.000 OA
ATOM     18  C   UNL     1       1.429   0.825   0.000  0.00  0.00    +0.000 C 
ATOM     19  C   UNL     1       1.429   0.000   0.000  0.00  0.00    +0.000 C 
ENDBRANCH   2  12
BRANCH   1  20
ATOM     20  C   UNL     1      -0.715  -1.238   0.000  0.00  0.00    +0.000 C 
BRANCH  20  21
ATOM     21  C   UNL     1      -1.429  -1.650   0.000  0.00  0.00    +0.000 C 
ATOM     22  O   UNL     1      -1.429  -2.475   0.000  0.00  0.00    +0.000 OA
ATOM     23  N   UNL     1      -2.143  -1.238   0.000  0.00  0.00    +0.000 NA
BRANCH  23  24
ATOM     24  C   UNL     1      -2.858  -1.650   0.000  0.00  0.00    +0.000 A 
ATOM     25  C   UNL     1      -2.858  -2.475   0.000  0.00  0.00    +0.000 A 
ATOM     26  C   UNL     1      -3.572  -2.888   0.000  0.00  0.00    +0.000 A 
ATOM     27  C   UNL     1      -4.287  -2.475   0.000  0.00  0.00    +0.000 A 
ATOM     28  C   UNL     1      -4.287  -1.650   0.000  0.00  0.00    +0.000 A 
ATOM     29  C   UNL     1      -3.572  -1.238   0.000  0.00  0.00    +0.000 A 
BRANCH  27  30
ATOM     30  C   UNL     1      -5.001  -2.888   0.000  0.00  0.00    +0.000 A 
ATOM     31  N   UNL     1      -5.088  -3.708   0.000  0.00  0.00    +0.000 NA
ATOM     32  C   UNL     1      -5.894  -3.880   0.000  0.00  0.00    +0.000 A 
ATOM     33  O   UNL     1      -6.307  -3.165   0.000  0.00  0.00    +0.000 OA
ATOM     34  N   UNL     1      -5.755  -2.552   0.000  0.00  0.00    +0.000 NA
ENDBRANCH  27  30
ENDBRANCH  23  24
ENDBRANCH  20  21
ENDBRANCH   1  20
TORSDOF 6
