REMARK  Name = 
REMARK  1 active torsions:
REMARK  status: ('A' for Active; 'I' for Inactive)
REMARK    1  A    between atoms: C_1  and  C_3
REMARK                            x       y       z     vdW  Elec       q    Type
REMARK                         _______ _______ _______ _____ _____    ______ ____
ROOT
ATOM      1  C   UNL     1      -0.004   0.142   0.000  0.00  0.00    +0.000 A 
ATOM      2  C   UNL     1      -0.274  -0.695   0.000  0.00  0.00    +0.000 A 
ATOM      3  N   UNL     1      -0.714   0.608   0.000  0.00  0.00    +0.000 NA
ATOM      4  N   UNL     1      -1.136  -0.695   0.000  0.00  0.00    +0.000 NA
ATOM      5  N   UNL     1       0.176  -1.222   0.000  0.00  0.00    +0.000 NA
ATOM      6  C   UNL     1      -1.388   0.142   0.000  0.00  0.00    +0.000 A 
ENDROOT
BRANCH   1   7
ATOM      7  C   UNL     1       0.753   0.416   0.000  0.00  0.00    +0.000 C 
ATOM      8  N   UNL     1       1.388  -0.110   0.000  0.00  0.00    +0.000 NA
ATOM      9  O   UNL     1       0.864   1.222   0.000  0.00  0.00    +0.000 OA
ENDBRANCH   1   7
TORSDOF 1
