REMARK  Name = 
REMARK  4 active torsions:
REMARK  status: ('A' for Active; 'I' for Inactive)
REMARK    1  A    between atoms: C_7  and  N_10
REMARK    2  A    between atoms: C_7  and  C_19
REMARK    3  A    between atoms: C_13  and  C_16
REMARK    4  A    between atoms: C_16  and  C_17
REMARK                            x       y       z     vdW  Elec       q    Type
REMARK                         _______ _______ _______ _____ _____    ______ ____
ROOT
ATOM      1  N   UNL     1      -1.795  -1.319   0.000  0.00  0.00    +0.000 NA
ATOM      2  C   UNL     1      -1.081  -1.732   0.000  0.00  0.00    +0.000 C 
ATOM      3  O   UNL     1      -1.081  -2.557   0.000  0.00  0.00    +0.000 OA
ATOM      4  N   UNL     1      -0.366  -1.319   0.000  0.00  0.00    +0.000 NA
ATOM      5  C   UNL     1      -0.366  -0.494   0.000  0.00  0.00    +0.000 C 
ATOM      6  O   UNL     1       0.348  -0.082   0.000  0.00  0.00    +0.000 OA
ATOM      7  C   UNL     1      -1.081  -0.082   0.000  0.00  0.00    +0.000 C 
ATOM      8  C   UNL     1      -1.795  -0.494   0.000  0.00  0.00    +0.000 C 
ATOM      9  O   UNL     1      -2.510  -0.082   0.000  0.00  0.00    +0.000 OA
ENDROOT
BRANCH   7  10
ATOM     10  N   UNL     1      -0.487   0.491   0.000  0.00  0.00    +0.000 NA
ATOM     11  C   UNL     1       0.306   0.264   0.000  0.00  0.00    +0.000 C 
ATOM     12  C   UNL     1       0.899   0.837   0.000  0.00  0.00    +0.000 C 
ATOM     13  C   UNL     1       0.700   1.638   0.000  0.00  0.00    +0.000 C 
ATOM     14  C   UNL     1      -0.093   1.865   0.000  0.00  0.00    +0.000 C 
ATOM     15  C   UNL     1      -0.687   1.292   0.000  0.00  0.00    +0.000 C 
BRANCH  13  16
ATOM     16  C   UNL     1       1.293   2.211   0.000  0.00  0.00    +0.000 C 
BRANCH  16  17
ATOM     17  C   UNL     1       2.086   1.983   0.000  0.00  0.00    +0.000 C 
ATOM     18  O   UNL     1       2.680   2.556   0.000  0.00  0.00    +0.000 OA
ENDBRANCH  16  17
ENDBRANCH  13  16
ENDBRANCH   7  10
BRANCH   7  19
ATOM     19  C   UNL     1      -1.468   0.647   0.000  0.00  0.00    +0.000 A 
ATOM     20  C   UNL     1      -1.031   1.346   0.000  0.00  0.00    +0.000 A 
ATOM     21  C   UNL     1      -2.292   0.676   0.000  0.00  0.00    +0.000 A 
ATOM     22  C   UNL     1      -1.418   2.075   0.000  0.00  0.00    +0.000 A 
ATOM     23  C   UNL     1      -2.680   1.404   0.000  0.00  0.00    +0.000 A 
ATOM     24  C   UNL     1      -2.243   2.104   0.000  0.00  0.00    +0.000 A 
ENDBRANCH   7  19
TORSDOF 4
