REMARK  Name = 
REMARK  6 active torsions:
REMARK  status: ('A' for Active; 'I' for Inactive)
REMARK    1  A    between atoms: C_1  and  C_2
REMARK    2  A    between atoms: C_4  and  C_21
REMARK    3  A    between atoms: N_5  and  C_15
REMARK    4  A    between atoms: N_6  and  C_10
REMARK    5  A    between atoms: C_7  and  O_14
REMARK    6  A    between atoms: C_8  and  C_10
REMARK                            x       y       z     vdW  Elec       q    Type
REMARK                         _______ _______ _______ _____ _____    ______ ____
ROOT
ATOM      1  C   UNL     1      -0.859   0.316   0.000  0.00  0.00    +0.000 A 
ATOM      2  C   UNL     1      -1.573   0.736   0.000  0.00  0.00    +0.000 A 
ATOM      3  C   UNL     1      -2.286   0.317   0.000  0.00  0.00    +0.000 A 
ATOM      4  C   UNL     1      -0.850  -0.500   0.000  0.00  0.00    +0.000 A 
ATOM      5  C   UNL     1      -2.280  -0.508   0.000  0.00  0.00    +0.000 A 
ATOM      6  C   UNL     1      -1.558  -0.915   0.000  0.00  0.00    +0.000 A 
ATOM      7  O   UNL     1      -1.573   1.557   0.000  0.00  0.00    +0.000 OA
ATOM      8 CL   UNL     1      -1.552  -1.736   0.000  0.00  0.00    +0.000 Cl
ENDROOT
BRANCH   1   9
ATOM      9  C   UNL     1      -0.142   0.735   0.000  0.00  0.00    +0.000 C 
ATOM     10  N   UNL     1       0.572   0.324   0.000  0.00  0.00    +0.000 NA
ATOM     11  O   UNL     1      -0.147   1.560   0.000  0.00  0.00    +0.000 OA
BRANCH  10  12
ATOM     12  C   UNL     1       1.288   0.742   0.000  0.00  0.00    +0.000 C 
BRANCH  12  14
ATOM     13  N   UNL     1       2.753   0.672   0.000  0.00  0.00    +0.000 NA
ATOM     14  C   UNL     1       1.998   0.327   0.000  0.00  0.00    +0.000 C 
ATOM     15  C   UNL     1       3.307   0.056   0.000  0.00  0.00    +0.000 C 
ATOM     16  C   UNL     1       2.901  -0.658   0.000  0.00  0.00    +0.000 C 
ATOM     17  C   UNL     1       2.094  -0.492   0.000  0.00  0.00    +0.000 C 
BRANCH  13  18
ATOM     18  C   UNL     1       2.922   1.478   0.000  0.00  0.00    +0.000 C 
ATOM     19  C   UNL     1       3.708   1.736   0.000  0.00  0.00    +0.000 C 
ENDBRANCH  13  18
ENDBRANCH  12  14
ENDBRANCH  10  12
ENDBRANCH   1   9
BRANCH   3  20
ATOM     20  C   UNL     1      -2.999   0.723   0.000  0.00  0.00    +0.000 C 
ATOM     21  C   UNL     1      -3.708   0.307   0.000  0.00  0.00    +0.000 C 
ENDBRANCH   3  20
BRANCH   4  22
ATOM     22  O   UNL     1      -0.132  -0.907   0.000  0.00  0.00    +0.000 OA
ATOM     23  C   UNL     1      -0.123  -1.732   0.000  0.00  0.00    +0.000 C 
ENDBRANCH   4  22
TORSDOF 6
