REMARK  Name = 
REMARK  4 active torsions:
REMARK  status: ('A' for Active; 'I' for Inactive)
REMARK    1  A    between atoms: C_1  and  C_3
REMARK    2  A    between atoms: C_2  and  C_3
REMARK    3  A    between atoms: C_2  and  O_9
REMARK    4  A    between atoms: O_9  and  P_10
REMARK                            x       y       z     vdW  Elec       q    Type
REMARK                         _______ _______ _______ _____ _____    ______ ____
ROOT
ATOM      1  C   UNL     1       0.000  -0.055   0.000  0.00  0.00    +0.000 C 
ENDROOT
BRANCH   1   2
ATOM      2  C   UNL     1       0.412  -0.770   0.000  0.00  0.00    +0.000 C 
ATOM      3  O   UNL     1       1.238  -0.770   0.000  0.00  0.00    +0.000 OA
BRANCH   2   4
ATOM      4  C   UNL     1       0.000  -1.484   0.000  0.00  0.00    +0.000 C 
ATOM      5  O   UNL     1       0.412  -2.199   0.000  0.00  0.00    +0.000 OA
ENDBRANCH   2   4
ENDBRANCH   1   2
BRANCH   1   6
ATOM      6  O   UNL     1       0.412   0.659   0.000  0.00  0.00    +0.000 OA
BRANCH   6  10
ATOM      7  O   UNL     1       0.714   1.786   0.000  0.00  0.00    +0.000 OA
ATOM      8  O   UNL     1      -0.714   0.961   0.000  0.00  0.00    +0.000 OA
ATOM      9  O   UNL     1      -0.412   2.088   0.000  0.00  0.00    +0.000 OA
ATOM     10  P   UNL     1       0.000   1.374   0.000  0.00  0.00    +0.000 P 
ENDBRANCH   6  10
ENDBRANCH   1   6
TORSDOF 4
REMARK  Name = 
REMARK  4 active torsions:
REMARK  status: ('A' for Active; 'I' for Inactive)
REMARK    1  A    between atoms: C_1  and  C_3
REMARK    2  A    between atoms: C_2  and  C_3
REMARK    3  A    between atoms: C_2  and  O_9
REMARK    4  A    between atoms: O_9  and  P_10
REMARK                            x       y       z     vdW  Elec       q    Type
REMARK                         _______ _______ _______ _____ _____    ______ ____
ROOT
ATOM      1 NA   UNL     1       1.429   2.199   0.000  0.00  0.00    +0.000 Na
ENDROOT
TORSDOF 0
REMARK  Name = 
REMARK  4 active torsions:
REMARK  status: ('A' for Active; 'I' for Inactive)
REMARK    1  A    between atoms: C_1  and  C_3
REMARK    2  A    between atoms: C_2  and  C_3
REMARK    3  A    between atoms: C_2  and  O_9
REMARK    4  A    between atoms: O_9  and  P_10
REMARK                            x       y       z     vdW  Elec       q    Type
REMARK                         _______ _______ _______ _____ _____    ______ ____
ROOT
ATOM      1 NA   UNL     1      -1.429   0.549   0.000  0.00  0.00    +0.000 Na
ENDROOT
TORSDOF 0
