REMARK  Name = 
REMARK  2 active torsions:
REMARK  status: ('A' for Active; 'I' for Inactive)
REMARK    1  A    between atoms: C_2  and  C_9
REMARK    2  A    between atoms: C_9  and  S_10
REMARK                            x       y       z     vdW  Elec       q    Type
REMARK                         _______ _______ _______ _____ _____    ______ ____
ROOT
ATOM      1 NA   UNL     1       2.493  -0.032   0.000  0.00  0.00    +0.000 Na
ENDROOT
TORSDOF 0
REMARK  Name = 
REMARK  2 active torsions:
REMARK  status: ('A' for Active; 'I' for Inactive)
REMARK    1  A    between atoms: C_2  and  C_9
REMARK    2  A    between atoms: C_9  and  S_10
REMARK                            x       y       z     vdW  Elec       q    Type
REMARK                         _______ _______ _______ _____ _____    ______ ____
ROOT
ATOM      1  C   UNL     1      -0.366  -0.032   0.000  0.00  0.00    +0.000 C 
ATOM      2  C   UNL     1      -0.611  -0.600   0.000  0.00  0.00    +0.000 C 
ATOM      3  C   UNL     1      -1.225  -0.738   0.000  0.00  0.00    +0.000 C 
ATOM      4  C   UNL     1      -1.663  -0.300   0.000  0.00  0.00    +0.000 C 
ATOM      5  C   UNL     1      -1.248  -1.018   0.000  0.00  0.00    +0.000 C 
ATOM      6  C   UNL     1      -0.452  -0.853   0.000  0.00  0.00    +0.000 C 
ATOM      7  C   UNL     1      -1.120   0.303   0.000  0.00  0.00    +0.000 C 
ATOM      8  O   UNL     1       0.160  -0.759   0.000  0.00  0.00    +0.000 OA
ATOM      9  C   UNL     1      -0.707   1.018   0.000  0.00  0.00    +0.000 C 
ATOM     10  C   UNL     1      -1.787   0.788   0.000  0.00  0.00    +0.000 C 
ENDROOT
BRANCH   1  11
ATOM     11  C   UNL     1       0.349   0.380   0.000  0.00  0.00    +0.000 C 
BRANCH  11  12
ATOM     12  S   UNL     1       1.063  -0.032   0.000  0.00  0.00    +0.000 S 
ATOM     13  O   UNL     1       1.476   0.682   0.000  0.00  0.00    +0.000 OA
ATOM     14  O   UNL     1       0.651  -0.747   0.000  0.00  0.00    +0.000 OA
ATOM     15  O   UNL     1       1.778  -0.445   0.000  0.00  0.00    +0.000 OA
ENDBRANCH  11  12
ENDBRANCH   1  11
TORSDOF 2
