REMARK  Name = 
REMARK  0 active torsions:
REMARK  status: ('A' for Active; 'I' for Inactive)
REMARK                            x       y       z     vdW  Elec       q    Type
REMARK                         _______ _______ _______ _____ _____    ______ ____
ROOT
ATOM      1  S   UNL     1       0.000   1.078   0.000  0.00  0.00    +0.000 S 
ATOM      2  S   UNL     1       0.762   0.762   0.000  0.00  0.00    +0.000 S 
ATOM      3  S   UNL     1       1.078   0.000   0.000  0.00  0.00    +0.000 S 
ATOM      4  S   UNL     1       0.762  -0.762   0.000  0.00  0.00    +0.000 S 
ATOM      5  S   UNL     1       0.000  -1.078   0.000  0.00  0.00    +0.000 S 
ATOM      6  S   UNL     1      -0.762  -0.762   0.000  0.00  0.00    +0.000 S 
ATOM      7  S   UNL     1      -1.078   0.000   0.000  0.00  0.00    +0.000 S 
ATOM      8  S   UNL     1      -0.762   0.762   0.000  0.00  0.00    +0.000 S 
ENDROOT
TORSDOF 0
REMARK  Name = 
REMARK  0 active torsions:
REMARK  status: ('A' for Active; 'I' for Inactive)
REMARK                            x       y       z     vdW  Elec       q    Type
REMARK                         _______ _______ _______ _____ _____    ______ ____
ROOT
ATOM      1 TC   UNL     1       3.553   0.000   0.000  0.00  0.00    +0.000 Tc
ENDROOT
TORSDOF 0
