REMARK  Name = 
REMARK  4 active torsions:
REMARK  status: ('A' for Active; 'I' for Inactive)
REMARK    1  A    between atoms: N_2  and  C_3
REMARK    2  A    between atoms: N_5  and  C_7
REMARK    3  A    between atoms: C_12  and  C_13
REMARK    4  A    between atoms: C_13  and  C_14
REMARK                            x       y       z     vdW  Elec       q    Type
REMARK                         _______ _______ _______ _____ _____    ______ ____
ROOT
ATOM      1  C   UNL     1       0.715  -3.229   0.000  0.00  0.00    +0.000 A 
ATOM      2  C   UNL     1       1.429  -3.642   0.000  0.00  0.00    +0.000 A 
ATOM      3  C   UNL     1       1.429  -4.467   0.000  0.00  0.00    +0.000 A 
ATOM      4  N   UNL     1       2.143  -4.879   0.000  0.00  0.00    +0.000 NA
ATOM      5  N   UNL     1       0.715  -4.879   0.000  0.00  0.00    +0.000 NA
ATOM      6  C   UNL     1       0.000  -4.467   0.000  0.00  0.00    +0.000 A 
ATOM      7  N   UNL     1       0.000  -3.642   0.000  0.00  0.00    +0.000 NA
ENDROOT
BRANCH   1  10
ATOM      8  C   UNL     1       0.715  -1.238   0.000  0.00  0.00    +0.000 C 
ATOM      9  C   UNL     1       1.298  -1.821   0.000  0.00  0.00    +0.000 C 
ATOM     10  N   UNL     1       0.715  -2.404   0.000  0.00  0.00    +0.000 N 
ATOM     11  C   UNL     1       0.131  -1.821   0.000  0.00  0.00    +0.000 C 
BRANCH   8  13
ATOM     12  C   UNL     1       0.000   0.000   0.000  0.00  0.00    +0.000 C 
ATOM     13  N   UNL     1       0.715  -0.412   0.000  0.00  0.00    +0.000 NA
ENDBRANCH   8  13
ENDBRANCH   1  10
BRANCH   6  14
ATOM     14  C   UNL     1      -0.715  -4.879   0.000  0.00  0.00    +0.000 C 
BRANCH  14  15
ATOM     15  C   UNL     1      -1.429  -4.467   0.000  0.00  0.00    +0.000 C 
ATOM     16  C   UNL     1      -2.143  -4.879   0.000  0.00  0.00    +0.000 C 
ATOM     17  C   UNL     1      -1.429  -3.642   0.000  0.00  0.00    +0.000 C 
ENDBRANCH  14  15
ENDBRANCH   6  14
TORSDOF 4
