REMARK  Name = 
REMARK  8 active torsions:
REMARK  status: ('A' for Active; 'I' for Inactive)
REMARK    1  A    between atoms: C_1  and  C_2
REMARK    2  A    between atoms: C_2  and  C_3
REMARK    3  A    between atoms: C_3  and  C_4
REMARK    4  A    between atoms: C_4  and  C_5
REMARK    5  A    between atoms: C_5  and  C_6
REMARK    6  A    between atoms: C_6  and  C_7
REMARK    7  A    between atoms: C_7  and  N_10
REMARK    8  A    between atoms: N_10  and  C_13
REMARK                            x       y       z     vdW  Elec       q    Type
REMARK                         _______ _______ _______ _____ _____    ______ ____
ROOT
ATOM      1  C   UNL     1      -2.334   1.104   0.000  0.00  0.00    +0.000 A 
ATOM      2  C   UNL     1      -1.869   0.420   0.000  0.00  0.00    +0.000 A 
ATOM      3  C   UNL     1      -2.100  -0.356   0.000  0.00  0.00    +0.000 C 
ATOM      4  C   UNL     1      -2.877  -0.669   0.000  0.00  0.00    +0.000 A 
ATOM      5  C   UNL     1      -3.596  -0.257   0.000  0.00  0.00    +0.000 A 
ATOM      6  C   UNL     1      -3.730   0.568   0.000  0.00  0.00    +0.000 C 
ATOM      7  C   UNL     1      -3.145   1.151   0.000  0.00  0.00    +0.000 C 
ATOM      8  C   UNL     1      -1.050   0.486   0.000  0.00  0.00    +0.000 A 
ATOM      9  C   UNL     1      -0.691   1.228   0.000  0.00  0.00    +0.000 A 
ATOM     10  C   UNL     1      -1.156   1.907   0.000  0.00  0.00    +0.000 A 
ATOM     11  C   UNL     1      -1.980   1.845   0.000  0.00  0.00    +0.000 A 
ATOM     12  C   UNL     1      -4.309  -0.672   0.000  0.00  0.00    +0.000 A 
ATOM     13  C   UNL     1      -4.307  -1.495   0.000  0.00  0.00    +0.000 A 
ATOM     14  C   UNL     1      -3.593  -1.907   0.000  0.00  0.00    +0.000 A 
ATOM     15  C   UNL     1      -2.876  -1.492   0.000  0.00  0.00    +0.000 A 
ENDROOT
BRANCH   3  16
ATOM     16  N   UNL     1      -1.397  -0.783   0.000  0.00  0.00    +0.000 NA
BRANCH  16  17
ATOM     17  C   UNL     1      -0.670  -0.334   0.000  0.00  0.00    +0.000 C 
BRANCH  17  18
ATOM     18  C   UNL     1       0.033  -0.766   0.000  0.00  0.00    +0.000 C 
BRANCH  18  19
ATOM     19  C   UNL     1       0.756  -0.318   0.000  0.00  0.00    +0.000 C 
BRANCH  19  20
ATOM     20  C   UNL     1       1.458  -0.746   0.000  0.00  0.00    +0.000 C 
BRANCH  20  21
ATOM     21  C   UNL     1       2.185  -0.296   0.000  0.00  0.00    +0.000 C 
BRANCH  21  22
ATOM     22  C   UNL     1       2.887  -0.725   0.000  0.00  0.00    +0.000 C 
BRANCH  22  23
ATOM     23  C   UNL     1       3.606  -0.290   0.000  0.00  0.00    +0.000 C 
ATOM     24  O   UNL     1       4.309  -0.723   0.000  0.00  0.00    +0.000 OA
ATOM     25  O   UNL     1       3.625   0.530   0.000  0.00  0.00    +0.000 OA
ENDBRANCH  22  23
ENDBRANCH  21  22
ENDBRANCH  20  21
ENDBRANCH  19  20
ENDBRANCH  18  19
ENDBRANCH  17  18
ENDBRANCH  16  17
ENDBRANCH   3  16
TORSDOF 8
