REMARK  Name = 
REMARK  8 active torsions:
REMARK  status: ('A' for Active; 'I' for Inactive)
REMARK    1  A    between atoms: C_4  and  C_7
REMARK    2  A    between atoms: C_7  and  C_8
REMARK    3  A    between atoms: C_7  and  S_33
REMARK    4  A    between atoms: N_10  and  CA_11
REMARK    5  A    between atoms: CA_16  and  C_30
REMARK    6  A    between atoms: C_17  and  C_20
REMARK    7  A    between atoms: C_20  and  N_21
REMARK    8  A    between atoms: C_24  and  C_27
REMARK                            x       y       z     vdW  Elec       q    Type
REMARK                         _______ _______ _______ _____ _____    ______ ____
ROOT
ATOM      1  CA  UNL     1      -0.262  -0.976   0.000  0.00  0.00    +0.000 C 
ATOM      2  C   UNL     1       0.564  -0.976   0.000  0.00  0.00    +0.000 C 
ATOM      3  N   UNL     1       0.564  -0.151   0.000  0.00  0.00    +0.000 N 
ATOM      4  C   UNL     1      -0.262  -0.151   0.000  0.00  0.00    +0.000 C 
ATOM      5  O   UNL     1      -0.845   0.432   0.000  0.00  0.00    +0.000 OA
ATOM      6  CA  UNL     1       1.278   0.262   0.000  0.00  0.00    +0.000 C 
ATOM      7  C   UNL     1       1.992  -0.151   0.000  0.00  0.00    +0.000 C 
ATOM      8  C   UNL     1       1.992  -0.976   0.000  0.00  0.00    +0.000 C 
ATOM      9  S   UNL     1       1.278  -1.389   0.000  0.00  0.00    +0.000 S 
ENDROOT
BRANCH   1  12
ATOM     10  C   UNL     1      -1.642  -1.346   0.000  0.00  0.00    +0.000 C 
ATOM     11  O   UNL     1      -1.855  -0.549   0.000  0.00  0.00    +0.000 OA
ATOM     12  N   UNL     1      -0.845  -1.559   0.000  0.00  0.00    +0.000 NA
BRANCH  10  13
ATOM     13  C   UNL     1      -2.225  -1.929   0.000  0.00  0.00    +0.000 C 
BRANCH  13  17
ATOM     14  C   UNL     1      -4.616  -1.289   0.000  0.00  0.00    +0.000 A 
ATOM     15  C   UNL     1      -4.032  -0.705   0.000  0.00  0.00    +0.000 A 
ATOM     16  C   UNL     1      -3.236  -0.919   0.000  0.00  0.00    +0.000 A 
ATOM     17  C   UNL     1      -3.022  -1.716   0.000  0.00  0.00    +0.000 A 
ATOM     18  C   UNL     1      -3.605  -2.299   0.000  0.00  0.00    +0.000 A 
ATOM     19  C   UNL     1      -4.402  -2.086   0.000  0.00  0.00    +0.000 A 
ENDBRANCH  13  17
BRANCH  13  20
ATOM     20  S   UNL     1      -2.012  -2.726   0.000  0.00  0.00    +0.000 S 
ATOM     21  O   UNL     1      -1.798  -3.523   0.000  0.00  0.00    +0.000 OA
ATOM     22  O   UNL     1      -1.215  -2.513   0.000  0.00  0.00    +0.000 OA
ATOM     23  O   UNL     1      -2.808  -2.940   0.000  0.00  0.00    +0.000 OA
ENDBRANCH  13  20
ENDBRANCH  10  13
ENDBRANCH   1  12
BRANCH   6  24
ATOM     24  C   UNL     1       1.278   1.087   0.000  0.00  0.00    +0.000 C 
ATOM     25  O   UNL     1       1.992   1.499   0.000  0.00  0.00    +0.000 OA
ATOM     26  OXT UNL     1       0.564   1.499   0.000  0.00  0.00    +0.000 OA
ENDBRANCH   6  24
BRANCH   7  27
ATOM     27  C   UNL     1       2.707   0.262   0.000  0.00  0.00    +0.000 C 
BRANCH  27  28
ATOM     28  N   UNL     1       3.421  -0.151   0.000  0.00  0.00    +0.000 N 
ATOM     29  C   UNL     1       4.136   0.262   0.000  0.00  0.00    +0.000 A 
ATOM     30  C   UNL     1       4.850  -0.151   0.000  0.00  0.00    +0.000 A 
ATOM     31  C   UNL     1       4.850  -0.976   0.000  0.00  0.00    +0.000 A 
ATOM     32  C   UNL     1       4.136  -1.389   0.000  0.00  0.00    +0.000 A 
ATOM     33  C   UNL     1       3.421  -0.976   0.000  0.00  0.00    +0.000 A 
BRANCH  31  34
ATOM     34  C   UNL     1       5.565  -1.389   0.000  0.00  0.00    +0.000 C 
ATOM     35  O   UNL     1       6.279  -0.976   0.000  0.00  0.00    +0.000 OA
ATOM     36  N   UNL     1       5.565  -2.213   0.000  0.00  0.00    +0.000 NA
ENDBRANCH  31  34
ENDBRANCH  27  28
ENDBRANCH   7  27
TORSDOF 8
