REMARK  Name = 
REMARK  7 active torsions:
REMARK  status: ('A' for Active; 'I' for Inactive)
REMARK    1  A    between atoms: C_1  and  N_19
REMARK    2  A    between atoms: C_1  and  C_25
REMARK    3  A    between atoms: N_4  and  C_7
REMARK    4  A    between atoms: C_7  and  C_8
REMARK    5  A    between atoms: C_8  and  C_9
REMARK    6  A    between atoms: C_9  and  C_10
REMARK    7  A    between atoms: C_10  and  C_11
REMARK                            x       y       z     vdW  Elec       q    Type
REMARK                         _______ _______ _______ _____ _____    ______ ____
ROOT
ATOM      1  C   UNL     1       2.530   0.418   0.000  0.00  0.00    +0.000 C 
ATOM      2  C   UNL     1       1.819   0.837   0.000  0.00  0.00    +0.000 C 
ATOM      3  C   UNL     1       1.067   0.418   0.000  0.00  0.00    +0.000 C 
ATOM      4  N   UNL     1       1.067  -0.418   0.000  0.00  0.00    +0.000 NA
ATOM      5  C   UNL     1       1.819  -0.837   0.000  0.00  0.00    +0.000 C 
ATOM      6  C   UNL     1       2.530  -0.418   0.000  0.00  0.00    +0.000 C 
ENDROOT
BRANCH   1   7
ATOM      7  N   UNL     1       3.241   0.837   0.000  0.00  0.00    +0.000 NA
ATOM      8  C   UNL     1       3.994   0.418   0.000  0.00  0.00    +0.000 C 
ATOM      9  C   UNL     1       4.705   0.837   0.000  0.00  0.00    +0.000 C 
ATOM     10  C   UNL     1       4.705   1.673   0.000  0.00  0.00    +0.000 C 
ATOM     11  C   UNL     1       3.994   2.091   0.000  0.00  0.00    +0.000 C 
ATOM     12  C   UNL     1       3.241   1.673   0.000  0.00  0.00    +0.000 C 
ENDBRANCH   1   7
BRANCH   1  13
ATOM     13  C   UNL     1       2.949  -0.293   0.000  0.00  0.00    +0.000 C 
ATOM     14  N   UNL     1       3.785  -0.293   0.000  0.00  0.00    +0.000 NA
ATOM     15  O   UNL     1       2.530  -1.004   0.000  0.00  0.00    +0.000 OA
ENDBRANCH   1  13
BRANCH   4  16
ATOM     16  C   UNL     1       0.355  -0.837   0.000  0.00  0.00    +0.000 C 
BRANCH  16  17
ATOM     17  C   UNL     1      -0.355  -0.418   0.000  0.00  0.00    +0.000 C 
BRANCH  17  18
ATOM     18  C   UNL     1      -1.108  -0.837   0.000  0.00  0.00    +0.000 C 
BRANCH  18  19
ATOM     19  C   UNL     1      -1.819  -0.418   0.000  0.00  0.00    +0.000 C 
ATOM     20  O   UNL     1      -1.819   0.418   0.000  0.00  0.00    +0.000 OA
BRANCH  19  21
ATOM     21  C   UNL     1      -2.530  -0.837   0.000  0.00  0.00    +0.000 A 
ATOM     22  C   UNL     1      -3.241  -0.418   0.000  0.00  0.00    +0.000 A 
ATOM     23  C   UNL     1      -3.994  -0.837   0.000  0.00  0.00    +0.000 A 
ATOM     24  C   UNL     1      -3.994  -1.673   0.000  0.00  0.00    +0.000 A 
ATOM     25  C   UNL     1      -3.241  -2.091   0.000  0.00  0.00    +0.000 A 
ATOM     26  C   UNL     1      -2.530  -1.673   0.000  0.00  0.00    +0.000 A 
ATOM     27  F   UNL     1      -4.705  -2.050   0.000  0.00  0.00    +0.000 F 
ENDBRANCH  19  21
ENDBRANCH  18  19
ENDBRANCH  17  18
ENDBRANCH  16  17
ENDBRANCH   4  16
TORSDOF 7
