REMARK  Name = 
REMARK  5 active torsions:
REMARK  status: ('A' for Active; 'I' for Inactive)
REMARK    1  A    between atoms: N_11  and  C_12
REMARK    2  A    between atoms: C_13  and  C_17
REMARK    3  A    between atoms: C_16  and  C_19
REMARK    4  A    between atoms: C_17  and  C_18
REMARK    5  A    between atoms: C_18  and  C_20
REMARK                            x       y       z     vdW  Elec       q    Type
REMARK                         _______ _______ _______ _____ _____    ______ ____
ROOT
ATOM      1  F   UNL     1      -2.501  -1.176   0.000  0.00  0.00    +0.000 F 
ATOM      2  O   UNL     1      -0.357  -0.763   0.000  0.00  0.00    +0.000 OA
ATOM      3  O   UNL     1      -2.501   0.474   0.000  0.00  0.00    +0.000 OA
ATOM      4  O   UNL     1      -0.659  -1.890   0.000  0.00  0.00    +0.000 OA
ATOM      5  C   UNL     1      -1.072   0.474   0.000  0.00  0.00    +0.000 C 
ATOM      6  C   UNL     1      -0.357   0.061   0.000  0.00  0.00    +0.000 C 
ATOM      7  C   UNL     1      -1.786   0.061   0.000  0.00  0.00    +0.000 C 
ATOM      8  C   UNL     1      -1.786  -0.763   0.000  0.00  0.00    +0.000 C 
ATOM      9  C   UNL     1      -1.072  -1.176   0.000  0.00  0.00    +0.000 C 
ENDROOT
BRANCH   5  11
ATOM     10  O   UNL     1      -2.501   1.299   0.000  0.00  0.00    +0.000 OA
ATOM     11  N   UNL     1      -1.072   1.299   0.000  0.00  0.00    +0.000 NA
ATOM     12  C   UNL     1      -1.786   1.711   0.000  0.00  0.00    +0.000 C 
ATOM     13  C   UNL     1      -1.786   2.536   0.000  0.00  0.00    +0.000 C 
ENDBRANCH   5  11
BRANCH   9  16
ATOM     14  O   UNL     1      -1.072  -2.605   0.000  0.00  0.00    +0.000 OA
ATOM     15  O   UNL     1      -2.309  -1.890   0.000  0.00  0.00    +0.000 OA
ATOM     16  C   UNL     1      -1.484  -1.890   0.000  0.00  0.00    +0.000 C 
ENDBRANCH   9  16
BRANCH   6  18
ATOM     17  O   UNL     1       0.357   1.299   0.000  0.00  0.00    +0.000 OA
ATOM     18  C   UNL     1       0.357   0.474   0.000  0.00  0.00    +0.000 C 
BRANCH  18  20
ATOM     19  O   UNL     1       1.072  -0.763   0.000  0.00  0.00    +0.000 OA
ATOM     20  C   UNL     1       1.072   0.061   0.000  0.00  0.00    +0.000 C 
BRANCH  20  22
ATOM     21  O   UNL     1       2.501   0.061   0.000  0.00  0.00    +0.000 OA
ATOM     22  C   UNL     1       1.786   0.474   0.000  0.00  0.00    +0.000 C 
ENDBRANCH  20  22
ENDBRANCH  18  20
ENDBRANCH   6  18
TORSDOF 5
