REMARK  Name = 
REMARK  0 active torsions:
REMARK  status: ('A' for Active; 'I' for Inactive)
REMARK                            x       y       z     vdW  Elec       q    Type
REMARK                         _______ _______ _______ _____ _____    ______ ____
ROOT
ATOM      1  C   UNL     1      -0.012   0.128   0.000  0.00  0.00    +0.000 C 
ATOM      2  C   UNL     1      -0.148  -1.199   0.000  0.00  0.00    +0.000 A 
ATOM      3  C   UNL     1      -0.564  -0.487   0.000  0.00  0.00    +0.000 A 
ATOM      4  C   UNL     1      -0.724   0.545   0.000  0.00  0.00    +0.000 A 
ATOM      5  C   UNL     1       0.710   0.545   0.000  0.00  0.00    +0.000 A 
ATOM      6  C   UNL     1       0.656  -1.024   0.000  0.00  0.00    +0.000 C 
ATOM      7  C   UNL     1       0.710   1.378   0.000  0.00  0.00    +0.000 A 
ATOM      8  C   UNL     1      -0.729   1.373   0.000  0.00  0.00    +0.000 A 
ATOM      9  O   UNL     1       0.744  -0.206   0.000  0.00  0.00    +0.000 OA
ATOM     10  C   UNL     1      -0.564  -1.906   0.000  0.00  0.00    +0.000 A 
ATOM     11  O   UNL     1      -0.017   1.795   0.000  0.00  0.00    +0.000 OA
ATOM     12  C   UNL     1      -1.383  -0.487   0.000  0.00  0.00    +0.000 A 
ATOM     13  C   UNL     1      -1.383  -1.906   0.000  0.00  0.00    +0.000 A 
ATOM     14  C   UNL     1      -1.790  -1.199   0.000  0.00  0.00    +0.000 A 
ATOM     15  C   UNL     1      -1.441   1.780   0.000  0.00  0.00    +0.000 A 
ATOM     16  C   UNL     1       1.422   1.795   0.000  0.00  0.00    +0.000 A 
ATOM     17  C   UNL     1       2.139   1.388   0.000  0.00  0.00    +0.000 A 
ATOM     18  C   UNL     1      -2.153   1.364   0.000  0.00  0.00    +0.000 A 
ATOM     19  C   UNL     1      -1.441   0.128   0.000  0.00  0.00    +0.000 A 
ATOM     20  C   UNL     1       1.427   0.138   0.000  0.00  0.00    +0.000 A 
ATOM     21  C   UNL     1      -2.153   0.545   0.000  0.00  0.00    +0.000 A 
ATOM     22  C   UNL     1       2.148   0.550   0.000  0.00  0.00    +0.000 A 
ATOM     23  O   UNL     1       1.267  -1.577   0.000  0.00  0.00    +0.000 OA
ATOM     24  I   UNL     1       2.865   0.143   0.000  0.00  0.00    +0.000 I 
ATOM     25  I   UNL     1      -2.865   0.128   0.000  0.00  0.00    +0.000 I 
ATOM     26  O   UNL     1       2.851   1.800   0.000  0.00  0.00    +0.000 OA
ATOM     27  O   UNL     1      -2.865   1.780   0.000  0.00  0.00    +0.000 OA
ATOM     28 CL   UNL     1      -0.148  -2.623   0.000  0.00  0.00    +0.000 Cl
ATOM     29 CL   UNL     1      -2.207  -0.482   0.000  0.00  0.00    +0.000 Cl
ATOM     30 CL   UNL     1      -1.800  -2.618   0.000  0.00  0.00    +0.000 Cl
ATOM     31 CL   UNL     1      -2.613  -1.199   0.000  0.00  0.00    +0.000 Cl
ATOM     32  I   UNL     1      -1.441   2.609   0.000  0.00  0.00    +0.000 I 
ATOM     33  I   UNL     1       1.412   2.623   0.000  0.00  0.00    +0.000 I 
ENDROOT
TORSDOF 0
