REMARK  Name = 
REMARK  2 active torsions:
REMARK  status: ('A' for Active; 'I' for Inactive)
REMARK    1  A    between atoms: C_9  and  C_13
REMARK    2  A    between atoms: C_13  and  C_14
REMARK                            x       y       z     vdW  Elec       q    Type
REMARK                         _______ _______ _______ _____ _____    ______ ____
ROOT
ATOM      1  C   UNL     1      -0.709   0.824   0.000  0.00  0.00    +0.000 A 
ATOM      2  C   UNL     1      -0.709   0.000   0.000  0.00  0.00    +0.000 A 
ATOM      3  N   UNL     1      -1.438   1.246   0.000  0.00  0.00    +0.000 NA
ATOM      4  N   UNL     1      -0.019  -0.422   0.000  0.00  0.00    +0.000 NA
ATOM      5  N   UNL     1      -0.019   1.246   0.000  0.00  0.00    +0.000 NA
ATOM      6  N   UNL     1      -2.166   0.000   0.000  0.00  0.00    +0.000 NA
ATOM      7  C   UNL     1      -2.166   0.824   0.000  0.00  0.00    +0.000 A 
ATOM      8  C   UNL     1      -1.438  -0.422   0.000  0.00  0.00    +0.000 A 
ATOM      9  C   UNL     1       0.709   0.000   0.000  0.00  0.00    +0.000 C 
ATOM     10  C   UNL     1       0.709   0.824   0.000  0.00  0.00    +0.000 C 
ATOM     11  O   UNL     1      -1.438  -1.246   0.000  0.00  0.00    +0.000 OA
ATOM     12  N   UNL     1      -2.875   1.246   0.000  0.00  0.00    +0.000 NA
ENDROOT
BRANCH   9  13
ATOM     13  C   UNL     1       1.438  -0.422   0.000  0.00  0.00    +0.000 C 
ATOM     14  O   UNL     1       1.438  -1.246   0.000  0.00  0.00    +0.000 OA
BRANCH  13  15
ATOM     15  C   UNL     1       2.147   0.000   0.000  0.00  0.00    +0.000 C 
ATOM     16  C   UNL     1       2.147   0.824   0.000  0.00  0.00    +0.000 C 
ATOM     17  O   UNL     1       2.875  -0.402   0.000  0.00  0.00    +0.000 OA
ENDBRANCH  13  15
ENDBRANCH   9  13
TORSDOF 2
