REMARK  Name = 
REMARK  5 active torsions:
REMARK  status: ('A' for Active; 'I' for Inactive)
REMARK    1  A    between atoms: CA_3  and  C_15
REMARK    2  A    between atoms: C_4  and  O_14
REMARK    3  A    between atoms: CA_7  and  N_9
REMARK    4  A    between atoms: C_10  and  CA_13
REMARK    5  A    between atoms: CA_13  and  C_18
REMARK                            x       y       z     vdW  Elec       q    Type
REMARK                         _______ _______ _______ _____ _____    ______ ____
ROOT
ATOM      1  C   UNL     1       1.126   0.620   0.000  0.00  0.00    +0.000 C 
ATOM      2  N   UNL     1       1.126  -0.205   0.000  0.00  0.00    +0.000 N 
ATOM      3  CA  UNL     1       1.840  -0.617   0.000  0.00  0.00    +0.000 C 
ATOM      4  C   UNL     1       2.555  -0.205   0.000  0.00  0.00    +0.000 C 
ATOM      5  C   UNL     1       2.555   0.620   0.000  0.00  0.00    +0.000 C 
ATOM      6  S   UNL     1       1.840   1.033   0.000  0.00  0.00    +0.000 S 
ATOM      7  CA  UNL     1       0.300   0.620   0.000  0.00  0.00    +0.000 C 
ATOM      8  C   UNL     1       0.300  -0.205   0.000  0.00  0.00    +0.000 C 
ATOM      9  O   UNL     1      -0.414  -0.617   0.000  0.00  0.00    +0.000 OA
ENDROOT
BRANCH   7  10
ATOM     10  N   UNL     1      -0.414   1.033   0.000  0.00  0.00    +0.000 NA
ATOM     11  C   UNL     1      -1.129   0.620   0.000  0.00  0.00    +0.000 C 
ATOM     12  O   UNL     1      -1.129  -0.205   0.000  0.00  0.00    +0.000 OA
BRANCH  11  13
ATOM     13  CA  UNL     1      -1.843   1.033   0.000  0.00  0.00    +0.000 C 
ATOM     14  N   UNL     1      -1.843   1.861   0.000  0.00  0.00    +0.000 NA
BRANCH  13  15
ATOM     15  C   UNL     1      -2.569   0.613   0.000  0.00  0.00    +0.000 C 
ATOM     16  C   UNL     1      -3.283   1.025   0.000  0.00  0.00    +0.000 C 
ATOM     17  C   UNL     1      -3.997   0.613   0.000  0.00  0.00    +0.000 C 
ATOM     18  C   UNL     1      -3.997  -0.210   0.000  0.00  0.00    +0.000 C 
ATOM     19  C   UNL     1      -3.283  -0.623   0.000  0.00  0.00    +0.000 C 
ATOM     20  C   UNL     1      -2.569  -0.210   0.000  0.00  0.00    +0.000 C 
ENDBRANCH  13  15
ENDBRANCH  11  13
ENDBRANCH   7  10
BRANCH   3  21
ATOM     21  C   UNL     1       1.840  -1.442   0.000  0.00  0.00    +0.000 C 
ATOM     22  O   UNL     1       1.116  -1.861   0.000  0.00  0.00    +0.000 OA
ATOM     23  OXT UNL     1       2.545  -1.849   0.000  0.00  0.00    +0.000 OA
ENDBRANCH   3  21
BRANCH   4  24
ATOM     24  O   UNL     1       3.280  -0.624   0.000  0.00  0.00    +0.000 OA
ATOM     25  C   UNL     1       3.997  -0.210   0.000  0.00  0.00    +0.000 C 
ENDBRANCH   4  24
TORSDOF 5
