REMARK  Name = 
REMARK  7 active torsions:
REMARK  status: ('A' for Active; 'I' for Inactive)
REMARK    1  A    between atoms: N_4  and  C_12
REMARK    2  A    between atoms: N_5  and  C_16
REMARK    3  A    between atoms: N_6  and  C_17
REMARK    4  A    between atoms: C_12  and  C_15
REMARK    5  A    between atoms: C_15  and  C_16
REMARK    6  A    between atoms: C_17  and  C_18
REMARK    7  A    between atoms: C_18  and  C_19
REMARK                            x       y       z     vdW  Elec       q    Type
REMARK                         _______ _______ _______ _____ _____    ______ ____
ROOT
ATOM      1  C   UNL     1      -0.644  -0.424   0.000  0.00  0.00    +0.000 C 
ENDROOT
BRANCH   1   4
ATOM      2  O   UNL     1      -0.939   0.974   0.000  0.00  0.00    +0.000 OA
ATOM      3  N   UNL     1       0.419   0.530   0.000  0.00  0.00    +0.000 NA
ATOM      4  C   UNL     1      -0.388   0.360   0.000  0.00  0.00    +0.000 C 
BRANCH   3   5
ATOM      5  C   UNL     1       0.675   1.315   0.000  0.00  0.00    +0.000 C 
BRANCH   5   6
ATOM      6  C   UNL     1       1.483   1.485   0.000  0.00  0.00    +0.000 C 
BRANCH   6   7
ATOM      7  C   UNL     1       1.739   2.269   0.000  0.00  0.00    +0.000 C 
BRANCH   7   9
ATOM      8  O   UNL     1       3.071   1.066   0.000  0.00  0.00    +0.000 OA
ATOM      9  N   UNL     1       2.546   2.439   0.000  0.00  0.00    +0.000 N 
ATOM     10  C   UNL     1       2.883   3.192   0.000  0.00  0.00    +0.000 C 
ATOM     11  C   UNL     1       3.704   3.104   0.000  0.00  0.00    +0.000 C 
ATOM     12  C   UNL     1       3.874   2.297   0.000  0.00  0.00    +0.000 C 
ATOM     13  C   UNL     1       3.159   1.886   0.000  0.00  0.00    +0.000 C 
ENDBRANCH   7   9
ENDBRANCH   6   7
ENDBRANCH   5   6
ENDBRANCH   3   5
ENDBRANCH   1   4
BRANCH   1  14
ATOM     14  C   UNL     1      -1.452  -0.594   0.000  0.00  0.00    +0.000 C 
BRANCH  14  16
ATOM     15  O   UNL     1      -3.203  -3.692   0.000  0.00  0.00    +0.000 OA
ATOM     16  N   UNL     1      -1.708  -1.378   0.000  0.00  0.00    +0.000 N 
ATOM     17  N   UNL     1      -3.203  -1.217   0.000  0.00  0.00    +0.000 NA
ATOM     18  N   UNL     1      -1.708  -2.706   0.000  0.00  0.00    +0.000 NA
ATOM     19  N   UNL     1      -3.918  -2.455   0.000  0.00  0.00    +0.000 NA
ATOM     20  C   UNL     1      -2.489  -1.630   0.000  0.00  0.00    +0.000 A 
ATOM     21  C   UNL     1      -2.489  -2.455   0.000  0.00  0.00    +0.000 A 
ATOM     22  C   UNL     1      -1.226  -2.042   0.000  0.00  0.00    +0.000 A 
ATOM     23  C   UNL     1      -3.203  -2.867   0.000  0.00  0.00    +0.000 A 
ATOM     24  C   UNL     1      -3.918  -1.630   0.000  0.00  0.00    +0.000 A 
ENDBRANCH  14  16
ENDBRANCH   1  14
TORSDOF 7
