REMARK  Name = 
REMARK  4 active torsions:
REMARK  status: ('A' for Active; 'I' for Inactive)
REMARK    1  A    between atoms: C_1  and  C_4
REMARK    2  A    between atoms: C_2  and  C_3
REMARK    3  A    between atoms: C_7  and  C_19
REMARK    4  A    between atoms: C_12  and  C_16
REMARK                            x       y       z     vdW  Elec       q    Type
REMARK                         _______ _______ _______ _____ _____    ______ ____
ROOT
ATOM      1  C   UNL     1      -0.207  -0.358   0.000  0.00  0.00    +0.000 C 
ATOM      2  C   UNL     1       0.205   0.357   0.000  0.00  0.00    +0.000 C 
ENDROOT
BRANCH   1   3
ATOM      3  C   UNL     1      -1.032  -0.358   0.000  0.00  0.00    +0.000 A 
ATOM      4  C   UNL     1      -1.441   0.360   0.000  0.00  0.00    +0.000 A 
ATOM      5  C   UNL     1      -2.265   0.360   0.000  0.00  0.00    +0.000 A 
ATOM      6  C   UNL     1      -2.679  -0.355   0.000  0.00  0.00    +0.000 A 
ATOM      7  C   UNL     1      -2.262  -1.072   0.000  0.00  0.00    +0.000 A 
ATOM      8  C   UNL     1      -1.439  -1.068   0.000  0.00  0.00    +0.000 A 
ATOM      9  O   UNL     1      -1.026   1.073   0.000  0.00  0.00    +0.000 OA
BRANCH   6  10
ATOM     10  C   UNL     1      -3.504  -0.356   0.000  0.00  0.00    +0.000 C 
ATOM     11  N   UNL     1      -3.917   0.358   0.000  0.00  0.00    +0.000 NA
ATOM     12  N   UNL     1      -3.915  -1.071   0.000  0.00  0.00    +0.000 NA
ENDBRANCH   6  10
ENDBRANCH   1   3
BRANCH   2  13
ATOM     13  C   UNL     1       1.030   0.357   0.000  0.00  0.00    +0.000 A 
ATOM     14  C   UNL     1       1.441  -0.360   0.000  0.00  0.00    +0.000 A 
ATOM     15  C   UNL     1       2.265  -0.360   0.000  0.00  0.00    +0.000 A 
ATOM     16  C   UNL     1       2.679   0.354   0.000  0.00  0.00    +0.000 A 
ATOM     17  C   UNL     1       2.262   1.071   0.000  0.00  0.00    +0.000 A 
ATOM     18  C   UNL     1       1.439   1.068   0.000  0.00  0.00    +0.000 A 
BRANCH  16  19
ATOM     19  C   UNL     1       3.504   0.356   0.000  0.00  0.00    +0.000 C 
ATOM     20  N   UNL     1       3.917  -0.358   0.000  0.00  0.00    +0.000 NA
ATOM     21  N   UNL     1       3.915   1.071   0.000  0.00  0.00    +0.000 NA
ENDBRANCH  16  19
ENDBRANCH   2  13
TORSDOF 4
