REMARK  Name = 
REMARK  4 active torsions:
REMARK  status: ('A' for Active; 'I' for Inactive)
REMARK    1  A    between atoms: C_5  and  O_12
REMARK    2  A    between atoms: C_6  and  O_11
REMARK    3  A    between atoms: O_11  and  N_14
REMARK    4  A    between atoms: O_12  and  N_17
REMARK                            x       y       z     vdW  Elec       q    Type
REMARK                         _______ _______ _______ _____ _____    ______ ____
ROOT
ATOM      1  C   UNL     1      -1.207   0.392   0.000  0.00  0.00    +0.000 C 
ATOM      2  C   UNL     1       1.207  -0.392   0.000  0.00  0.00    +0.000 C 
ATOM      3  O   UNL     1      -0.540   0.877   0.000  0.00  0.00    +0.000 OA
ATOM      4  O   UNL     1       0.540  -0.877   0.000  0.00  0.00    +0.000 OA
ATOM      5  C   UNL     1       0.952   0.392   0.000  0.00  0.00    +0.000 C 
ATOM      6  C   UNL     1      -0.952  -0.392   0.000  0.00  0.00    +0.000 C 
ATOM      7  C   UNL     1       0.127   0.392   0.000  0.00  0.00    +0.000 C 
ATOM      8  C   UNL     1      -0.127  -0.392   0.000  0.00  0.00    +0.000 C 
ENDROOT
BRANCH   6   9
ATOM      9  O   UNL     1      -1.536  -0.976   0.000  0.00  0.00    +0.000 OA
BRANCH   9  11
ATOM     10  O   UNL     1      -2.773  -0.261   0.000  0.00  0.00    +0.000 OA
ATOM     11  N   UNL     1      -2.361  -0.976   0.000  0.00  0.00    +0.000 N 
ATOM     12  O   UNL     1      -2.944  -1.559   0.000  0.00  0.00    +0.000 OA
ENDBRANCH   9  11
ENDBRANCH   6   9
BRANCH   5  13
ATOM     13  O   UNL     1       1.536   0.976   0.000  0.00  0.00    +0.000 OA
BRANCH  13  15
ATOM     14  O   UNL     1       2.944   1.559   0.000  0.00  0.00    +0.000 OA
ATOM     15  N   UNL     1       2.361   0.976   0.000  0.00  0.00    +0.000 N 
ATOM     16  O   UNL     1       2.773   0.261   0.000  0.00  0.00    +0.000 OA
ENDBRANCH  13  15
ENDBRANCH   5  13
TORSDOF 4
