REMARK  Name = 
REMARK  15 active torsions:
REMARK  status: ('A' for Active; 'I' for Inactive)
REMARK    1  A    between atoms: S_1  and  C_47
REMARK    2  A    between atoms: S_2  and  C_48
REMARK    3  A    between atoms: O_10  and  C_58
REMARK    4  A    between atoms: O_10  and  C_59
REMARK    5  A    between atoms: N_11  and  C_17
REMARK    6  A    between atoms: N_11  and  C_24
REMARK    7  A    between atoms: N_11  and  C_30
REMARK    8  A    between atoms: N_12  and  C_25
REMARK    9  A    between atoms: N_12  and  C_31
REMARK   10  A    between atoms: N_13  and  C_44
REMARK   11  A    between atoms: N_13  and  C_53
REMARK   12  A    between atoms: C_14  and  C_15
REMARK   13  A    between atoms: C_14  and  C_22
REMARK   14  A    between atoms: C_24  and  C_32
REMARK   15  A    between atoms: C_25  and  C_35
REMARK                            x       y       z     vdW  Elec       q    Type
REMARK                         _______ _______ _______ _____ _____    ______ ____
ROOT
ATOM      1  N   UNL     1      -1.037  -2.937   0.000  0.00  0.00    +0.000 N 
ATOM      2  C   UNL     1      -1.037   0.363   0.000  0.00  0.00    +0.000 C 
ATOM      3  C   UNL     1      -1.037  -0.462   0.000  0.00  0.00    +0.000 C 
ATOM      4  C   UNL     1      -1.037  -2.112   0.000  0.00  0.00    +0.000 C 
ATOM      5  C   UNL     1      -1.752  -0.875   0.000  0.00  0.00    +0.000 C 
ATOM      6  C   UNL     1      -1.752  -1.700   0.000  0.00  0.00    +0.000 C 
ATOM      7  C   UNL     1      -0.323  -0.875   0.000  0.00  0.00    +0.000 C 
ATOM      8  C   UNL     1      -0.323  -1.700   0.000  0.00  0.00    +0.000 C 
ATOM      9  C   UNL     1      -2.466  -0.462   0.000  0.00  0.00    +0.000 C 
ENDROOT
BRANCH   2  10
ATOM     10  C   UNL     1      -0.323   0.775   0.000  0.00  0.00    +0.000 A 
ATOM     11  C   UNL     1       1.106   1.601   0.000  0.00  0.00    +0.000 A 
ATOM     12  C   UNL     1      -0.323   1.601   0.000  0.00  0.00    +0.000 A 
ATOM     13  C   UNL     1       0.392   2.013   0.000  0.00  0.00    +0.000 A 
ATOM     14  C   UNL     1       0.392   0.363   0.000  0.00  0.00    +0.000 A 
ATOM     15  C   UNL     1       1.106   0.775   0.000  0.00  0.00    +0.000 A 
ATOM     16  C   UNL     1      -1.037   2.013   0.000  0.00  0.00    +0.000 C 
BRANCH  11  17
ATOM     17  N   UNL     1       1.820   2.013   0.000  0.00  0.00    +0.000 N 
BRANCH  17  18
ATOM     18  C   UNL     1       1.820   2.838   0.000  0.00  0.00    +0.000 C 
ATOM     19  C   UNL     1       1.106   3.251   0.000  0.00  0.00    +0.000 C 
ENDBRANCH  17  18
BRANCH  17  20
ATOM     20  C   UNL     1       2.535   1.601   0.000  0.00  0.00    +0.000 C 
BRANCH  20  21
ATOM     21  C   UNL     1       3.249   2.013   0.000  0.00  0.00    +0.000 A 
ATOM     22  C   UNL     1       3.249   2.838   0.000  0.00  0.00    +0.000 A 
ATOM     23  C   UNL     1       3.964   1.601   0.000  0.00  0.00    +0.000 A 
ATOM     24  C   UNL     1       3.964   3.251   0.000  0.00  0.00    +0.000 A 
ATOM     25  C   UNL     1       4.678   2.013   0.000  0.00  0.00    +0.000 A 
ATOM     26  C   UNL     1       4.678   2.838   0.000  0.00  0.00    +0.000 A 
BRANCH  24  27
ATOM     27  S   UNL     1       3.964   4.075   0.000  0.00  0.00    +0.000 S 
ATOM     28  O   UNL     1       3.964   4.901   0.000  0.00  0.00    +0.000 OA
ATOM     29  O   UNL     1       4.789   4.075   0.000  0.00  0.00    +0.000 OA
ATOM     30  O   UNL     1       3.139   4.075   0.000  0.00  0.00    +0.000 OA
ENDBRANCH  24  27
ENDBRANCH  20  21
ENDBRANCH  17  20
ENDBRANCH  11  17
ENDBRANCH   2  10
BRANCH   2  31
ATOM     31  C   UNL     1      -1.752   0.775   0.000  0.00  0.00    +0.000 A 
ATOM     32  C   UNL     1      -2.466   0.363   0.000  0.00  0.00    +0.000 A 
ATOM     33  C   UNL     1      -1.752   1.601   0.000  0.00  0.00    +0.000 A 
ATOM     34  C   UNL     1      -3.181   0.775   0.000  0.00  0.00    +0.000 A 
ATOM     35  C   UNL     1      -2.466   2.013   0.000  0.00  0.00    +0.000 A 
ATOM     36  C   UNL     1      -3.181   1.601   0.000  0.00  0.00    +0.000 A 
BRANCH  36  37
ATOM     37  N   UNL     1      -3.895   2.013   0.000  0.00  0.00    +0.000 NA
BRANCH  37  38
ATOM     38  C   UNL     1      -3.895   2.838   0.000  0.00  0.00    +0.000 A 
ATOM     39  C   UNL     1      -4.610   3.251   0.000  0.00  0.00    +0.000 A 
ATOM     40  C   UNL     1      -3.181   3.251   0.000  0.00  0.00    +0.000 A 
ATOM     41  C   UNL     1      -4.610   4.075   0.000  0.00  0.00    +0.000 A 
ATOM     42  C   UNL     1      -3.181   4.075   0.000  0.00  0.00    +0.000 A 
ATOM     43  C   UNL     1      -3.895   4.488   0.000  0.00  0.00    +0.000 A 
BRANCH  43  44
ATOM     44  O   UNL     1      -3.895   5.313   0.000  0.00  0.00    +0.000 OA
BRANCH  44  45
ATOM     45  C   UNL     1      -4.610   5.726   0.000  0.00  0.00    +0.000 C 
ATOM     46  C   UNL     1      -4.610   6.551   0.000  0.00  0.00    +0.000 C 
ENDBRANCH  44  45
ENDBRANCH  43  44
ENDBRANCH  37  38
ENDBRANCH  36  37
ENDBRANCH   2  31
BRANCH   1  47
ATOM     47  C   UNL     1      -1.752  -3.349   0.000  0.00  0.00    +0.000 C 
ATOM     48  C   UNL     1      -2.466  -2.937   0.000  0.00  0.00    +0.000 C 
ENDBRANCH   1  47
BRANCH   1  49
ATOM     49  C   UNL     1      -0.323  -3.349   0.000  0.00  0.00    +0.000 C 
BRANCH  49  50
ATOM     50  C   UNL     1      -0.323  -4.175   0.000  0.00  0.00    +0.000 A 
ATOM     51  C   UNL     1       0.392  -4.587   0.000  0.00  0.00    +0.000 A 
ATOM     52  C   UNL     1      -1.037  -4.587   0.000  0.00  0.00    +0.000 A 
ATOM     53  C   UNL     1       0.392  -5.412   0.000  0.00  0.00    +0.000 A 
ATOM     54  C   UNL     1      -1.037  -5.412   0.000  0.00  0.00    +0.000 A 
ATOM     55  C   UNL     1      -0.323  -5.824   0.000  0.00  0.00    +0.000 A 
BRANCH  53  56
ATOM     56  S   UNL     1       1.106  -5.824   0.000  0.00  0.00    +0.000 S 
ATOM     57  O   UNL     1       1.820  -6.237   0.000  0.00  0.00    +0.000 OA
ATOM     58  O   UNL     1       0.693  -6.539   0.000  0.00  0.00    +0.000 OA
ATOM     59  O   UNL     1       1.518  -5.110   0.000  0.00  0.00    +0.000 OA
ENDBRANCH  53  56
ENDBRANCH  49  50
ENDBRANCH   1  49
TORSDOF 15
REMARK  Name = 
REMARK  15 active torsions:
REMARK  status: ('A' for Active; 'I' for Inactive)
REMARK    1  A    between atoms: S_1  and  C_47
REMARK    2  A    between atoms: S_2  and  C_48
REMARK    3  A    between atoms: O_10  and  C_58
REMARK    4  A    between atoms: O_10  and  C_59
REMARK    5  A    between atoms: N_11  and  C_17
REMARK    6  A    between atoms: N_11  and  C_24
REMARK    7  A    between atoms: N_11  and  C_30
REMARK    8  A    between atoms: N_12  and  C_25
REMARK    9  A    between atoms: N_12  and  C_31
REMARK   10  A    between atoms: N_13  and  C_44
REMARK   11  A    between atoms: N_13  and  C_53
REMARK   12  A    between atoms: C_14  and  C_15
REMARK   13  A    between atoms: C_14  and  C_22
REMARK   14  A    between atoms: C_24  and  C_32
REMARK   15  A    between atoms: C_25  and  C_35
REMARK                            x       y       z     vdW  Elec       q    Type
REMARK                         _______ _______ _______ _____ _____    ______ ____
ROOT
ATOM      1 NA   UNL     1       2.579  -7.151   0.000  0.00  0.00    +0.000 Na
ENDROOT
TORSDOF 0
