REMARK  Name = 
REMARK  8 active torsions:
REMARK  status: ('A' for Active; 'I' for Inactive)
REMARK    1  A    between atoms: C_7  and  N_24
REMARK    2  A    between atoms: C_10  and  C_11
REMARK    3  A    between atoms: N_13  and  S_14
REMARK    4  A    between atoms: S_14  and  C_17
REMARK    5  A    between atoms: C_27  and  O_28
REMARK    6  A    between atoms: O_28  and  C_29
REMARK    7  A    between atoms: C_29  and  C_30
REMARK    8  A    between atoms: C_30  and  C_33
REMARK                            x       y       z     vdW  Elec       q    Type
REMARK                         _______ _______ _______ _____ _____    ______ ____
ROOT
ATOM      1  C   UNL     1       1.612  -3.175   0.000  0.00  0.00    +0.000 C 
ATOM      2  C   UNL     1       1.127  -2.507   0.000  0.00  0.00    +0.000 C 
ATOM      3  C   UNL     1       0.302  -2.507   0.000  0.00  0.00    +0.000 C 
ATOM      4  N   UNL     1       0.047  -1.722   0.000  0.00  0.00    +0.000 N 
ATOM      5  C   UNL     1      -0.738  -1.468   0.000  0.00  0.00    +0.000 A 
ATOM      6  N   UNL     1      -1.351  -2.019   0.000  0.00  0.00    +0.000 NA
ATOM      7  C   UNL     1      -2.135  -1.765   0.000  0.00  0.00    +0.000 A 
ATOM      8  C   UNL     1      -2.307  -0.958   0.000  0.00  0.00    +0.000 A 
ATOM      9  C   UNL     1      -1.694  -0.406   0.000  0.00  0.00    +0.000 A 
ATOM     10  C   UNL     1      -0.909  -0.660   0.000  0.00  0.00    +0.000 A 
ATOM     11  C   UNL     1       0.715  -1.238   0.000  0.00  0.00    +0.000 C 
ATOM     12  C   UNL     1       0.162  -0.624   0.000  0.00  0.00    +0.000 C 
ATOM     13  C   UNL     1       1.266  -0.624   0.000  0.00  0.00    +0.000 C 
ATOM     14  C   UNL     1       1.382  -1.722   0.000  0.00  0.00    +0.000 C 
ENDROOT
BRANCH   7  15
ATOM     15  N   UNL     1      -2.748  -2.317   0.000  0.00  0.00    +0.000 N 
ATOM     16  C   UNL     1      -2.662  -3.137   0.000  0.00  0.00    +0.000 A 
ATOM     17  C   UNL     1      -3.416  -3.473   0.000  0.00  0.00    +0.000 A 
ATOM     18  C   UNL     1      -3.968  -2.860   0.000  0.00  0.00    +0.000 A 
ATOM     19  N   UNL     1      -3.555  -2.145   0.000  0.00  0.00    +0.000 NA
BRANCH  18  20
ATOM     20  O   UNL     1      -4.788  -2.946   0.000  0.00  0.00    +0.000 OA
BRANCH  20  21
ATOM     21  C   UNL     1      -5.273  -2.278   0.000  0.00  0.00    +0.000 C 
BRANCH  21  22
ATOM     22  C   UNL     1      -6.094  -2.365   0.000  0.00  0.00    +0.000 C 
ATOM     23  C   UNL     1      -6.180  -1.544   0.000  0.00  0.00    +0.000 C 
ATOM     24  C   UNL     1      -6.008  -3.185   0.000  0.00  0.00    +0.000 C 
BRANCH  22  25
ATOM     25  C   UNL     1      -6.914  -2.451   0.000  0.00  0.00    +0.000 C 
ATOM     26  F   UNL     1      -7.735  -2.537   0.000  0.00  0.00    +0.000 F 
ATOM     27  F   UNL     1      -7.000  -1.630   0.000  0.00  0.00    +0.000 F 
ATOM     28  F   UNL     1      -6.828  -3.271   0.000  0.00  0.00    +0.000 F 
ENDBRANCH  22  25
ENDBRANCH  21  22
ENDBRANCH  20  21
ENDBRANCH  18  20
ENDBRANCH   7  15
BRANCH  10  29
ATOM     29  C   UNL     1      -0.296  -0.108   0.000  0.00  0.00    +0.000 C 
ATOM     30  O   UNL     1      -0.468   0.699   0.000  0.00  0.00    +0.000 OA
ATOM     31  N   UNL     1       0.489  -0.363   0.000  0.00  0.00    +0.000 NA
BRANCH  31  32
ATOM     32  S   UNL     1       1.102   0.189   0.000  0.00  0.00    +0.000 S 
ATOM     33  O   UNL     1       0.550   0.802   0.000  0.00  0.00    +0.000 OA
ATOM     34  O   UNL     1       1.654  -0.424   0.000  0.00  0.00    +0.000 OA
BRANCH  32  35
ATOM     35  C   UNL     1       1.715   0.741   0.000  0.00  0.00    +0.000 A 
ATOM     36  C   UNL     1       1.629   1.561   0.000  0.00  0.00    +0.000 A 
ATOM     37  N   UNL     1       2.382   1.897   0.000  0.00  0.00    +0.000 N 
ATOM     38  C   UNL     1       2.554   2.704   0.000  0.00  0.00    +0.000 C 
ATOM     39  N   UNL     1       2.934   1.284   0.000  0.00  0.00    +0.000 NA
ATOM     40  C   UNL     1       2.522   0.569   0.000  0.00  0.00    +0.000 A 
ATOM     41  C   UNL     1       2.857  -0.185   0.000  0.00  0.00    +0.000 C 
ENDBRANCH  32  35
ENDBRANCH  31  32
ENDBRANCH  10  29
TORSDOF 8
