REMARK  Name = 
REMARK  5 active torsions:
REMARK  status: ('A' for Active; 'I' for Inactive)
REMARK    1  A    between atoms: C_5  and  C_8
REMARK    2  A    between atoms: C_8  and  C_9
REMARK    3  A    between atoms: C_12  and  N_16
REMARK    4  A    between atoms: N_16  and  C_17
REMARK    5  A    between atoms: C_21  and  C_23
REMARK                            x       y       z     vdW  Elec       q    Type
REMARK                         _______ _______ _______ _____ _____    ______ ____
ROOT
ATOM      1  C   UNL     1      -1.435   1.031   0.000  0.00  0.00    +0.000 C 
ATOM      2  C   UNL     1      -0.713   2.269   0.000  0.00  0.00    +0.000 C 
ATOM      3  C   UNL     1      -1.435   1.856   0.000  0.00  0.00    +0.000 C 
ATOM      4  C   UNL     1      -0.713   0.619   0.000  0.00  0.00    +0.000 C 
ATOM      5  C   UNL     1       0.000   1.031   0.000  0.00  0.00    +0.000 C 
ATOM      6  C   UNL     1       0.000   1.856   0.000  0.00  0.00    +0.000 C 
ATOM      7  O   UNL     1      -2.148   2.269   0.000  0.00  0.00    +0.000 OA
ENDROOT
BRANCH   1   8
ATOM      8  C   UNL     1      -2.148   0.619   0.000  0.00  0.00    +0.000 C 
BRANCH   8  13
ATOM      9  C   UNL     1      -3.584   2.269   0.000  0.00  0.00    +0.000 A 
ATOM     10  C   UNL     1      -4.297   1.856   0.000  0.00  0.00    +0.000 A 
ATOM     11  C   UNL     1      -4.297   1.031   0.000  0.00  0.00    +0.000 A 
ATOM     12  C   UNL     1      -3.584   0.619   0.000  0.00  0.00    +0.000 A 
ATOM     13  C   UNL     1      -2.862   1.031   0.000  0.00  0.00    +0.000 A 
ATOM     14  C   UNL     1      -2.862   1.856   0.000  0.00  0.00    +0.000 A 
ATOM     15  I   UNL     1      -3.584   3.102   0.000  0.00  0.00    +0.000 I 
ENDBRANCH   8  13
ENDBRANCH   1   8
BRANCH   4  16
ATOM     16  N   UNL     1      -0.713  -0.206   0.000  0.00  0.00    +0.000 NA
BRANCH  16  17
ATOM     17  C   UNL     1       0.000  -0.619   0.000  0.00  0.00    +0.000 A 
ATOM     18  C   UNL     1       0.713  -0.206   0.000  0.00  0.00    +0.000 A 
ATOM     19  C   UNL     1       0.000  -1.452   0.000  0.00  0.00    +0.000 A 
ATOM     20  C   UNL     1       0.713  -1.865   0.000  0.00  0.00    +0.000 A 
ATOM     21  C   UNL     1       1.435  -1.452   0.000  0.00  0.00    +0.000 A 
ATOM     22  C   UNL     1       1.435  -0.619   0.000  0.00  0.00    +0.000 A 
BRANCH  21  23
ATOM     23  C   UNL     1       2.148  -1.865   0.000  0.00  0.00    +0.000 C 
ATOM     24  C   UNL     1       3.584  -1.865   0.000  0.00  0.00    +0.000 C 
ATOM     25  C   UNL     1       2.862  -1.452   0.000  0.00  0.00    +0.000 C 
ATOM     26  C   UNL     1       2.862  -0.619   0.000  0.00  0.00    +0.000 C 
ATOM     27  C   UNL     1       3.584  -2.690   0.000  0.00  0.00    +0.000 C 
ATOM     28  O   UNL     1       4.297  -3.102   0.000  0.00  0.00    +0.000 OA
ATOM     29  N   UNL     1       2.148  -2.690   0.000  0.00  0.00    +0.000 NA
ATOM     30  N   UNL     1       2.862  -3.102   0.000  0.00  0.00    +0.000 NA
ENDBRANCH  21  23
ENDBRANCH  16  17
ENDBRANCH   4  16
TORSDOF 5
