REMARK  Name = 
REMARK  0 active torsions:
REMARK  status: ('A' for Active; 'I' for Inactive)
REMARK                            x       y       z     vdW  Elec       q    Type
REMARK                         _______ _______ _______ _____ _____    ______ ____
ROOT
ATOM      1  C   UNL     1      13.596 -10.894   0.000  0.00  0.00    +0.000 C 
ATOM      2  C   UNL     1      12.867 -10.508   0.000  0.00  0.00    +0.000 C 
ATOM      3  C   UNL     1      14.282 -10.465   0.000  0.00  0.00    +0.000 C 
ATOM      4  C   UNL     1      13.596 -11.752   0.000  0.00  0.00    +0.000 C 
ATOM      5  C   UNL     1      12.138 -10.894   0.000  0.00  0.00    +0.000 C 
ATOM      6  C   UNL     1      12.867  -9.650   0.000  0.00  0.00    +0.000 C 
ATOM      7  C   UNL     1      14.282  -9.650   0.000  0.00  0.00    +0.000 C 
ATOM      8  C   UNL     1      15.741 -10.465   0.000  0.00  0.00    +0.000 C 
ATOM      9  C   UNL     1      12.867 -12.138   0.000  0.00  0.00    +0.000 C 
ATOM     10  C   UNL     1      12.138 -11.709   0.000  0.00  0.00    +0.000 C 
ATOM     11  C   UNL     1      11.452 -10.508   0.000  0.00  0.00    +0.000 C 
ATOM     12  C   UNL     1      12.138  -9.993   0.000  0.00  0.00    +0.000 C 
ATOM     13  C   UNL     1      13.596  -9.221   0.000  0.00  0.00    +0.000 C 
ATOM     14  C   UNL     1      15.011  -9.221   0.000  0.00  0.00    +0.000 C 
ATOM     15  C   UNL     1      14.239  -8.621   0.000  0.00  0.00    +0.000 C 
ATOM     16  C   UNL     1      15.741  -9.650   0.000  0.00  0.00    +0.000 C 
ATOM     17  C   UNL     1      11.452 -12.138   0.000  0.00  0.00    +0.000 C 
ATOM     18  C   UNL     1      10.722 -10.894   0.000  0.00  0.00    +0.000 C 
ATOM     19  O   UNL     1      15.011  -8.406   0.000  0.00  0.00    +0.000 OA
ATOM     20  C   UNL     1      10.722 -11.709   0.000  0.00  0.00    +0.000 C 
ATOM     21  O   UNL     1      10.036 -12.138   0.000  0.00  0.00    +0.000 OA
ENDROOT
TORSDOF 0
