REMARK  Name = 
REMARK  12 active torsions:
REMARK  status: ('A' for Active; 'I' for Inactive)
REMARK    1  A    between atoms: O_4  and  C_24
REMARK    2  A    between atoms: C_6  and  C_11
REMARK    3  A    between atoms: C_7  and  C_12
REMARK    4  A    between atoms: C_12  and  C_15
REMARK    5  A    between atoms: C_13  and  C_14
REMARK    6  A    between atoms: C_13  and  C_16
REMARK    7  A    between atoms: C_16  and  C_19
REMARK    8  A    between atoms: C_19  and  C_21
REMARK    9  A    between atoms: C_20  and  C_22
REMARK   10  A    between atoms: C_21  and  C_25
REMARK   11  A    between atoms: C_22  and  C_23
REMARK   12  A    between atoms: C_23  and  C_24
REMARK                            x       y       z     vdW  Elec       q    Type
REMARK                         _______ _______ _______ _____ _____    ______ ____
ROOT
ATOM      1  O   UNL     1      -3.623  -1.446   0.000  0.00  0.00    +0.000 OA
ATOM      2  O   UNL     1      -3.862   1.399   0.000  0.00  0.00    +0.000 OA
ATOM      3  C   UNL     1      -2.725  -0.342   0.000  0.00  0.00    +0.000 C 
ATOM      4  C   UNL     1      -2.717   0.469   0.000  0.00  0.00    +0.000 C 
ATOM      5  C   UNL     1      -3.441  -0.659   0.000  0.00  0.00    +0.000 C 
ATOM      6  C   UNL     1      -3.552   0.651   0.000  0.00  0.00    +0.000 C 
ATOM      7  C   UNL     1      -3.973  -0.040   0.000  0.00  0.00    +0.000 C 
ENDROOT
BRANCH   3   8
ATOM      8  C   UNL     1      -1.986  -0.969   0.000  0.00  0.00    +0.000 C 
ATOM      9  C   UNL     1      -1.279  -0.580   0.000  0.00  0.00    +0.000 C 
BRANCH   9  11
ATOM     10  O   UNL     1      -1.168  -1.708   0.000  0.00  0.00    +0.000 OA
ATOM     11  C   UNL     1      -0.588  -1.001   0.000  0.00  0.00    +0.000 C 
ATOM     12  C   UNL     1       0.000  -1.629   0.000  0.00  0.00    +0.000 C 
BRANCH  11  13
ATOM     13  C   UNL     1       0.127  -0.612   0.000  0.00  0.00    +0.000 C 
BRANCH  13  14
ATOM     14  C   UNL     1       0.834  -1.041   0.000  0.00  0.00    +0.000 C 
BRANCH  14  15
ATOM     15  C   UNL     1       1.549  -0.643   0.000  0.00  0.00    +0.000 C 
BRANCH  15  16
ATOM     16  C   UNL     1       2.241  -1.065   0.000  0.00  0.00    +0.000 C 
ATOM     17  C   UNL     1       2.964  -0.667   0.000  0.00  0.00    +0.000 C 
ENDBRANCH  15  16
ENDBRANCH  14  15
ENDBRANCH  13  14
ENDBRANCH  11  13
ENDBRANCH   9  11
ENDBRANCH   3   8
BRANCH   4  18
ATOM     18  C   UNL     1      -2.010   0.882   0.000  0.00  0.00    +0.000 C 
BRANCH  18  19
ATOM     19  C   UNL     1      -1.287   0.469   0.000  0.00  0.00    +0.000 C 
ATOM     20  C   UNL     1      -0.461   0.469   0.000  0.00  0.00    +0.000 C 
ATOM     21  C   UNL     1       0.365   0.469   0.000  0.00  0.00    +0.000 C 
BRANCH  21  22
ATOM     22  C   UNL     1       1.105   0.882   0.000  0.00  0.00    +0.000 C 
BRANCH  22  23
ATOM     23  C   UNL     1       1.820   0.469   0.000  0.00  0.00    +0.000 C 
BRANCH  23  25
ATOM     24  O   UNL     1       2.535   1.708   0.000  0.00  0.00    +0.000 OA
ATOM     25  C   UNL     1       2.535   0.882   0.000  0.00  0.00    +0.000 C 
BRANCH  25  26
ATOM     26  O   UNL     1       3.258   0.469   0.000  0.00  0.00    +0.000 OA
ATOM     27  C   UNL     1       3.973   0.882   0.000  0.00  0.00    +0.000 C 
ENDBRANCH  25  26
ENDBRANCH  23  25
ENDBRANCH  22  23
ENDBRANCH  21  22
ENDBRANCH  18  19
ENDBRANCH   4  18
TORSDOF 12
