REMARK  Name = 
REMARK  6 active torsions:
REMARK  status: ('A' for Active; 'I' for Inactive)
REMARK    1  A    between atoms: C_7  and  C_8
REMARK    2  A    between atoms: C_10  and  N_34
REMARK    3  A    between atoms: N_16  and  C_18
REMARK    4  A    between atoms: C_18  and  C_20
REMARK    5  A    between atoms: C_22  and  C_30
REMARK    6  A    between atoms: C_24  and  C_26
REMARK                            x       y       z     vdW  Elec       q    Type
REMARK                         _______ _______ _______ _____ _____    ______ ____
ROOT
ATOM      1  C   UNL     1       5.496   2.348   0.000  0.00  0.00    +0.000 C 
ATOM      2  C   UNL     1       4.781   1.935   0.000  0.00  0.00    +0.000 C 
ATOM      3  C   UNL     1       4.067   2.348   0.000  0.00  0.00    +0.000 C 
ATOM      4  C   UNL     1       4.067   3.173   0.000  0.00  0.00    +0.000 C 
ATOM      5  C   UNL     1       4.781   3.585   0.000  0.00  0.00    +0.000 C 
ATOM      6  N   UNL     1       5.496   3.173   0.000  0.00  0.00    +0.000 N 
ATOM      7  C   UNL     1       6.210   3.585   0.000  0.00  0.00    +0.000 C 
ATOM      8  O   UNL     1       6.925   3.173   0.000  0.00  0.00    +0.000 OA
ATOM      9  N   UNL     1       6.210   4.410   0.000  0.00  0.00    +0.000 N 
ATOM     10  C   UNL     1       6.925   4.823   0.000  0.00  0.00    +0.000 C 
ENDROOT
BRANCH   3  11
ATOM     11  N   UNL     1       3.352   1.935   0.000  0.00  0.00    +0.000 NA
ATOM     12  C   UNL     1       3.352   1.110   0.000  0.00  0.00    +0.000 C 
ATOM     13  C   UNL     1       2.638   0.698   0.000  0.00  0.00    +0.000 C 
ATOM     14  N   UNL     1       1.923   1.110   0.000  0.00  0.00    +0.000 N 
ATOM     15  C   UNL     1       1.923   1.935   0.000  0.00  0.00    +0.000 C 
ATOM     16  C   UNL     1       2.638   2.348   0.000  0.00  0.00    +0.000 C 
ATOM     17  C   UNL     1       1.139   2.190   0.000  0.00  0.00    +0.000 C 
ATOM     18  C   UNL     1       0.654   1.523   0.000  0.00  0.00    +0.000 C 
ATOM     19  C   UNL     1       1.139   0.856   0.000  0.00  0.00    +0.000 C 
ATOM     20  O   UNL     1       0.884   0.071   0.000  0.00  0.00    +0.000 OA
ENDBRANCH   3  11
BRANCH   1  27
ATOM     21  C   UNL     1       5.496   0.698   0.000  0.00  0.00    +0.000 C 
ATOM     22  C   UNL     1       6.210   1.110   0.000  0.00  0.00    +0.000 A 
ATOM     23  C   UNL     1       6.925   0.698   0.000  0.00  0.00    +0.000 A 
ATOM     24  C   UNL     1       7.639   1.110   0.000  0.00  0.00    +0.000 A 
ATOM     25  C   UNL     1       7.639   1.935   0.000  0.00  0.00    +0.000 A 
ATOM     26  C   UNL     1       6.925   2.348   0.000  0.00  0.00    +0.000 A 
ATOM     27  C   UNL     1       6.210   1.935   0.000  0.00  0.00    +0.000 A 
ATOM     28  F   UNL     1       8.354   0.698   0.000  0.00  0.00    +0.000 F 
ENDBRANCH   1  27
BRANCH   9  29
ATOM     29  C   UNL     1       5.496   4.823   0.000  0.00  0.00    +0.000 C 
ATOM     30  C   UNL     1       4.781   4.410   0.000  0.00  0.00    +0.000 C 
BRANCH  29  31
ATOM     31  C   UNL     1       5.496   5.648   0.000  0.00  0.00    +0.000 A 
ATOM     32  C   UNL     1       4.781   6.060   0.000  0.00  0.00    +0.000 A 
ATOM     33  C   UNL     1       4.781   6.885   0.000  0.00  0.00    +0.000 A 
ATOM     34  C   UNL     1       5.496   7.298   0.000  0.00  0.00    +0.000 A 
ATOM     35  C   UNL     1       6.210   6.885   0.000  0.00  0.00    +0.000 A 
ATOM     36  C   UNL     1       6.210   6.060   0.000  0.00  0.00    +0.000 A 
BRANCH  35  37
ATOM     37  C   UNL     1       6.925   7.298   0.000  0.00  0.00    +0.000 C 
ATOM     38  F   UNL     1       7.639   7.710   0.000  0.00  0.00    +0.000 F 
ATOM     39  F   UNL     1       6.512   8.012   0.000  0.00  0.00    +0.000 F 
ATOM     40  F   UNL     1       7.337   6.583   0.000  0.00  0.00    +0.000 F 
ENDBRANCH  35  37
BRANCH  33  41
ATOM     41  C   UNL     1       4.067   7.298   0.000  0.00  0.00    +0.000 C 
ATOM     42  F   UNL     1       3.352   7.710   0.000  0.00  0.00    +0.000 F 
ATOM     43  F   UNL     1       4.479   8.012   0.000  0.00  0.00    +0.000 F 
ATOM     44  F   UNL     1       3.654   6.583   0.000  0.00  0.00    +0.000 F 
ENDBRANCH  33  41
ENDBRANCH  29  31
ENDBRANCH   9  29
TORSDOF 6
