REMARK  Name = 
REMARK  7 active torsions:
REMARK  status: ('A' for Active; 'I' for Inactive)
REMARK    1  A    between atoms: C_9  and  O_23
REMARK    2  A    between atoms: C_10  and  C_20
REMARK    3  A    between atoms: O_23  and  C_24
REMARK    4  A    between atoms: C_24  and  O_25
REMARK    5  A    between atoms: O_25  and  C_26
REMARK    6  A    between atoms: C_26  and  O_27
REMARK    7  A    between atoms: O_27  and  C_28
REMARK                            x       y       z     vdW  Elec       q    Type
REMARK                         _______ _______ _______ _____ _____    ______ ____
ROOT
ATOM      1  C   UNL     1      -1.181   1.873   0.000  0.00  0.00    +0.000 A 
ATOM      2  C   UNL     1      -1.181   1.048   0.000  0.00  0.00    +0.000 A 
ATOM      3  C   UNL     1      -0.466   0.635   0.000  0.00  0.00    +0.000 C 
ATOM      4  C   UNL     1       0.248   1.048   0.000  0.00  0.00    +0.000 C 
ATOM      5  N   UNL     1       0.248   1.873   0.000  0.00  0.00    +0.000 N 
ATOM      6  S   UNL     1      -0.466   2.285   0.000  0.00  0.00    +0.000 S 
ATOM      7  C   UNL     1      -2.610   1.873   0.000  0.00  0.00    +0.000 A 
ATOM      8  C   UNL     1      -2.610   1.048   0.000  0.00  0.00    +0.000 A 
ATOM      9  C   UNL     1      -1.895   0.635   0.000  0.00  0.00    +0.000 A 
ATOM     10  C   UNL     1      -1.895   2.285   0.000  0.00  0.00    +0.000 A 
ATOM     11  O   UNL     1      -0.996   2.917   0.000  0.00  0.00    +0.000 OA
ATOM     12  O   UNL     1       0.064   2.917   0.000  0.00  0.00    +0.000 OA
ATOM     13  C   UNL     1       0.963   2.285   0.000  0.00  0.00    +0.000 C 
ENDROOT
BRANCH   4  20
ATOM     14  C   UNL     1       2.309   0.517   0.000  0.00  0.00    +0.000 A 
ATOM     15  N   UNL     1       2.166  -0.295   0.000  0.00  0.00    +0.000 NA
ATOM     16  C   UNL     1       2.798  -0.825   0.000  0.00  0.00    +0.000 A 
ATOM     17  C   UNL     1       3.573  -0.543   0.000  0.00  0.00    +0.000 A 
ATOM     18  C   UNL     1       3.717   0.269   0.000  0.00  0.00    +0.000 A 
ATOM     19  C   UNL     1       3.085   0.800   0.000  0.00  0.00    +0.000 A 
ATOM     20  C   UNL     1       0.963   0.635   0.000  0.00  0.00    +0.000 C 
ATOM     21  N   UNL     1       1.677   1.048   0.000  0.00  0.00    +0.000 NA
ATOM     22  O   UNL     1       0.963  -0.190   0.000  0.00  0.00    +0.000 OA
ENDBRANCH   4  20
BRANCH   3  23
ATOM     23  O   UNL     1      -0.466  -0.190   0.000  0.00  0.00    +0.000 OA
BRANCH  23  24
ATOM     24  C   UNL     1      -1.241  -0.472   0.000  0.00  0.00    +0.000 C 
ATOM     25  C   UNL     1      -1.684  -0.101   0.000  0.00  0.00    +0.000 C 
BRANCH  24  26
ATOM     26  O   UNL     1      -1.385  -1.284   0.000  0.00  0.00    +0.000 OA
BRANCH  26  27
ATOM     27  C   UNL     1      -2.197  -1.428   0.000  0.00  0.00    +0.000 C 
ATOM     28  O   UNL     1      -2.727  -0.796   0.000  0.00  0.00    +0.000 OA
BRANCH  27  29
ATOM     29  O   UNL     1      -2.479  -2.203   0.000  0.00  0.00    +0.000 OA
BRANCH  29  30
ATOM     30  C   UNL     1      -3.304  -2.203   0.000  0.00  0.00    +0.000 C 
ATOM     31  C   UNL     1      -3.717  -2.917   0.000  0.00  0.00    +0.000 C 
ENDBRANCH  29  30
ENDBRANCH  27  29
ENDBRANCH  26  27
ENDBRANCH  24  26
ENDBRANCH  23  24
ENDBRANCH   3  23
TORSDOF 7
