REMARK  Name = 
REMARK  8 active torsions:
REMARK  status: ('A' for Active; 'I' for Inactive)
REMARK    1  A    between atoms: C_3  and  N_12
REMARK    2  A    between atoms: C_6  and  S_8
REMARK    3  A    between atoms: N_12  and  C_13
REMARK    4  A    between atoms: C_14  and  O_32
REMARK    5  A    between atoms: C_15  and  O_19
REMARK    6  A    between atoms: O_19  and  C_20
REMARK    7  A    between atoms: C_26  and  O_28
REMARK    8  A    between atoms: O_28  and  C_29
REMARK                            x       y       z     vdW  Elec       q    Type
REMARK                         _______ _______ _______ _____ _____    ______ ____
ROOT
ATOM      1  C   UNL     1       5.716  -4.125   0.000  0.00  0.00    +0.000 A 
ATOM      2  C   UNL     1       6.430  -3.712   0.000  0.00  0.00    +0.000 A 
ATOM      3  C   UNL     1       7.145  -4.125   0.000  0.00  0.00    +0.000 A 
ATOM      4  N   UNL     1       7.145  -4.950   0.000  0.00  0.00    +0.000 NA
ATOM      5  C   UNL     1       6.430  -5.362   0.000  0.00  0.00    +0.000 A 
ATOM      6  N   UNL     1       5.716  -4.950   0.000  0.00  0.00    +0.000 NA
ENDROOT
BRANCH   2   7
ATOM      7  O   UNL     1       6.430  -2.888   0.000  0.00  0.00    +0.000 OA
ATOM      8  C   UNL     1       7.145  -2.475   0.000  0.00  0.00    +0.000 C 
ENDBRANCH   2   7
BRANCH   1   9
ATOM      9  N   UNL     1       5.001  -3.712   0.000  0.00  0.00    +0.000 NA
BRANCH   9  12
ATOM     10  C   UNL     1       3.572  -2.888   0.000  0.00  0.00    +0.000 C 
ATOM     11  C   UNL     1       3.572  -3.712   0.000  0.00  0.00    +0.000 A 
ATOM     12  C   UNL     1       4.287  -4.125   0.000  0.00  0.00    +0.000 A 
ATOM     13  C   UNL     1       4.287  -4.950   0.000  0.00  0.00    +0.000 A 
ATOM     14  C   UNL     1       3.572  -5.362   0.000  0.00  0.00    +0.000 A 
ATOM     15  C   UNL     1       2.858  -4.950   0.000  0.00  0.00    +0.000 A 
ATOM     16  N   UNL     1       2.858  -4.125   0.000  0.00  0.00    +0.000 NA
BRANCH  15  17
ATOM     17  S   UNL     1       2.143  -5.362   0.000  0.00  0.00    +0.000 S 
ATOM     18  O   UNL     1       1.429  -5.775   0.000  0.00  0.00    +0.000 OA
ATOM     19  O   UNL     1       2.556  -6.077   0.000  0.00  0.00    +0.000 OA
ATOM     20  C   UNL     1       1.731  -4.648   0.000  0.00  0.00    +0.000 C 
ENDBRANCH  15  17
ENDBRANCH   9  12
ENDBRANCH   1   9
BRANCH   3  21
ATOM     21  O   UNL     1       7.859  -3.712   0.000  0.00  0.00    +0.000 OA
BRANCH  21  22
ATOM     22  C   UNL     1       8.574  -4.125   0.000  0.00  0.00    +0.000 C 
ATOM     23  C   UNL     1       9.288  -3.712   0.000  0.00  0.00    +0.000 C 
ATOM     24  C   UNL     1      10.003  -4.125   0.000  0.00  0.00    +0.000 C 
ATOM     25  N   UNL     1      10.003  -4.950   0.000  0.00  0.00    +0.000 N 
ATOM     26  C   UNL     1       9.288  -5.362   0.000  0.00  0.00    +0.000 C 
ATOM     27  C   UNL     1       8.574  -4.950   0.000  0.00  0.00    +0.000 C 
ATOM     28  C   UNL     1      10.717  -5.362   0.000  0.00  0.00    +0.000 C 
ATOM     29  O   UNL     1      10.717  -6.188   0.000  0.00  0.00    +0.000 OA
BRANCH  28  30
ATOM     30  O   UNL     1      11.431  -4.950   0.000  0.00  0.00    +0.000 OA
BRANCH  30  31
ATOM     31  C   UNL     1      12.146  -5.362   0.000  0.00  0.00    +0.000 C 
ATOM     32  C   UNL     1      12.861  -4.950   0.000  0.00  0.00    +0.000 C 
ATOM     33  C   UNL     1      12.146  -6.188   0.000  0.00  0.00    +0.000 C 
ENDBRANCH  30  31
ENDBRANCH  28  30
ENDBRANCH  21  22
ENDBRANCH   3  21
TORSDOF 8
