REMARK  Name = 
REMARK  2 active torsions:
REMARK  status: ('A' for Active; 'I' for Inactive)
REMARK    1  A    between atoms: C_10  and  S_13
REMARK    2  A    between atoms: S_13  and  N_17
REMARK                            x       y       z     vdW  Elec       q    Type
REMARK                         _______ _______ _______ _____ _____    ______ ____
ROOT
ATOM      1  C   UNL     1      -1.072   2.475   0.000  0.00  0.00    +0.000 A 
ATOM      2  C   UNL     1      -1.786   1.238   0.000  0.00  0.00    +0.000 A 
ATOM      3  C   UNL     1      -1.072   0.825   0.000  0.00  0.00    +0.000 A 
ATOM      4  C   UNL     1      -0.357   2.063   0.000  0.00  0.00    +0.000 A 
ATOM      5  C   UNL     1      -0.357   1.238   0.000  0.00  0.00    +0.000 A 
ATOM      6  C   UNL     1       0.357   2.475   0.000  0.00  0.00    +0.000 A 
ATOM      7  C   UNL     1       1.072   1.238   0.000  0.00  0.00    +0.000 A 
ATOM      8  C   UNL     1       1.072   2.063   0.000  0.00  0.00    +0.000 A 
ATOM      9  N   UNL     1      -1.786   2.063   0.000  0.00  0.00    +0.000 NA
ATOM     10  C   UNL     1       0.357   0.825   0.000  0.00  0.00    +0.000 A 
ENDROOT
BRANCH  10  13
ATOM     11  O   UNL     1       1.182   0.000   0.000  0.00  0.00    +0.000 OA
ATOM     12  O   UNL     1      -0.468   0.000   0.000  0.00  0.00    +0.000 OA
ATOM     13  S   UNL     1       0.357   0.000   0.000  0.00  0.00    +0.000 S 
BRANCH  13  17
ATOM     14  C   UNL     1      -0.357  -1.238   0.000  0.00  0.00    +0.000 C 
ATOM     15  C   UNL     1      -0.357  -2.063   0.000  0.00  0.00    +0.000 C 
ATOM     16  C   UNL     1       1.072  -2.063   0.000  0.00  0.00    +0.000 C 
ATOM     17  N   UNL     1       0.357  -0.825   0.000  0.00  0.00    +0.000 NA
ATOM     18  N   UNL     1       0.357  -2.475   0.000  0.00  0.00    +0.000 NA
ATOM     19  C   UNL     1       1.072  -1.238   0.000  0.00  0.00    +0.000 C 
ATOM     20  C   UNL     1       1.786  -0.825   0.000  0.00  0.00    +0.000 C 
ENDBRANCH  13  17
ENDBRANCH  10  13
TORSDOF 2
