REMARK  Name = 
REMARK  3 active torsions:
REMARK  status: ('A' for Active; 'I' for Inactive)
REMARK    1  A    between atoms: C_3  and  C_15
REMARK    2  A    between atoms: N_6  and  C_7
REMARK    3  A    between atoms: C_16  and  C_17
REMARK                            x       y       z     vdW  Elec       q    Type
REMARK                         _______ _______ _______ _____ _____    ______ ____
ROOT
ATOM      1  C   UNL     1       0.715  -2.062   0.000  0.00  0.00    +0.000 C 
ATOM      2  C   UNL     1       0.715  -2.888   0.000  0.00  0.00    +0.000 A 
ATOM      3  C   UNL     1       1.382  -3.372   0.000  0.00  0.00    +0.000 A 
ATOM      4  N   UNL     1       1.127  -4.157   0.000  0.00  0.00    +0.000 NA
ATOM      5  C   UNL     1       0.302  -4.157   0.000  0.00  0.00    +0.000 A 
ATOM      6  N   UNL     1       0.047  -3.372   0.000  0.00  0.00    +0.000 N 
ATOM      7  C   UNL     1      -0.183  -4.824   0.000  0.00  0.00    +0.000 C 
ENDROOT
BRANCH   6   8
ATOM      8  C   UNL     1      -0.738  -3.118   0.000  0.00  0.00    +0.000 A 
ATOM      9  C   UNL     1      -1.351  -3.670   0.000  0.00  0.00    +0.000 A 
ATOM     10  C   UNL     1      -2.135  -3.415   0.000  0.00  0.00    +0.000 A 
ATOM     11  C   UNL     1      -2.307  -2.608   0.000  0.00  0.00    +0.000 A 
ATOM     12  C   UNL     1      -1.694  -2.056   0.000  0.00  0.00    +0.000 A 
ATOM     13  C   UNL     1      -0.909  -2.311   0.000  0.00  0.00    +0.000 A 
ATOM     14  F   UNL     1      -3.091  -2.353   0.000  0.00  0.00    +0.000 F 
ENDBRANCH   6   8
BRANCH   3  15
ATOM     15  C   UNL     1       2.167  -3.118   0.000  0.00  0.00    +0.000 C 
ATOM     16  C   UNL     1       2.951  -2.862   0.000  0.00  0.00    +0.000 C 
BRANCH  16  17
ATOM     17  C   UNL     1       3.736  -2.608   0.000  0.00  0.00    +0.000 A 
ATOM     18  C   UNL     1       3.907  -1.801   0.000  0.00  0.00    +0.000 A 
ATOM     19  C   UNL     1       4.692  -1.546   0.000  0.00  0.00    +0.000 A 
ATOM     20  N   UNL     1       5.305  -2.098   0.000  0.00  0.00    +0.000 NA
ATOM     21  C   UNL     1       5.133  -2.905   0.000  0.00  0.00    +0.000 A 
ATOM     22  C   UNL     1       4.349  -3.160   0.000  0.00  0.00    +0.000 A 
ATOM     23 CL   UNL     1       5.747  -3.457   0.000  0.00  0.00    +0.000 Cl
ENDBRANCH  16  17
ENDBRANCH   3  15
TORSDOF 3
