REMARK  Name = 
REMARK  2 active torsions:
REMARK  status: ('A' for Active; 'I' for Inactive)
REMARK    1  A    between atoms: CR_3  and  O_4
REMARK    2  A    between atoms: O_4  and  CR_7
REMARK                            x       y       z     vdW  Elec       q    Type
REMARK                         _______ _______ _______ _____ _____    ______ ____
ROOT
ATOM      1  O   UNL     1       0.000   0.000   0.000  0.00  0.00    +0.000 OA
ENDROOT
BRANCH   1   4
ATOM      2  O   UNL     1       0.825   0.825   0.000  0.00  0.00    +0.000 OA
ATOM      3  O   UNL     1       0.825  -0.825   0.000  0.00  0.00    +0.000 OA
ATOM      4 CR   UNL     1       0.825   0.000   0.000  0.00  0.00    +0.000 Cr
ATOM      5  O   UNL     1       1.650   0.000   0.000  0.00  0.00    +0.000 OA
ENDBRANCH   1   4
BRANCH   1   8
ATOM      6  O   UNL     1      -0.825   0.825   0.000  0.00  0.00    +0.000 OA
ATOM      7  O   UNL     1      -0.825  -0.825   0.000  0.00  0.00    +0.000 OA
ATOM      8 CR   UNL     1      -0.825   0.000   0.000  0.00  0.00    +0.000 Cr
ATOM      9  O   UNL     1      -1.650   0.000   0.000  0.00  0.00    +0.000 OA
ENDBRANCH   1   8
TORSDOF 2
