REMARK  Name = 
REMARK  13 active torsions:
REMARK  status: ('A' for Active; 'I' for Inactive)
REMARK    1  A    between atoms: S_1  and  C_11
REMARK    2  A    between atoms: S_1  and  C_16
REMARK    3  A    between atoms: O_4  and  C_24
REMARK    4  A    between atoms: N_7  and  C_10
REMARK    5  A    between atoms: N_8  and  CA_19
REMARK    6  A    between atoms: N_9  and  C_17
REMARK    7  A    between atoms: C_10  and  C_11
REMARK    8  A    between atoms: C_10  and  C_15
REMARK    9  A    between atoms: C_12  and  C_13
REMARK   10  A    between atoms: C_12  and  C_14
REMARK   11  A    between atoms: C_13  and  C_17
REMARK   12  A    between atoms: C_16  and  C_18
REMARK   13  A    between atoms: CA_19  and  C_25
REMARK                            x       y       z     vdW  Elec       q    Type
REMARK                         _______ _______ _______ _____ _____    ______ ____
ROOT
ATOM      1  C   UNK A   1      -1.293   1.031   0.000  0.00  0.00    +0.000 C 
ENDROOT
BRANCH   1   3
ATOM      2  O   UNK A   0       0.136   1.856   0.000  0.00  0.00    +0.000 OA
ATOM      3  N   UNK A   1      -0.579   0.619   0.000  0.00  0.00    +0.000 N 
ATOM      4  C   UNK A   0       0.136   1.031   0.000  0.00  0.00    +0.000 C 
ATOM      5  H   UNK A   1      -0.579   0.107   0.000  0.00  0.00    +0.000 HD
BRANCH   4   6
ATOM      6  C   UNK A   0       0.850   0.619   0.000  0.00  0.00    +0.000 C 
BRANCH   6   7
ATOM      7  C   UNK A   0       1.565   1.031   0.000  0.00  0.00    +0.000 C 
BRANCH   7   8
ATOM      8  C   UNK A   0       2.279   0.619   0.000  0.00  0.00    +0.000 C 
BRANCH   8   9
ATOM      9  N   UNK A   0       2.994   1.031   0.000  0.00  0.00    +0.000 NA
ATOM     10  H   UNK A   0       2.994   1.543   0.000  0.00  0.00    +0.000 HD
ATOM     11  H   UNK A   0       3.437   0.775   0.000  0.00  0.00    +0.000 HD
ENDBRANCH   8   9
ENDBRANCH   7   8
ENDBRANCH   6   7
ENDBRANCH   4   6
ENDBRANCH   1   3
BRANCH   1  14
ATOM     12  O   UNK A   1      -0.579   2.269   0.000  0.00  0.00    +0.000 OA
ATOM     13  N   GLY A   2      -2.008   2.269   0.000  0.00  0.00    +0.000 N 
ATOM     14  C   UNK A   1      -1.293   1.856   0.000  0.00  0.00    +0.000 C 
ATOM     15  H   GLY A   2      -2.451   2.013   0.000  0.00  0.00    +0.000 HD
BRANCH  13  16
ATOM     16  CA  GLY A   2      -2.008   3.094   0.000  0.00  0.00    +0.000 C 
BRANCH  16  19
ATOM     17  O   GLY A   2      -2.722   4.331   0.000  0.00  0.00    +0.000 OA
ATOM     18  OXT GLY A   2      -3.437   3.094   0.000  0.00  0.00    +0.000 OA
ATOM     19  C   GLY A   2      -2.722   3.506   0.000  0.00  0.00    +0.000 C 
ENDBRANCH  16  19
ENDBRANCH  13  16
ENDBRANCH   1  14
BRANCH   1  20
ATOM     20  C   UNK A   1      -2.008   0.619   0.000  0.00  0.00    +0.000 C 
BRANCH  20  21
ATOM     21  S   UNK A   1      -2.008  -0.206   0.000  0.00  0.00    +0.000 S 
BRANCH  21  22
ATOM     22  C   UNK A   1      -2.722  -0.619   0.000  0.00  0.00    +0.000 C 
BRANCH  22  23
ATOM     23  C   UNK A   1      -2.722  -1.444   0.000  0.00  0.00    +0.000 A 
ATOM     24  C   UNK A   1      -2.008  -1.856   0.000  0.00  0.00    +0.000 A 
ATOM     25  C   UNK A   1      -3.437  -1.856   0.000  0.00  0.00    +0.000 A 
ATOM     26  C   UNK A   1      -2.008  -2.681   0.000  0.00  0.00    +0.000 A 
ATOM     27  C   UNK A   1      -3.437  -2.681   0.000  0.00  0.00    +0.000 A 
ATOM     28  C   UNK A   1      -2.722  -3.094   0.000  0.00  0.00    +0.000 A 
BRANCH  28  29
ATOM     29  O   UNK A   1      -2.722  -3.919   0.000  0.00  0.00    +0.000 OA
ATOM     30  C   UNK A   1      -3.437  -4.331   0.000  0.00  0.00    +0.000 C 
ENDBRANCH  28  29
ENDBRANCH  22  23
ENDBRANCH  21  22
ENDBRANCH  20  21
ENDBRANCH   1  20
TORSDOF 13
