REMARK  Name = 
REMARK  0 active torsions:
REMARK  status: ('A' for Active; 'I' for Inactive)
REMARK                            x       y       z     vdW  Elec       q    Type
REMARK                         _______ _______ _______ _____ _____    ______ ____
ROOT
ATOM      1  C   UNL     1       4.222  -1.283   0.000  0.00  0.00    +0.000 C 
ATOM      2  C   UNL     1       3.500  -1.682   0.000  0.00  0.00    +0.000 C 
ATOM      3  C   UNL     1       2.793  -1.256   0.000  0.00  0.00    +0.000 C 
ATOM      4  C   UNL     1       2.071  -1.654   0.000  0.00  0.00    +0.000 C 
ATOM      5  O   UNL     1       1.365  -1.228   0.000  0.00  0.00    +0.000 OA
ATOM      6  C   UNL     1       2.055  -2.479   0.000  0.00  0.00    +0.000 A 
ATOM      7  C   UNL     1       1.333  -2.878   0.000  0.00  0.00    +0.000 A 
ATOM      8  C   UNL     1       0.626  -2.452   0.000  0.00  0.00    +0.000 C 
ATOM      9  O   UNL     1       0.642  -1.627   0.000  0.00  0.00    +0.000 OA
ATOM     10  C   UNL     1      -0.096  -2.850   0.000  0.00  0.00    +0.000 A 
ATOM     11  C   UNL     1      -0.112  -3.675   0.000  0.00  0.00    +0.000 A 
ATOM     12  C   UNL     1      -0.834  -4.074   0.000  0.00  0.00    +0.000 A 
ATOM     13  O   UNL     1      -0.850  -4.899   0.000  0.00  0.00    +0.000 OA
ATOM     14  C   UNL     1      -1.540  -3.647   0.000  0.00  0.00    +0.000 A 
ATOM     15  C   UNL     1      -1.524  -2.823   0.000  0.00  0.00    +0.000 A 
ATOM     16  C   UNL     1      -0.802  -2.424   0.000  0.00  0.00    +0.000 A 
ATOM     17  C   UNL     1       0.595  -4.101   0.000  0.00  0.00    +0.000 C 
ATOM     18  O   UNL     1       0.579  -4.926   0.000  0.00  0.00    +0.000 OA
ATOM     19  C   UNL     1       1.317  -3.703   0.000  0.00  0.00    +0.000 A 
ATOM     20  C   UNL     1       2.023  -4.129   0.000  0.00  0.00    +0.000 A 
ATOM     21  C   UNL     1       2.745  -3.730   0.000  0.00  0.00    +0.000 A 
ATOM     22  C   UNL     1       2.761  -2.905   0.000  0.00  0.00    +0.000 A 
ATOM     23  C   UNL     1       3.484  -2.507   0.000  0.00  0.00    +0.000 C 
ENDROOT
TORSDOF 0
