REMARK  Name = 
REMARK  1 active torsions:
REMARK  status: ('A' for Active; 'I' for Inactive)
REMARK    1  A    between atoms: C_2  and  C_7
REMARK                            x       y       z     vdW  Elec       q    Type
REMARK                         _______ _______ _______ _____ _____    ______ ____
ROOT
ATOM      1  C   UNK     1       0.980  -0.155   0.000  0.00  0.00    +0.000 C 
ATOM      2  C   UNK     1       0.155  -0.155   0.000  0.00  0.00    +0.000 C 
ATOM      3  N   UNK     1      -0.100   0.629   0.000  0.00  0.00    +0.000 NA
ATOM      4  C   UNK     1       0.568   1.114   0.000  0.00  0.00    +0.000 C 
ATOM      5  O   UNK     1       0.568   1.939   0.000  0.00  0.00    +0.000 OA
ATOM      6  S   UNK     1       1.235   0.629   0.000  0.00  0.00    +0.000 S 
ENDROOT
BRANCH   2   7
ATOM      7  C   UNK     1      -0.330  -0.823   0.000  0.00  0.00    +0.000 C 
ATOM      8  O   UNK     1       0.006  -1.576   0.000  0.00  0.00    +0.000 OA
ATOM      9  O   UNK     1      -1.150  -0.737   0.000  0.00  0.00    +0.000 OA
ENDBRANCH   2   7
TORSDOF 1
