REMARK  Name = 
REMARK  19 active torsions:
REMARK  status: ('A' for Active; 'I' for Inactive)
REMARK    1  A    between atoms: C_4  and  C_7
REMARK    2  A    between atoms: C_7  and  C_8
REMARK    3  A    between atoms: C_8  and  C_9
REMARK    4  A    between atoms: C_9  and  C_10
REMARK    5  A    between atoms: C_10  and  C_11
REMARK    6  A    between atoms: C_11  and  C_12
REMARK    7  A    between atoms: C_16  and  C_17
REMARK    8  A    between atoms: C_17  and  C_18
REMARK    9  A    between atoms: C_19  and  C_20
REMARK   10  A    between atoms: C_20  and  C_21
REMARK   11  A    between atoms: C_21  and  C_22
REMARK   12  A    between atoms: C_22  and  C_23
REMARK   13  A    between atoms: C_23  and  O_25
REMARK   14  A    between atoms: O_25  and  C_26
REMARK   15  A    between atoms: C_26  and  C_27
REMARK   16  A    between atoms: C_27  and  C_28
REMARK   17  A    between atoms: C_28  and  C_29
REMARK   18  A    between atoms: C_29  and  O_30
REMARK   19  A    between atoms: O_30  and  N_31
REMARK                            x       y       z     vdW  Elec       q    Type
REMARK                         _______ _______ _______ _____ _____    ______ ____
ROOT
ATOM      1  C   UNL     1      -0.343  10.386   0.000  0.00  0.00    +0.000 C 
ATOM      2  C   UNL     1      -0.088  11.171   0.000  0.00  0.00    +0.000 C 
ATOM      3  C   UNL     1       0.737  11.171   0.000  0.00  0.00    +0.000 C 
ATOM      4  C   UNL     1       0.992  10.386   0.000  0.00  0.00    +0.000 C 
ATOM      5  C   UNL     1       0.324   9.902   0.000  0.00  0.00    +0.000 C 
ATOM      6  O   UNL     1       1.776  10.132   0.000  0.00  0.00    +0.000 OA
ATOM      7  O   UNL     1      -0.573  11.839   0.000  0.00  0.00    +0.000 OA
ENDROOT
BRANCH   5   8
ATOM      8  C   UNL     1       0.324   9.077   0.000  0.00  0.00    +0.000 C 
BRANCH   8   9
ATOM      9  C   UNL     1      -0.390   8.664   0.000  0.00  0.00    +0.000 C 
ATOM     10  C   UNL     1      -0.390   7.839   0.000  0.00  0.00    +0.000 C 
BRANCH  10  11
ATOM     11  C   UNL     1       0.324   7.427   0.000  0.00  0.00    +0.000 C 
BRANCH  11  12
ATOM     12  C   UNL     1       1.039   7.839   0.000  0.00  0.00    +0.000 C 
BRANCH  12  13
ATOM     13  C   UNL     1       1.753   7.427   0.000  0.00  0.00    +0.000 C 
BRANCH  13  14
ATOM     14  C   UNL     1       2.467   7.839   0.000  0.00  0.00    +0.000 C 
ATOM     15  O   UNL     1       2.467   8.664   0.000  0.00  0.00    +0.000 OA
BRANCH  14  16
ATOM     16  O   UNL     1       3.182   7.427   0.000  0.00  0.00    +0.000 OA
BRANCH  16  17
ATOM     17  C   UNL     1       3.897   7.839   0.000  0.00  0.00    +0.000 C 
BRANCH  17  18
ATOM     18  C   UNL     1       4.611   7.427   0.000  0.00  0.00    +0.000 C 
BRANCH  18  19
ATOM     19  C   UNL     1       5.325   7.839   0.000  0.00  0.00    +0.000 C 
BRANCH  19  20
ATOM     20  C   UNL     1       6.040   7.427   0.000  0.00  0.00    +0.000 C 
BRANCH  20  21
ATOM     21  O   UNL     1       6.754   7.839   0.000  0.00  0.00    +0.000 OA
BRANCH  21  22
ATOM     22  N   UNL     1       7.469   7.427   0.000  0.00  0.00    +0.000 N 
ATOM     23  O   UNL     1       8.183   7.839   0.000  0.00  0.00    +0.000 OA
ATOM     24  O   UNL     1       7.469   6.602   0.000  0.00  0.00    +0.000 OA
ENDBRANCH  21  22
ENDBRANCH  20  21
ENDBRANCH  19  20
ENDBRANCH  18  19
ENDBRANCH  17  18
ENDBRANCH  16  17
ENDBRANCH  14  16
ENDBRANCH  13  14
ENDBRANCH  12  13
ENDBRANCH  11  12
ENDBRANCH  10  11
ENDBRANCH   8   9
ENDBRANCH   5   8
BRANCH   1  25
ATOM     25  C   UNL     1      -1.128  10.132   0.000  0.00  0.00    +0.000 C 
BRANCH  25  26
ATOM     26  C   UNL     1      -1.741  10.684   0.000  0.00  0.00    +0.000 C 
BRANCH  26  27
ATOM     27  C   UNL     1      -2.526  10.429   0.000  0.00  0.00    +0.000 C 
ATOM     28  O   UNL     1      -2.697   9.622   0.000  0.00  0.00    +0.000 OA
BRANCH  27  29
ATOM     29  C   UNL     1      -3.139  10.981   0.000  0.00  0.00    +0.000 C 
BRANCH  29  30
ATOM     30  C   UNL     1      -3.923  10.726   0.000  0.00  0.00    +0.000 C 
BRANCH  30  34
ATOM     31  C   UNL     1      -5.763  12.382   0.000  0.00  0.00    +0.000 A 
ATOM     32  C   UNL     1      -4.978  12.637   0.000  0.00  0.00    +0.000 A 
ATOM     33  C   UNL     1      -4.365  12.085   0.000  0.00  0.00    +0.000 A 
ATOM     34  C   UNL     1      -4.537  11.278   0.000  0.00  0.00    +0.000 A 
ATOM     35  C   UNL     1      -5.321  11.023   0.000  0.00  0.00    +0.000 A 
ATOM     36  C   UNL     1      -5.934  11.575   0.000  0.00  0.00    +0.000 A 
ENDBRANCH  30  34
ENDBRANCH  29  30
ENDBRANCH  27  29
ENDBRANCH  26  27
ENDBRANCH  25  26
ENDBRANCH   1  25
TORSDOF 19
