REMARK  Name = 
REMARK  8 active torsions:
REMARK  status: ('A' for Active; 'I' for Inactive)
REMARK    1  A    between atoms: P_1  and  O_5
REMARK    2  A    between atoms: O_3  and  C_15
REMARK    3  A    between atoms: O_3  and  C_20
REMARK    4  A    between atoms: O_5  and  C_19
REMARK    5  A    between atoms: N_11  and  C_17
REMARK    6  A    between atoms: N_13  and  C_23
REMARK    7  A    between atoms: C_18  and  C_19
REMARK    8  A    between atoms: C_20  and  C_23
REMARK                            x       y       z     vdW  Elec       q    Type
REMARK                         _______ _______ _______ _____ _____    ______ ____
ROOT
ATOM      1  O   UNL     1       1.410  -0.542   0.000  0.00  0.00    +0.000 OA
ATOM      2  O   UNL     1      -0.154  -1.994   0.000  0.00  0.00    +0.000 OA
ATOM      3  C   UNL     1       0.075  -0.542   0.000  0.00  0.00    +0.000 C 
ATOM      4  C   UNL     1       0.330  -1.327   0.000  0.00  0.00    +0.000 C 
ATOM      5  C   UNL     1       0.743  -0.057   0.000  0.00  0.00    +0.000 C 
ATOM      6  C   UNL     1       1.155  -1.327   0.000  0.00  0.00    +0.000 C 
ENDROOT
BRANCH   5   9
ATOM      7  O   UNL     1       2.172   0.768   0.000  0.00  0.00    +0.000 OA
ATOM      8  O   UNL     1       0.743   3.243   0.000  0.00  0.00    +0.000 OA
ATOM      9  N   UNL     1       0.743   0.768   0.000  0.00  0.00    +0.000 N 
ATOM     10  N   UNL     1       1.457   2.005   0.000  0.00  0.00    +0.000 NA
ATOM     11  C   UNL     1       0.028   1.180   0.000  0.00  0.00    +0.000 A 
ATOM     12  C   UNL     1       1.457   1.180   0.000  0.00  0.00    +0.000 A 
ATOM     13  C   UNL     1       0.028   2.005   0.000  0.00  0.00    +0.000 A 
ATOM     14  C   UNL     1       0.743   2.418   0.000  0.00  0.00    +0.000 A 
ATOM     15  C   UNL     1      -0.686   2.418   0.000  0.00  0.00    +0.000 C 
ENDBRANCH   5   9
BRANCH   3  16
ATOM     16  O   UNL     1      -0.709  -0.287   0.000  0.00  0.00    +0.000 OA
BRANCH  16  17
ATOM     17  C   UNL     1      -1.322  -0.839   0.000  0.00  0.00    +0.000 C 
BRANCH  17  18
ATOM     18  C   UNL     1      -2.107  -0.584   0.000  0.00  0.00    +0.000 C 
BRANCH  18  19
ATOM     19  N   UNL     1      -2.720  -1.136   0.000  0.00  0.00    +0.000 N 
ATOM     20  N   UNL     1      -3.939  -1.679   0.000  0.00  0.00    +0.000 NA
ATOM     21  C   UNL     1      -2.633  -1.956   0.000  0.00  0.00    +0.000 A 
ATOM     22  C   UNL     1      -3.527  -0.965   0.000  0.00  0.00    +0.000 A 
ATOM     23  C   UNL     1      -3.387  -2.292   0.000  0.00  0.00    +0.000 A 
ENDBRANCH  18  19
ENDBRANCH  17  18
ENDBRANCH  16  17
ENDBRANCH   3  16
BRANCH   6  24
ATOM     24  C   UNL     1       1.640  -1.994   0.000  0.00  0.00    +0.000 C 
BRANCH  24  25
ATOM     25  O   UNL     1       2.461  -1.908   0.000  0.00  0.00    +0.000 OA
BRANCH  25  26
ATOM     26  P   UNL     1       2.946  -2.575   0.000  0.00  0.00    +0.000 P 
ATOM     27  O   UNL     1       3.430  -3.243   0.000  0.00  0.00    +0.000 OA
ATOM     28  O   UNL     1       3.613  -2.090   0.000  0.00  0.00    +0.000 OA
ATOM     29  O   UNL     1       2.278  -3.060   0.000  0.00  0.00    +0.000 OA
ENDBRANCH  25  26
ENDBRANCH  24  25
ENDBRANCH   6  24
TORSDOF 8
