REMARK  Name = 
REMARK  8 active torsions:
REMARK  status: ('A' for Active; 'I' for Inactive)
REMARK    1  A    between atoms: C_2  and  C_5
REMARK    2  A    between atoms: C_5  and  C_6
REMARK    3  A    between atoms: C_5  and  N_17
REMARK    4  A    between atoms: C_6  and  C_7
REMARK    5  A    between atoms: N_22  and  C_30
REMARK    6  A    between atoms: C_23  and  C_24
REMARK    7  A    between atoms: C_24  and  C_25
REMARK    8  A    between atoms: C_30  and  C_31
REMARK                            x       y       z     vdW  Elec       q    Type
REMARK                         _______ _______ _______ _____ _____    ______ ____
ROOT
ATOM      1  N   UNL     1      -0.615  -0.340   0.000  0.00  0.00    +0.000 N 
ATOM      2  C   UNL     1      -0.202  -1.055   0.000  0.00  0.00    +0.000 C 
ATOM      3  C   UNL     1       0.614  -1.178   0.000  0.00  0.00    +0.000 C 
ATOM      4  C   UNL     1       1.218  -0.617   0.000  0.00  0.00    +0.000 C 
ATOM      5  O   UNL     1       1.986  -0.918   0.000  0.00  0.00    +0.000 OA
ATOM      6  N   UNL     1       1.157   0.206   0.000  0.00  0.00    +0.000 N 
ATOM      7  C   UNL     1       0.475   0.671   0.000  0.00  0.00    +0.000 C 
ATOM      8  C   UNL     1      -0.313   0.428   0.000  0.00  0.00    +0.000 C 
ATOM      9  O   UNL     1      -0.874   1.032   0.000  0.00  0.00    +0.000 OA
ENDROOT
BRANCH   1  10
ATOM     10  C   UNL     1      -1.437  -0.402   0.000  0.00  0.00    +0.000 C 
BRANCH  10  12
ATOM     11  O   UNL     1      -1.544   1.023   0.000  0.00  0.00    +0.000 OA
ATOM     12  C   UNL     1      -1.902   0.280   0.000  0.00  0.00    +0.000 C 
ATOM     13  N   UNL     1      -2.725   0.218   0.000  0.00  0.00    +0.000 NA
ATOM     14  C   UNL     1      -3.189   0.900   0.000  0.00  0.00    +0.000 C 
ENDBRANCH  10  12
BRANCH  10  15
ATOM     15  C   UNL     1      -1.795  -1.145   0.000  0.00  0.00    +0.000 C 
BRANCH  15  16
ATOM     16  C   UNL     1      -2.618  -1.207   0.000  0.00  0.00    +0.000 A 
ATOM     17  C   UNL     1      -2.976  -1.950   0.000  0.00  0.00    +0.000 A 
ATOM     18  C   UNL     1      -3.799  -2.012   0.000  0.00  0.00    +0.000 A 
ATOM     19  C   UNL     1      -4.156  -2.755   0.000  0.00  0.00    +0.000 A 
ATOM     20  C   UNL     1      -4.979  -2.817   0.000  0.00  0.00    +0.000 A 
ATOM     21  C   UNL     1      -5.444  -2.135   0.000  0.00  0.00    +0.000 A 
ATOM     22  C   UNL     1      -5.086  -1.392   0.000  0.00  0.00    +0.000 A 
ATOM     23  C   UNL     1      -4.263  -1.330   0.000  0.00  0.00    +0.000 A 
ATOM     24  C   UNL     1      -3.905  -0.587   0.000  0.00  0.00    +0.000 A 
ATOM     25  C   UNL     1      -3.083  -0.525   0.000  0.00  0.00    +0.000 A 
ENDBRANCH  15  16
ENDBRANCH  10  15
ENDBRANCH   1  10
BRANCH   7  26
ATOM     26  C   UNL     1       0.598   1.487   0.000  0.00  0.00    +0.000 C 
BRANCH  26  27
ATOM     27  C   UNL     1      -0.047   2.001   0.000  0.00  0.00    +0.000 C 
ATOM     28  C   UNL     1      -0.815   1.700   0.000  0.00  0.00    +0.000 C 
ATOM     29  C   UNL     1       0.076   2.817   0.000  0.00  0.00    +0.000 C 
ENDBRANCH  26  27
ENDBRANCH   7  26
BRANCH   6  30
ATOM     30  C   UNL     1       1.871   0.619   0.000  0.00  0.00    +0.000 C 
BRANCH  30  31
ATOM     31  C   UNL     1       2.586   0.206   0.000  0.00  0.00    +0.000 A 
ATOM     32  C   UNL     1       3.300   0.619   0.000  0.00  0.00    +0.000 A 
ATOM     33  C   UNL     1       4.015   0.206   0.000  0.00  0.00    +0.000 A 
ATOM     34  C   UNL     1       4.729   0.619   0.000  0.00  0.00    +0.000 A 
ATOM     35  C   UNL     1       5.444   0.206   0.000  0.00  0.00    +0.000 A 
ATOM     36  C   UNL     1       5.444  -0.619   0.000  0.00  0.00    +0.000 A 
ATOM     37  C   UNL     1       4.729  -1.031   0.000  0.00  0.00    +0.000 A 
ATOM     38  C   UNL     1       4.015  -0.619   0.000  0.00  0.00    +0.000 A 
ATOM     39  N   UNL     1       3.300  -1.031   0.000  0.00  0.00    +0.000 NA
ATOM     40  C   UNL     1       2.586  -0.619   0.000  0.00  0.00    +0.000 A 
ENDBRANCH  30  31
ENDBRANCH   6  30
TORSDOF 8
