REMARK  Name = 
REMARK  4 active torsions:
REMARK  status: ('A' for Active; 'I' for Inactive)
REMARK    1  A    between atoms: C_2  and  N_3
REMARK    2  A    between atoms: N_3  and  C_22
REMARK    3  A    between atoms: C_7  and  C_8
REMARK    4  A    between atoms: C_7  and  C_14
REMARK                            x       y       z     vdW  Elec       q    Type
REMARK                         _______ _______ _______ _____ _____    ______ ____
ROOT
ATOM      1  N   UNL     1      -0.608  -1.299   0.000  0.00  0.00    +0.000 N 
ATOM      2  C   UNL     1       0.060  -1.784   0.000  0.00  0.00    +0.000 C 
ATOM      3  C   UNL     1      -0.195  -2.569   0.000  0.00  0.00    +0.000 C 
ATOM      4  C   UNL     1      -1.020  -2.569   0.000  0.00  0.00    +0.000 C 
ATOM      5  C   UNL     1      -1.505  -3.236   0.000  0.00  0.00    +0.000 C 
ATOM      6  C   UNL     1      -1.275  -1.784   0.000  0.00  0.00    +0.000 C 
ATOM      7  C   UNL     1      -2.060  -1.529   0.000  0.00  0.00    +0.000 C 
ENDROOT
BRANCH   5   8
ATOM      8  C   UNL     1      -2.326  -3.150   0.000  0.00  0.00    +0.000 A 
ATOM      9  C   UNL     1      -2.811  -3.817   0.000  0.00  0.00    +0.000 A 
ATOM     10  C   UNL     1      -3.631  -3.731   0.000  0.00  0.00    +0.000 A 
ATOM     11  C   UNL     1      -3.967  -2.977   0.000  0.00  0.00    +0.000 A 
ATOM     12  C   UNL     1      -3.482  -2.310   0.000  0.00  0.00    +0.000 A 
ATOM     13  C   UNL     1      -2.661  -2.396   0.000  0.00  0.00    +0.000 A 
ENDBRANCH   5   8
BRANCH   5  14
ATOM     14  C   UNL     1      -1.170  -3.990   0.000  0.00  0.00    +0.000 A 
ATOM     15  C   UNL     1      -0.349  -4.076   0.000  0.00  0.00    +0.000 A 
ATOM     16  C   UNL     1      -0.014  -4.830   0.000  0.00  0.00    +0.000 A 
ATOM     17  C   UNL     1      -0.498  -5.497   0.000  0.00  0.00    +0.000 A 
ATOM     18  C   UNL     1      -1.319  -5.411   0.000  0.00  0.00    +0.000 A 
ATOM     19  C   UNL     1      -1.655  -4.657   0.000  0.00  0.00    +0.000 A 
ENDBRANCH   5  14
BRANCH   1  21
ATOM     20  C   UNL     1      -1.967  -0.858   0.000  0.00  0.00    +0.000 C 
ATOM     21  C   UNL     1      -1.160  -0.686   0.000  0.00  0.00    +0.000 C 
ENDBRANCH   1  21
BRANCH   1  22
ATOM     22  C   UNL     1      -0.056  -0.686   0.000  0.00  0.00    +0.000 C 
ATOM     23  C   UNL     1       0.751  -0.858   0.000  0.00  0.00    +0.000 C 
ENDBRANCH   1  22
TORSDOF 4
