REMARK  Name = 
REMARK  5 active torsions:
REMARK  status: ('A' for Active; 'I' for Inactive)
REMARK    1  A    between atoms: C_3  and  S_9
REMARK    2  A    between atoms: C_6  and  C_7
REMARK    3  A    between atoms: C_15  and  S_20
REMARK    4  A    between atoms: S_20  and  N_23
REMARK    5  A    between atoms: N_23  and  C_24
REMARK                            x       y       z     vdW  Elec       q    Type
REMARK                         _______ _______ _______ _____ _____    ______ ____
ROOT
ATOM      1  C   UNL     1       0.774   0.722   0.000  0.00  0.00    +0.000 A 
ATOM      2  C   UNL     1       0.774  -0.103   0.000  0.00  0.00    +0.000 A 
ATOM      3  C   UNL     1       0.059  -0.516   0.000  0.00  0.00    +0.000 A 
ATOM      4  C   UNL     1      -0.655  -0.103   0.000  0.00  0.00    +0.000 A 
ATOM      5  C   UNL     1      -0.655   0.722   0.000  0.00  0.00    +0.000 A 
ATOM      6  C   UNL     1       0.059   1.134   0.000  0.00  0.00    +0.000 A 
ENDROOT
BRANCH   3   7
ATOM      7  S   UNL     1       0.059  -1.341   0.000  0.00  0.00    +0.000 S 
ATOM      8  O   UNL     1       0.059  -2.166   0.000  0.00  0.00    +0.000 OA
ATOM      9  O   UNL     1      -0.765  -1.341   0.000  0.00  0.00    +0.000 OA
ATOM     10  N   UNL     1       0.884  -1.341   0.000  0.00  0.00    +0.000 NA
ENDBRANCH   3   7
BRANCH   6  11
ATOM     11  C   UNL     1       0.059   1.959   0.000  0.00  0.00    +0.000 C 
ATOM     12  N   UNL     1      -0.655   2.372   0.000  0.00  0.00    +0.000 NA
ENDBRANCH   6  11
TORSDOF 2
REMARK  Name = 
REMARK  5 active torsions:
REMARK  status: ('A' for Active; 'I' for Inactive)
REMARK    1  A    between atoms: C_3  and  S_9
REMARK    2  A    between atoms: C_6  and  C_7
REMARK    3  A    between atoms: C_15  and  S_20
REMARK    4  A    between atoms: S_20  and  N_23
REMARK    5  A    between atoms: N_23  and  C_24
REMARK                            x       y       z     vdW  Elec       q    Type
REMARK                         _______ _______ _______ _____ _____    ______ ____
ROOT
ATOM      1  C   UNL     1       5.385   1.473   0.000  0.00  0.00    +0.000 A 
ATOM      2  C   UNL     1       5.385   0.648   0.000  0.00  0.00    +0.000 A 
ATOM      3  C   UNL     1       4.671   0.236   0.000  0.00  0.00    +0.000 A 
ATOM      4  C   UNL     1       3.956   0.648   0.000  0.00  0.00    +0.000 A 
ATOM      5  C   UNL     1       3.956   1.473   0.000  0.00  0.00    +0.000 A 
ATOM      6  C   UNL     1       4.671   1.886   0.000  0.00  0.00    +0.000 A 
ATOM      7  N   UNL     1       4.671   2.711   0.000  0.00  0.00    +0.000 NA
ENDROOT
BRANCH   3   8
ATOM      8  S   UNL     1       4.671  -0.589   0.000  0.00  0.00    +0.000 S 
ATOM      9  O   UNL     1       3.846  -0.589   0.000  0.00  0.00    +0.000 OA
ATOM     10  O   UNL     1       5.496  -0.589   0.000  0.00  0.00    +0.000 OA
BRANCH   8  11
ATOM     11  N   UNL     1       4.671  -1.414   0.000  0.00  0.00    +0.000 NA
BRANCH  11  12
ATOM     12  C   UNL     1       3.956  -1.827   0.000  0.00  0.00    +0.000 C 
ATOM     13  S   UNL     1       3.956  -2.652   0.000  0.00  0.00    +0.000 S 
ATOM     14  N   UNL     1       3.242  -1.414   0.000  0.00  0.00    +0.000 NA
ENDBRANCH  11  12
ENDBRANCH   8  11
ENDBRANCH   3   8
TORSDOF 3
