REMARK  Name = 
REMARK  2 active torsions:
REMARK  status: ('A' for Active; 'I' for Inactive)
REMARK    1  A    between atoms: O_2  and  C_3
REMARK    2  A    between atoms: C_6  and  C_9
REMARK                            x       y       z     vdW  Elec       q    Type
REMARK                         _______ _______ _______ _____ _____    ______ ____
ROOT
ATOM      1  C   UNL     1      -0.715  -0.412   0.000  0.00  0.00    +0.000 A 
ATOM      2  C   UNL     1      -0.715  -1.238   0.000  0.00  0.00    +0.000 A 
ATOM      3  O   UNL     1       0.000  -1.650   0.000  0.00  0.00    +0.000 OA
ATOM      4  C   UNL     1       0.715  -1.238   0.000  0.00  0.00    +0.000 A 
ATOM      5  C   UNL     1       0.715  -0.412   0.000  0.00  0.00    +0.000 A 
ATOM      6  C   UNL     1       0.000   0.000   0.000  0.00  0.00    +0.000 A 
ATOM      7  O   UNL     1       0.000   0.825   0.000  0.00  0.00    +0.000 OA
ATOM      8  C   UNL     1       1.429   0.000   0.000  0.00  0.00    +0.000 A 
ATOM      9  O   UNL     1       1.429   0.825   0.000  0.00  0.00    +0.000 OA
ATOM     10  C   UNL     1       2.143  -0.412   0.000  0.00  0.00    +0.000 A 
ATOM     11  C   UNL     1       2.143  -1.238   0.000  0.00  0.00    +0.000 A 
ATOM     12  O   UNL     1       2.858  -1.650   0.000  0.00  0.00    +0.000 OA
ATOM     13  C   UNL     1       1.429  -1.650   0.000  0.00  0.00    +0.000 A 
ENDROOT
BRANCH   1  17
ATOM     14  C   UNL     1      -2.858   0.825   0.000  0.00  0.00    +0.000 A 
ATOM     15  C   UNL     1      -2.143   1.238   0.000  0.00  0.00    +0.000 A 
ATOM     16  C   UNL     1      -1.429   0.825   0.000  0.00  0.00    +0.000 A 
ATOM     17  C   UNL     1      -1.429   0.000   0.000  0.00  0.00    +0.000 A 
ATOM     18  C   UNL     1      -2.143  -0.412   0.000  0.00  0.00    +0.000 A 
ATOM     19  C   UNL     1      -2.858   0.000   0.000  0.00  0.00    +0.000 A 
BRANCH  14  21
ATOM     20  C   UNL     1      -4.287   0.825   0.000  0.00  0.00    +0.000 C 
ATOM     21  O   UNL     1      -3.572   1.238   0.000  0.00  0.00    +0.000 OA
ENDBRANCH  14  21
ENDBRANCH   1  17
TORSDOF 2
