REMARK  Name = 
REMARK  0 active torsions:
REMARK  status: ('A' for Active; 'I' for Inactive)
REMARK                            x       y       z     vdW  Elec       q    Type
REMARK                         _______ _______ _______ _____ _____    ______ ____
ROOT
ATOM      1  O   UNL     1      -0.002   0.209   0.000  0.00  0.00    +0.000 OA
ATOM      2 AG   UNL     1      -0.712  -0.209   0.000  0.00  0.00    +0.000 Ag
ATOM      3 AG   UNL     1       0.712  -0.209   0.000  0.00  0.00    +0.000 Ag
ENDROOT
TORSDOF 0
