REMARK  Name = 
REMARK  6 active torsions:
REMARK  status: ('A' for Active; 'I' for Inactive)
REMARK    1  A    between atoms: O_2  and  C_3
REMARK    2  A    between atoms: C_5  and  O_6
REMARK    3  A    between atoms: C_8  and  C_11
REMARK    4  A    between atoms: C_15  and  C_28
REMARK    5  A    between atoms: N_16  and  C_19
REMARK    6  A    between atoms: N_35  and  C_36
REMARK                            x       y       z     vdW  Elec       q    Type
REMARK                         _______ _______ _______ _____ _____    ______ ____
ROOT
ATOM      1  C   UNL     1      -0.485  -0.667   0.000  0.00  0.00    +0.000 A 
ATOM      2  N   UNL     1       0.000  -1.335   0.000  0.00  0.00    +0.000 NA
ATOM      3  C   UNL     1       0.785  -1.080   0.000  0.00  0.00    +0.000 A 
ATOM      4  C   UNL     1       0.785  -0.255   0.000  0.00  0.00    +0.000 A 
ATOM      5  C   UNL     1       1.569   0.000   0.000  0.00  0.00    +0.000 C 
ATOM      6  N   UNL     1       2.054  -0.667   0.000  0.00  0.00    +0.000 N 
ATOM      7  C   UNL     1       1.569  -1.335   0.000  0.00  0.00    +0.000 C 
ATOM      8  O   UNL     1       1.824  -2.119   0.000  0.00  0.00    +0.000 OA
ATOM      9  N   UNL     1       0.000   0.000   0.000  0.00  0.00    +0.000 N 
ENDROOT
BRANCH   6  10
ATOM     10  C   UNL     1       2.879  -0.667   0.000  0.00  0.00    +0.000 A 
ATOM     11  C   UNL     1       3.292   0.047   0.000  0.00  0.00    +0.000 A 
ATOM     12  C   UNL     1       4.117   0.047   0.000  0.00  0.00    +0.000 A 
ATOM     13 CL   UNL     1       4.529   0.761   0.000  0.00  0.00    +0.000 Cl
ATOM     14  C   UNL     1       4.529  -0.667   0.000  0.00  0.00    +0.000 A 
ATOM     15  N   UNL     1       4.117  -1.382   0.000  0.00  0.00    +0.000 N 
ATOM     16  C   UNL     1       4.529  -2.096   0.000  0.00  0.00    +0.000 C 
ATOM     17  C   UNL     1       3.292  -1.382   0.000  0.00  0.00    +0.000 A 
ATOM     18  O   UNL     1       2.879  -2.096   0.000  0.00  0.00    +0.000 OA
ENDBRANCH   6  10
BRANCH   5  19
ATOM     19  C   UNL     1       1.824   0.785   0.000  0.00  0.00    +0.000 A 
ATOM     20  C   UNL     1       1.272   1.398   0.000  0.00  0.00    +0.000 A 
ATOM     21  C   UNL     1       1.527   2.182   0.000  0.00  0.00    +0.000 A 
ATOM     22  C   UNL     1       2.334   2.354   0.000  0.00  0.00    +0.000 A 
ATOM     23 CL   UNL     1       2.589   3.139   0.000  0.00  0.00    +0.000 Cl
ATOM     24  C   UNL     1       2.886   1.741   0.000  0.00  0.00    +0.000 A 
ATOM     25  C   UNL     1       2.631   0.956   0.000  0.00  0.00    +0.000 A 
ENDBRANCH   5  19
BRANCH   1  29
ATOM     26  C   UNL     1      -2.960  -0.667   0.000  0.00  0.00    +0.000 A 
ATOM     27  N   UNL     1      -2.547  -1.382   0.000  0.00  0.00    +0.000 NA
ATOM     28  C   UNL     1      -1.722  -1.382   0.000  0.00  0.00    +0.000 A 
ATOM     29  C   UNL     1      -1.310  -0.667   0.000  0.00  0.00    +0.000 A 
ATOM     30  C   UNL     1      -1.722   0.047   0.000  0.00  0.00    +0.000 A 
ATOM     31  N   UNL     1      -2.547   0.047   0.000  0.00  0.00    +0.000 NA
BRANCH  28  32
ATOM     32  O   UNL     1      -1.310  -2.096   0.000  0.00  0.00    +0.000 OA
ATOM     33  C   UNL     1      -1.722  -2.811   0.000  0.00  0.00    +0.000 C 
ENDBRANCH  28  32
BRANCH  26  35
ATOM     34  C   UNL     1      -4.197  -1.382   0.000  0.00  0.00    +0.000 C 
ATOM     35  O   UNL     1      -3.785  -0.667   0.000  0.00  0.00    +0.000 OA
ENDBRANCH  26  35
ENDBRANCH   1  29
BRANCH   9  36
ATOM     36  C   UNL     1      -0.255   0.785   0.000  0.00  0.00    +0.000 C 
ATOM     37  C   UNL     1      -1.062   0.956   0.000  0.00  0.00    +0.000 C 
ATOM     38  C   UNL     1       0.297   1.398   0.000  0.00  0.00    +0.000 C 
ENDBRANCH   9  36
TORSDOF 6
