REMARK  Name = 
REMARK  7 active torsions:
REMARK  status: ('A' for Active; 'I' for Inactive)
REMARK    1  A    between atoms: O_2  and  C_3
REMARK    2  A    between atoms: C_6  and  C_14
REMARK    3  A    between atoms: C_8  and  N_9
REMARK    4  A    between atoms: N_9  and  S_10
REMARK    5  A    between atoms: C_20  and  C_21
REMARK    6  A    between atoms: C_21  and  N_22
REMARK    7  A    between atoms: C_25  and  C_28
REMARK                            x       y       z     vdW  Elec       q    Type
REMARK                         _______ _______ _______ _____ _____    ______ ____
ROOT
ATOM      1  C   UNL     1       1.429   0.000   0.000  0.00  0.00    +0.000 A 
ATOM      2  C   UNL     1       2.143  -0.412   0.000  0.00  0.00    +0.000 A 
ATOM      3  C   UNL     1       2.858   0.000   0.000  0.00  0.00    +0.000 A 
ATOM      4  C   UNL     1       3.572  -0.412   0.000  0.00  0.00    +0.000 A 
ATOM      5  F   UNL     1       4.287   0.000   0.000  0.00  0.00    +0.000 F 
ATOM      6  C   UNL     1       3.572  -1.238   0.000  0.00  0.00    +0.000 A 
ATOM      7  C   UNL     1       2.858  -1.650   0.000  0.00  0.00    +0.000 A 
ATOM      8  C   UNL     1       2.143  -1.238   0.000  0.00  0.00    +0.000 A 
ATOM      9  N   UNL     1       1.429  -1.650   0.000  0.00  0.00    +0.000 NA
ATOM     10  C   UNL     1       0.715  -1.238   0.000  0.00  0.00    +0.000 A 
ATOM     11  N   UNL     1       0.715  -0.412   0.000  0.00  0.00    +0.000 NA
ATOM     12  N   UNL     1       0.000  -1.650   0.000  0.00  0.00    +0.000 N 
ATOM     13  C   UNL     1       0.000  -2.475   0.000  0.00  0.00    +0.000 C 
ATOM     14  C   UNL     1      -0.715  -2.888   0.000  0.00  0.00    +0.000 C 
ATOM     15  O   UNL     1      -1.429  -2.475   0.000  0.00  0.00    +0.000 OA
ATOM     16  C   UNL     1      -1.429  -1.650   0.000  0.00  0.00    +0.000 C 
ATOM     17  C   UNL     1      -0.715  -1.238   0.000  0.00  0.00    +0.000 C 
ENDROOT
BRANCH   1  21
ATOM     18  C   UNL     1       1.429   2.475   0.000  0.00  0.00    +0.000 A 
ATOM     19  N   UNL     1       2.143   2.062   0.000  0.00  0.00    +0.000 NA
ATOM     20  C   UNL     1       2.143   1.238   0.000  0.00  0.00    +0.000 A 
ATOM     21  C   UNL     1       1.429   0.825   0.000  0.00  0.00    +0.000 A 
ATOM     22  C   UNL     1       0.715   1.238   0.000  0.00  0.00    +0.000 A 
ATOM     23  C   UNL     1       0.715   2.062   0.000  0.00  0.00    +0.000 A 
BRANCH  18  25
ATOM     24  C   UNL     1       2.143   3.712   0.000  0.00  0.00    +0.000 C 
ATOM     25  O   UNL     1       1.429   3.300   0.000  0.00  0.00    +0.000 OA
ENDBRANCH  18  25
BRANCH  23  26
ATOM     26  N   UNL     1       0.000   2.475   0.000  0.00  0.00    +0.000 NA
BRANCH  26  27
ATOM     27  S   UNL     1       0.000   3.300   0.000  0.00  0.00    +0.000 S 
ATOM     28  C   UNL     1       0.825   3.300   0.000  0.00  0.00    +0.000 C 
ATOM     29  O   UNL     1      -0.825   3.300   0.000  0.00  0.00    +0.000 OA
ATOM     30  O   UNL     1       0.000   4.125   0.000  0.00  0.00    +0.000 OA
ENDBRANCH  26  27
ENDBRANCH  23  26
ENDBRANCH   1  21
BRANCH   7  31
ATOM     31  C   UNL     1       2.858  -2.475   0.000  0.00  0.00    +0.000 C 
BRANCH  31  32
ATOM     32  N   UNL     1       2.143  -2.888   0.000  0.00  0.00    +0.000 NA
ATOM     33  C   UNL     1       2.143  -3.712   0.000  0.00  0.00    +0.000 C 
ATOM     34  C   UNL     1       1.429  -4.125   0.000  0.00  0.00    +0.000 C 
ATOM     35  C   UNL     1       0.715  -3.712   0.000  0.00  0.00    +0.000 C 
ATOM     36  C   UNL     1       0.715  -2.888   0.000  0.00  0.00    +0.000 C 
ATOM     37  C   UNL     1       1.429  -2.475   0.000  0.00  0.00    +0.000 C 
BRANCH  35  38
ATOM     38  C   UNL     1       0.000  -4.125   0.000  0.00  0.00    +0.000 C 
ATOM     39  C   UNL     1      -0.412  -3.410   0.000  0.00  0.00    +0.000 C 
ATOM     40  C   UNL     1       0.412  -4.840   0.000  0.00  0.00    +0.000 C 
ATOM     41  O   UNL     1      -0.715  -4.537   0.000  0.00  0.00    +0.000 OA
ENDBRANCH  35  38
ENDBRANCH  31  32
ENDBRANCH   7  31
TORSDOF 7
