REMARK  Name = 
REMARK  7 active torsions:
REMARK  status: ('A' for Active; 'I' for Inactive)
REMARK    1  A    between atoms: O_2  and  C_3
REMARK    2  A    between atoms: C_3  and  C_5
REMARK    3  A    between atoms: C_5  and  O_8
REMARK    4  A    between atoms: O_8  and  C_9
REMARK    5  A    between atoms: C_9  and  C_11
REMARK    6  A    between atoms: N_15  and  C_16
REMARK    7  A    between atoms: C_16  and  C_18
REMARK                            x       y       z     vdW  Elec       q    Type
REMARK                         _______ _______ _______ _____ _____    ______ ____
ROOT
ATOM      1  C   UNL     1       3.479  -3.061   0.000  0.00  0.00    +0.000 A 
ATOM      2  C   UNL     1       3.422  -2.237   0.000  0.00  0.00    +0.000 A 
ATOM      3  N   UNL     1       4.187  -1.928   0.000  0.00  0.00    +0.000 NA
ATOM      4  C   UNL     1       4.717  -2.560   0.000  0.00  0.00    +0.000 A 
ATOM      5  N   UNL     1       4.280  -3.260   0.000  0.00  0.00    +0.000 N 
ENDROOT
BRANCH   5   6
ATOM      6  C   UNL     1       4.589  -4.025   0.000  0.00  0.00    +0.000 C 
ATOM      7  C   UNL     1       4.081  -4.675   0.000  0.00  0.00    +0.000 C 
BRANCH   6   8
ATOM      8  C   UNL     1       5.406  -4.140   0.000  0.00  0.00    +0.000 A 
ATOM      9  C   UNL     1       5.914  -3.490   0.000  0.00  0.00    +0.000 A 
ATOM     10  C   UNL     1       6.731  -3.604   0.000  0.00  0.00    +0.000 A 
ATOM     11  C   UNL     1       7.040  -4.369   0.000  0.00  0.00    +0.000 A 
ATOM     12  C   UNL     1       6.532  -5.020   0.000  0.00  0.00    +0.000 A 
ATOM     13  C   UNL     1       5.715  -4.905   0.000  0.00  0.00    +0.000 A 
ENDBRANCH   6   8
ENDBRANCH   5   6
BRANCH   1  14
ATOM     14  C   UNL     1       2.847  -3.591   0.000  0.00  0.00    +0.000 C 
ATOM     15  O   UNL     1       2.991  -4.403   0.000  0.00  0.00    +0.000 OA
BRANCH  14  16
ATOM     16  O   UNL     1       2.072  -3.309   0.000  0.00  0.00    +0.000 OA
BRANCH  16  17
ATOM     17  C   UNL     1       1.440  -3.839   0.000  0.00  0.00    +0.000 C 
ATOM     18  C   UNL     1       1.853  -4.553   0.000  0.00  0.00    +0.000 C 
ATOM     19  C   UNL     1       1.028  -4.553   0.000  0.00  0.00    +0.000 C 
BRANCH  17  20
ATOM     20  C   UNL     1       0.808  -3.309   0.000  0.00  0.00    +0.000 C 
ATOM     21  O   UNL     1       0.033  -3.591   0.000  0.00  0.00    +0.000 OA
BRANCH  20  23
ATOM     22  C   UNL     1       0.319  -1.966   0.000  0.00  0.00    +0.000 C 
ATOM     23  O   UNL     1       0.951  -2.496   0.000  0.00  0.00    +0.000 OA
ENDBRANCH  20  23
ENDBRANCH  17  20
ENDBRANCH  16  17
ENDBRANCH  14  16
ENDBRANCH   1  14
TORSDOF 7
