REMARK  Name = 
REMARK  3 active torsions:
REMARK  status: ('A' for Active; 'I' for Inactive)
REMARK    1  A    between atoms: C_13  and  C_18
REMARK    2  A    between atoms: C_14  and  C_18
REMARK    3  A    between atoms: C_17  and  C_18
REMARK                            x       y       z     vdW  Elec       q    Type
REMARK                         _______ _______ _______ _____ _____    ______ ____
ROOT
ATOM      1  C   UNL     1      -2.143   2.062   0.000  0.00  0.00    +0.000 C 
ENDROOT
BRANCH   1   6
ATOM      2  C   UNL     1      -2.858   3.300   0.000  0.00  0.00    +0.000 A 
ATOM      3  C   UNL     1      -3.572   2.062   0.000  0.00  0.00    +0.000 A 
ATOM      4  C   UNL     1      -3.572   3.712   0.000  0.00  0.00    +0.000 A 
ATOM      5  C   UNL     1      -4.287   2.475   0.000  0.00  0.00    +0.000 A 
ATOM      6  C   UNL     1      -2.858   2.475   0.000  0.00  0.00    +0.000 A 
ATOM      7  C   UNL     1      -4.287   3.300   0.000  0.00  0.00    +0.000 A 
ATOM      8  O   UNL     1      -5.001   3.712   0.000  0.00  0.00    +0.000 OA
ENDBRANCH   1   6
BRANCH   1  13
ATOM      9  C   UNL     1      -0.714   2.062   0.000  0.00  0.00    +0.000 A 
ATOM     10  C   UNL     1      -1.429   3.300   0.000  0.00  0.00    +0.000 A 
ATOM     11  C   UNL     1       0.000   2.475   0.000  0.00  0.00    +0.000 A 
ATOM     12  C   UNL     1      -0.714   3.712   0.000  0.00  0.00    +0.000 A 
ATOM     13  C   UNL     1      -1.429   2.475   0.000  0.00  0.00    +0.000 A 
ATOM     14  C   UNL     1       0.000   3.300   0.000  0.00  0.00    +0.000 A 
ATOM     15  O   UNL     1       0.714   3.712   0.000  0.00  0.00    +0.000 OA
ENDBRANCH   1  13
BRANCH   1  20
ATOM     16  C   UNL     1      -2.858   0.000   0.000  0.00  0.00    +0.000 A 
ATOM     17  C   UNL     1      -2.143  -0.412   0.000  0.00  0.00    +0.000 A 
ATOM     18  C   UNL     1      -2.858   0.825   0.000  0.00  0.00    +0.000 A 
ATOM     19  C   UNL     1      -1.429   0.000   0.000  0.00  0.00    +0.000 A 
ATOM     20  C   UNL     1      -2.143   1.237   0.000  0.00  0.00    +0.000 A 
ATOM     21  N   UNL     1      -1.429   0.825   0.000  0.00  0.00    +0.000 NA
ENDBRANCH   1  20
TORSDOF 3
