REMARK  Name = 
REMARK  4 active torsions:
REMARK  status: ('A' for Active; 'I' for Inactive)
REMARK    1  A    between atoms: N_6  and  C_13
REMARK    2  A    between atoms: N_7  and  C_10
REMARK    3  A    between atoms: C_8  and  C_11
REMARK    4  A    between atoms: C_11  and  C_12
REMARK                            x       y       z     vdW  Elec       q    Type
REMARK                         _______ _______ _______ _____ _____    ______ ____
ROOT
ATOM      1  S   UNL     1      -0.055   0.057   0.000  0.00  0.00    +0.000 S 
ATOM      2  N   UNL     1       0.612  -1.099   0.000  0.00  0.00    +0.000 N 
ATOM      3  N   UNL     1      -0.856  -1.176   0.000  0.00  0.00    +0.000 N 
ATOM      4  C   UNL     1       0.751   0.228   0.000  0.00  0.00    +0.000 A 
ATOM      5  C   UNL     1      -0.142  -0.764   0.000  0.00  0.00    +0.000 A 
ATOM      6  C   UNL     1       1.164  -0.486   0.000  0.00  0.00    +0.000 A 
ATOM      7  H   UNL     1       0.718  -1.600   0.000  0.00  0.00    +0.000 HD
ATOM      8  H   UNL     1      -1.299  -0.921   0.000  0.00  0.00    +0.000 HD
ENDROOT
BRANCH   3  10
ATOM      9 CL   UNL     1      -2.285  -3.651   0.000  0.00  0.00    +0.000 Cl
ATOM     10  C   UNL     1      -0.856  -2.001   0.000  0.00  0.00    +0.000 A 
ATOM     11  C   UNL     1      -1.571  -2.414   0.000  0.00  0.00    +0.000 A 
ATOM     12  C   UNL     1      -0.142  -2.414   0.000  0.00  0.00    +0.000 A 
ATOM     13  C   UNL     1      -1.571  -3.239   0.000  0.00  0.00    +0.000 A 
ATOM     14  C   UNL     1      -0.142  -3.239   0.000  0.00  0.00    +0.000 A 
ATOM     15  C   UNL     1      -0.856  -3.651   0.000  0.00  0.00    +0.000 A 
ENDBRANCH   3  10
BRANCH   6  16
ATOM     16  N   UNL     1       1.984  -0.573   0.000  0.00  0.00    +0.000 N 
ATOM     17  H   UNL     1       2.193  -1.040   0.000  0.00  0.00    +0.000 HD
ATOM     18  H   UNL     1       2.285  -0.159   0.000  0.00  0.00    +0.000 HD
ENDBRANCH   6  16
BRANCH   4  20
ATOM     19  O   UNL     1       1.907   1.068   0.000  0.00  0.00    +0.000 OA
ATOM     20  C   UNL     1       1.087   0.982   0.000  0.00  0.00    +0.000 C 
BRANCH  20  22
ATOM     21  F   UNL     1      -0.853   3.651   0.000  0.00  0.00    +0.000 F 
ATOM     22  C   UNL     1       0.602   1.649   0.000  0.00  0.00    +0.000 A 
ATOM     23  C   UNL     1      -0.218   1.563   0.000  0.00  0.00    +0.000 A 
ATOM     24  C   UNL     1       0.938   2.403   0.000  0.00  0.00    +0.000 A 
ATOM     25  C   UNL     1      -0.703   2.230   0.000  0.00  0.00    +0.000 A 
ATOM     26  C   UNL     1       0.453   3.070   0.000  0.00  0.00    +0.000 A 
ATOM     27  C   UNL     1      -0.368   2.984   0.000  0.00  0.00    +0.000 A 
ENDBRANCH  20  22
ENDBRANCH   4  20
TORSDOF 4
