REMARK  Name = 
REMARK  4 active torsions:
REMARK  status: ('A' for Active; 'I' for Inactive)
REMARK    1  A    between atoms: C_2  and  C_3
REMARK    2  A    between atoms: C_4  and  O_5
REMARK    3  A    between atoms: O_5  and  P_17
REMARK    4  A    between atoms: C_8  and  N_10
REMARK                            x       y       z     vdW  Elec       q    Type
REMARK                         _______ _______ _______ _____ _____    ______ ____
ROOT
ATOM      1  C   UNL     1      -1.202  -1.516   0.000  0.00  0.00    +0.000 C 
ATOM      2  C   UNL     1      -0.374  -1.527   0.000  0.00  0.00    +0.000 C 
ATOM      3  C   UNL     1      -0.111  -0.743   0.000  0.00  0.00    +0.000 C 
ATOM      4  O   UNL     1       0.676  -0.501   0.000  0.00  0.00    +0.000 OA
ATOM      5  C   UNL     1      -0.772  -0.253   0.000  0.00  0.00    +0.000 C 
ATOM      6  O   UNL     1      -1.444  -0.729   0.000  0.00  0.00    +0.000 OA
ENDROOT
BRANCH   5   7
ATOM      7  N   UNL     1      -0.762   0.572   0.000  0.00  0.00    +0.000 N 
ATOM      8  C   UNL     1      -0.039   0.978   0.000  0.00  0.00    +0.000 A 
ATOM      9  O   UNL     1       0.669   0.555   0.000  0.00  0.00    +0.000 OA
ATOM     10  N   UNL     1      -0.030   1.803   0.000  0.00  0.00    +0.000 NA
ATOM     11  C   UNL     1      -0.739   2.225   0.000  0.00  0.00    +0.000 A 
ATOM     12  C   UNL     1      -1.462   1.819   0.000  0.00  0.00    +0.000 A 
ATOM     13  C   UNL     1      -1.471   0.995   0.000  0.00  0.00    +0.000 A 
ATOM     14  O   UNL     1      -0.728   3.047   0.000  0.00  0.00    +0.000 OA
ENDBRANCH   5   7
BRANCH   1  16
ATOM     15  O   UNL     1      -1.369  -2.938   0.000  0.00  0.00    +0.000 OA
ATOM     16  C   UNL     1      -1.693  -2.177   0.000  0.00  0.00    +0.000 C 
ENDBRANCH   1  16
BRANCH   2  17
ATOM     17  O   UNL     1       0.050  -2.237   0.000  0.00  0.00    +0.000 OA
BRANCH  17  18
ATOM     18  P   UNL     1       0.872  -2.225   0.000  0.00  0.00    +0.000 P 
ATOM     19  O   UNL     1       1.693  -2.222   0.000  0.00  0.00    +0.000 OA
ATOM     20  O   UNL     1       0.865  -1.402   0.000  0.00  0.00    +0.000 OA
ATOM     21  O   UNL     1       0.881  -3.047   0.000  0.00  0.00    +0.000 OA
ENDBRANCH  17  18
ENDBRANCH   2  17
TORSDOF 4
