REMARK  Name = 
REMARK  2 active torsions:
REMARK  status: ('A' for Active; 'I' for Inactive)
REMARK    1  A    between atoms: C1*_1  and  N_7
REMARK    2  A    between atoms: C4*_5  and  C5*_17
REMARK                            x       y       z     vdW  Elec       q    Type
REMARK                         _______ _______ _______ _____ _____    ______ ____
ROOT
ATOM      1  N   UNL     1       0.013  -0.197   0.000  0.00  0.00    +0.000 N 
ATOM      2  C   UNL     1       0.681   0.288   0.000  0.00  0.00    +0.000 A 
ATOM      3  C   UNL     1      -0.654   0.288   0.000  0.00  0.00    +0.000 A 
ATOM      4  C   UNL     1       0.426   1.072   0.000  0.00  0.00    +0.000 A 
ATOM      5  C   UNL     1      -0.399   1.073   0.000  0.00  0.00    +0.000 A 
ATOM      6  N   UNL     1       1.488   0.116   0.000  0.00  0.00    +0.000 NA
ATOM      7  C   UNL     1       2.040   0.729   0.000  0.00  0.00    +0.000 A 
ATOM      8  C   UNL     1       0.978   1.685   0.000  0.00  0.00    +0.000 A 
ATOM      9  N   UNL     1       1.785   1.514   0.000  0.00  0.00    +0.000 NA
ATOM     10  N   UNL     1       0.715   2.476   0.000  0.00  0.00    +0.000 NA
ENDROOT
BRANCH   1  11
ATOM     11  C1* UNL     1       0.013  -1.024   0.000  0.00  0.00    +0.000 C 
ATOM     12  C2* UNL     1      -0.247  -1.807   0.000  0.00  0.00    +0.000 C 
ATOM     13  O4* UNL     1      -0.665  -0.554   0.000  0.00  0.00    +0.000 OA
ATOM     14  C3* UNL     1      -1.108  -1.807   0.000  0.00  0.00    +0.000 C 
ATOM     15  C4* UNL     1      -1.317  -1.022   0.000  0.00  0.00    +0.000 C 
ATOM     16  O3* UNL     1      -1.604  -2.459   0.000  0.00  0.00    +0.000 OA
ATOM     17  O2* UNL     1       0.235  -2.476   0.000  0.00  0.00    +0.000 OA
BRANCH  15  18
ATOM     18  C5* UNL     1      -1.316  -0.188   0.000  0.00  0.00    +0.000 C 
ATOM     19  O5* UNL     1      -2.040   0.224   0.000  0.00  0.00    +0.000 OA
ENDBRANCH  15  18
ENDBRANCH   1  11
TORSDOF 2
