REMARK  Name = 
REMARK  7 active torsions:
REMARK  status: ('A' for Active; 'I' for Inactive)
REMARK    1  A    between atoms: C_2  and  C_3
REMARK    2  A    between atoms: C_2  and  C_13
REMARK    3  A    between atoms: C_3  and  C_14
REMARK    4  A    between atoms: C_12  and  C_18
REMARK    5  A    between atoms: C_12  and  N_19
REMARK    6  A    between atoms: C_13  and  N_19
REMARK    7  A    between atoms: C_15  and  C_18
REMARK                            x       y       z     vdW  Elec       q    Type
REMARK                         _______ _______ _______ _____ _____    ______ ____
ROOT
ATOM      1  C   UNL     1      -1.429   4.950   0.000  0.00  0.00    +0.000 C 
ATOM      2  C   UNL     1      -1.429   4.125   0.000  0.00  0.00    +0.000 C 
ENDROOT
BRANCH   2   3
ATOM      3  C   UNL     1      -2.143   3.712   0.000  0.00  0.00    +0.000 C 
BRANCH   3   4
ATOM      4  C   UNL     1      -2.858   4.125   0.000  0.00  0.00    +0.000 C 
BRANCH   4   9
ATOM      5  C   UNL     1      -4.287   4.125   0.000  0.00  0.00    +0.000 A 
ATOM      6  C   UNL     1      -3.572   2.888   0.000  0.00  0.00    +0.000 A 
ATOM      7  C   UNL     1      -5.001   3.712   0.000  0.00  0.00    +0.000 A 
ATOM      8  C   UNL     1      -4.287   2.475   0.000  0.00  0.00    +0.000 A 
ATOM      9  C   UNL     1      -3.572   3.712   0.000  0.00  0.00    +0.000 A 
ATOM     10  C   UNL     1      -5.001   2.888   0.000  0.00  0.00    +0.000 A 
ATOM     11  O   UNL     1      -5.716   2.475   0.000  0.00  0.00    +0.000 OA
ENDBRANCH   4   9
ENDBRANCH   3   4
ENDBRANCH   2   3
BRANCH   2  12
ATOM     12  N   UNL     1      -0.715   3.712   0.000  0.00  0.00    +0.000 NA
BRANCH  12  13
ATOM     13  C   UNL     1       0.000   4.125   0.000  0.00  0.00    +0.000 C 
BRANCH  13  14
ATOM     14  C   UNL     1       0.715   3.712   0.000  0.00  0.00    +0.000 C 
ATOM     15  O   UNL     1       0.715   2.888   0.000  0.00  0.00    +0.000 OA
BRANCH  14  20
ATOM     16  C   UNL     1       2.143   3.712   0.000  0.00  0.00    +0.000 A 
ATOM     17  C   UNL     1       1.429   4.950   0.000  0.00  0.00    +0.000 A 
ATOM     18  C   UNL     1       2.858   4.125   0.000  0.00  0.00    +0.000 A 
ATOM     19  C   UNL     1       2.143   5.362   0.000  0.00  0.00    +0.000 A 
ATOM     20  C   UNL     1       1.429   4.125   0.000  0.00  0.00    +0.000 A 
ATOM     21  C   UNL     1       2.858   4.950   0.000  0.00  0.00    +0.000 A 
ATOM     22  O   UNL     1       3.572   5.362   0.000  0.00  0.00    +0.000 OA
ENDBRANCH  14  20
ENDBRANCH  13  14
ENDBRANCH  12  13
ENDBRANCH   2  12
TORSDOF 7
