REMARK  Name = 
REMARK  6 active torsions:
REMARK  status: ('A' for Active; 'I' for Inactive)
REMARK    1  A    between atoms: C_1  and  C_3
REMARK    2  A    between atoms: C_8  and  C_10
REMARK    3  A    between atoms: N_9  and  C_22
REMARK    4  A    between atoms: C_10  and  N_11
REMARK    5  A    between atoms: C_18  and  N_25
REMARK    6  A    between atoms: C_29  and  C_34
REMARK                            x       y       z     vdW  Elec       q    Type
REMARK                         _______ _______ _______ _____ _____    ______ ____
ROOT
ATOM      1  C   UNL     1       2.143   1.979   0.000  0.00  0.00    +0.000 A 
ATOM      2  C   UNL     1       2.858   1.566   0.000  0.00  0.00    +0.000 A 
ATOM      3  C   UNL     1       2.858   0.741   0.000  0.00  0.00    +0.000 A 
ATOM      4  C   UNL     1       2.143   0.329   0.000  0.00  0.00    +0.000 A 
ATOM      5  C   UNL     1       1.429   0.741   0.000  0.00  0.00    +0.000 A 
ATOM      6  C   UNL     1       1.429   1.566   0.000  0.00  0.00    +0.000 A 
ATOM      7  C   UNL     1       3.572   1.979   0.000  0.00  0.00    +0.000 C 
ENDROOT
BRANCH   1   8
ATOM      8  N   UNL     1       2.143   2.804   0.000  0.00  0.00    +0.000 NA
ATOM      9  S   UNL     1       1.343   4.037   0.000  0.00  0.00    +0.000 S 
ATOM     10  C   UNL     1       1.429   3.216   0.000  0.00  0.00    +0.000 A 
ATOM     11  N   UNL     1       0.675   2.881   0.000  0.00  0.00    +0.000 NA
ATOM     12  C   UNL     1       0.123   3.494   0.000  0.00  0.00    +0.000 A 
ATOM     13  C   UNL     1       0.536   4.208   0.000  0.00  0.00    +0.000 A 
BRANCH  12  17
ATOM     14  N   UNL     1      -1.853   2.568   0.000  0.00  0.00    +0.000 NA
ATOM     15  C   UNL     1      -2.338   3.235   0.000  0.00  0.00    +0.000 A 
ATOM     16  C   UNL     1      -1.033   2.654   0.000  0.00  0.00    +0.000 A 
ATOM     17  C   UNL     1      -0.697   3.408   0.000  0.00  0.00    +0.000 A 
ATOM     18  C   UNL     1      -2.003   3.989   0.000  0.00  0.00    +0.000 A 
ATOM     19  C   UNL     1      -1.182   4.075   0.000  0.00  0.00    +0.000 A 
ENDBRANCH  12  17
ENDBRANCH   1   8
BRANCH   5  22
ATOM     20  C   UNL     1       0.000   0.741   0.000  0.00  0.00    +0.000 C 
ATOM     21  O   UNL     1       0.000   1.566   0.000  0.00  0.00    +0.000 OA
ATOM     22  N   UNL     1       0.714   0.329   0.000  0.00  0.00    +0.000 NA
BRANCH  20  23
ATOM     23  C   UNL     1      -0.714   0.329   0.000  0.00  0.00    +0.000 A 
ATOM     24  C   UNL     1      -1.429   0.741   0.000  0.00  0.00    +0.000 A 
ATOM     25  C   UNL     1      -0.714  -0.496   0.000  0.00  0.00    +0.000 A 
ATOM     26  C   UNL     1      -2.143   0.329   0.000  0.00  0.00    +0.000 A 
ATOM     27  C   UNL     1      -1.429  -0.908   0.000  0.00  0.00    +0.000 A 
ATOM     28  C   UNL     1      -2.143  -0.496   0.000  0.00  0.00    +0.000 A 
BRANCH  28  29
ATOM     29  C   UNL     1      -2.858  -0.908   0.000  0.00  0.00    +0.000 C 
BRANCH  29  30
ATOM     30  N   UNL     1      -2.858  -1.734   0.000  0.00  0.00    +0.000 NA
ATOM     31  N   UNL     1      -2.858  -3.384   0.000  0.00  0.00    +0.000 NA
ATOM     32  C   UNL     1      -2.143  -2.971   0.000  0.00  0.00    +0.000 C 
ATOM     33  C   UNL     1      -3.572  -2.146   0.000  0.00  0.00    +0.000 C 
ATOM     34  C   UNL     1      -3.572  -2.971   0.000  0.00  0.00    +0.000 C 
ATOM     35  C   UNL     1      -2.143  -2.146   0.000  0.00  0.00    +0.000 C 
ATOM     36  C   UNL     1      -2.858  -4.208   0.000  0.00  0.00    +0.000 C 
ENDBRANCH  29  30
ENDBRANCH  28  29
ENDBRANCH  20  23
ENDBRANCH   5  22
TORSDOF 6
