REMARK  Name = 
REMARK  19 active torsions:
REMARK  status: ('A' for Active; 'I' for Inactive)
REMARK    1  A    between atoms: C_1  and  O_43
REMARK    2  A    between atoms: C_9  and  O_115
REMARK    3  A    between atoms: C_25  and  O_36
REMARK    4  A    between atoms: C_26  and  O_43
REMARK    5  A    between atoms: C_29  and  N_100
REMARK    6  A    between atoms: C_31  and  O_36
REMARK    7  A    between atoms: C_32  and  C_44
REMARK    8  A    between atoms: C_47  and  N_62
REMARK    9  A    between atoms: C_54  and  C_58
REMARK   10  A    between atoms: C_58  and  C_59
REMARK   11  A    between atoms: C_63  and  C_64
REMARK   12  A    between atoms: C_64  and  C_66
REMARK   13  A    between atoms: C_64  and  N_67
REMARK   14  A    between atoms: C_66  and  C_68
REMARK   15  A    between atoms: C_79  and  C_82
REMARK   16  A    between atoms: N_100  and  C_101
REMARK   17  A    between atoms: C_101  and  C_102
REMARK   18  A    between atoms: C_107  and  C_108
REMARK   19  A    between atoms: O_115  and  C_116
REMARK                            x       y       z     vdW  Elec       q    Type
REMARK                         _______ _______ _______ _____ _____    ______ ____
ROOT
ATOM      1  C   UNK A   1      -0.300   0.831   0.000  0.00  0.00    +0.000 A 
ATOM      2  C   UNK A   1       0.414   0.418   0.000  0.00  0.00    +0.000 A 
ATOM      3  C   UNK A   1      -1.014   0.418   0.000  0.00  0.00    +0.000 A 
ATOM      4  C   UNK A   1      -0.300  -0.819   0.000  0.00  0.00    +0.000 A 
ATOM      5  C   UNK A   1      -1.014  -0.406   0.000  0.00  0.00    +0.000 A 
ATOM      6  C   UNK A   1       0.414  -0.406   0.000  0.00  0.00    +0.000 A 
ATOM      7  O   UNK A   1       1.129   0.831   0.000  0.00  0.00    +0.000 OA
ATOM      8  O   UNK A   1      -1.729   0.831   0.000  0.00  0.00    +0.000 OA
ATOM      9  C   UNK A   1      -4.587  -0.819   0.000  0.00  0.00    +0.000 C 
ATOM     10  C   UNK A   1       3.987  -0.819   0.000  0.00  0.00    +0.000 C 
ATOM     11  C   UNK A   1      -3.872  -0.406   0.000  0.00  0.00    +0.000 A 
ATOM     12  C   UNK A   1       3.272  -0.406   0.000  0.00  0.00    +0.000 A 
ATOM     13  C   UNK A   1      -2.443   0.418   0.000  0.00  0.00    +0.000 A 
ATOM     14  C   UNK A   1       1.843   0.418   0.000  0.00  0.00    +0.000 A 
ATOM     15  C   UNK A   1      -2.443  -0.406   0.000  0.00  0.00    +0.000 A 
ATOM     16  C   UNK A   1       2.558   0.831   0.000  0.00  0.00    +0.000 A 
ATOM     17  C   UNK A   1       3.272   0.418   0.000  0.00  0.00    +0.000 A 
ATOM     18  C   UNK A   1       2.558  -0.819   0.000  0.00  0.00    +0.000 A 
ATOM     19  C   UNK A   1      -3.872   0.418   0.000  0.00  0.00    +0.000 A 
ATOM     20  C   UNK A   1      -3.158   0.831   0.000  0.00  0.00    +0.000 A 
ATOM     21  C   UNK A   1       1.843  -0.406   0.000  0.00  0.00    +0.000 A 
ATOM     22 CL   UNK A   1       2.558   1.656   0.000  0.00  0.00    +0.000 Cl
ATOM     23 CL   UNK A   1      -1.729  -0.819   0.000  0.00  0.00    +0.000 Cl
ATOM     24  O   UNK A   1       4.701  -0.407   0.000  0.00  0.00    +0.000 OA
ATOM     25  C   UNK A   1      -3.158  -0.819   0.000  0.00  0.00    +0.000 A 
ATOM     26  C   UNK A   1       3.987  -2.469   0.000  0.00  0.00    +0.000 C 
ATOM     27  N   UNK A   1       0.414  -2.881   0.000  0.00  0.00    +0.000 NA
ATOM     28  C   UNK A   1       3.272  -2.881   0.000  0.00  0.00    +0.000 C 
ATOM     29  C   UNK A   1      -1.014  -2.881   0.000  0.00  0.00    +0.000 C 
ATOM     30  N   UNK A   1       2.558  -2.469   0.000  0.00  0.00    +0.000 NA
ATOM     31  C   UNK A   1      -0.300  -2.469   0.000  0.00  0.00    +0.000 C 
ATOM     32  C   UNK A   1       1.129  -2.469   0.000  0.00  0.00    +0.000 C 
ATOM     33  C   UNK A   1       1.843  -2.881   0.000  0.00  0.00    +0.000 C 
ATOM     34  O   UNK A   1       3.272  -3.706   0.000  0.00  0.00    +0.000 OA
ATOM     35  O   UNK A   1      -1.014  -3.706   0.000  0.00  0.00    +0.000 OA
ATOM     36  O   UNK A   1       1.129  -1.644   0.000  0.00  0.00    +0.000 OA
ATOM     37  C   UNK A   3      -4.587  -2.469   0.000  0.00  0.00    +0.000 C 
ATOM     38  N   UNK A   2      -1.729  -2.469   0.000  0.00  0.00    +0.000 NA
ATOM     39  C   UNK A   2      -2.443  -2.881   0.000  0.00  0.00    +0.000 C 
ATOM     40  O   UNK A   3      -6.016  -2.469   0.000  0.00  0.00    +0.000 OA
ATOM     41  N   UNK A   3      -3.872  -2.881   0.000  0.00  0.00    +0.000 NA
ATOM     42  C   UNK A   2      -3.158  -2.469   0.000  0.00  0.00    +0.000 C 
ATOM     43  O   UNK A   2      -3.158  -1.644   0.000  0.00  0.00    +0.000 OA
ATOM     44  C   UNK A   2      -6.016  -4.119   0.000  0.00  0.00    +0.000 C 
ATOM     45  N   UNK A   2      -5.301  -3.706   0.000  0.00  0.00    +0.000 NA
ATOM     46  C   UNK A   3      -5.301  -2.881   0.000  0.00  0.00    +0.000 C 
ATOM     47  C   UNK A   2      -3.169  -5.368   0.000  0.00  0.00    +0.000 A 
ATOM     48  C   UNK A   2      -2.455  -5.781   0.000  0.00  0.00    +0.000 A 
ATOM     49  C   UNK A   2      -2.455  -4.131   0.000  0.00  0.00    +0.000 A 
ATOM     50  C   UNK A   2      -3.169  -4.543   0.000  0.00  0.00    +0.000 A 
ATOM     51  C   UNK A   2      -1.740  -5.368   0.000  0.00  0.00    +0.000 A 
ATOM     52  C   UNK A   2      -1.740  -4.543   0.000  0.00  0.00    +0.000 A 
ATOM     53  O   UNK A   2      -2.455  -6.606   0.000  0.00  0.00    +0.000 OA
ATOM     54  C   UNK A   2      -6.016  -4.944   0.000  0.00  0.00    +0.000 A 
ATOM     55  C   UNK A   2      -6.730  -5.356   0.000  0.00  0.00    +0.000 A 
ATOM     56  C   UNK A   2      -6.016  -6.594   0.000  0.00  0.00    +0.000 A 
ATOM     57  C   UNK A   2      -5.301  -5.356   0.000  0.00  0.00    +0.000 A 
ATOM     58  C   UNK A   2      -6.730  -6.181   0.000  0.00  0.00    +0.000 A 
ATOM     59  O   UNK A   2      -7.445  -6.594   0.000  0.00  0.00    +0.000 OA
ATOM     60  C   UNK A   2      -5.301  -6.181   0.000  0.00  0.00    +0.000 A 
ATOM     61  O   UNK A   2      -4.587  -6.594   0.000  0.00  0.00    +0.000 OA
ENDROOT
BRANCH  44  62
ATOM     62  C   UNK A   2      -6.730  -3.706   0.000  0.00  0.00    +0.000 C 
ATOM     63  O   ACE A   4      -6.730  -2.881   0.000  0.00  0.00    +0.000 OA
ATOM     64  O   ACE A   4      -7.445  -4.119   0.000  0.00  0.00    +0.000 OA
ENDBRANCH  44  62
BRANCH  26  65
ATOM     65  N   UNK A   1       4.701  -2.881   0.000  0.00  0.00    +0.000 NA
ATOM     66  C   UNK A   1       5.416  -2.469   0.000  0.00  0.00    +0.000 C 
ATOM     67  O   UNK A   1       5.416  -1.644   0.000  0.00  0.00    +0.000 OA
BRANCH  66  68
ATOM     68  C   UNK A   1       6.130  -2.881   0.000  0.00  0.00    +0.000 C 
BRANCH  68  69
ATOM     69  N   UNK A   1       6.130  -3.707   0.000  0.00  0.00    +0.000 NA
ATOM     70  C   ACE A   0       6.845  -4.119   0.000  0.00  0.00    +0.000 C 
ENDBRANCH  68  69
BRANCH  68  71
ATOM     71  C   UNK A   1       6.845  -2.469   0.000  0.00  0.00    +0.000 C 
BRANCH  71  72
ATOM     72  C   UNK A   1       7.559  -2.881   0.000  0.00  0.00    +0.000 C 
ATOM     73  C   UNK A   1       7.559  -3.707   0.000  0.00  0.00    +0.000 C 
ATOM     74  C   UNK A   1       8.274  -2.469   0.000  0.00  0.00    +0.000 C 
ENDBRANCH  71  72
ENDBRANCH  68  71
ENDBRANCH  66  68
ENDBRANCH  26  65
BRANCH  33  75
ATOM     75  C   UNK A   1       1.843  -3.706   0.000  0.00  0.00    +0.000 C 
BRANCH  75  76
ATOM     76  C   UNK A   1       1.129  -4.119   0.000  0.00  0.00    +0.000 C 
ATOM     77  N   UNK A   1       0.414  -3.706   0.000  0.00  0.00    +0.000 NA
ATOM     78  O   UNK A   1       1.129  -4.944   0.000  0.00  0.00    +0.000 OA
ENDBRANCH  75  76
ENDBRANCH  33  75
BRANCH   1  79
ATOM     79  O   UNK A   1      -0.300   1.656   0.000  0.00  0.00    +0.000 OA
BRANCH  79  81
ATOM     80  C   UNK A   1      -1.014   2.893   0.000  0.00  0.00    +0.000 C 
ATOM     81  C   UNK A   1      -1.014   2.068   0.000  0.00  0.00    +0.000 C 
ATOM     82  C   UNK A   1      -1.729   3.306   0.000  0.00  0.00    +0.000 C 
ATOM     83  O   UNK A   1      -1.729   1.656   0.000  0.00  0.00    +0.000 OA
ATOM     84  C   UNK A   1      -2.443   2.893   0.000  0.00  0.00    +0.000 C 
ATOM     85  C   UNK A   1      -2.443   2.068   0.000  0.00  0.00    +0.000 C 
ATOM     86  O   UNK A   1      -1.729   4.131   0.000  0.00  0.00    +0.000 OA
ATOM     87  O   UNK A   1      -3.158   3.306   0.000  0.00  0.00    +0.000 OA
BRANCH  85  88
ATOM     88  C   UNK A   1      -3.158   1.656   0.000  0.00  0.00    +0.000 C 
ATOM     89  O   UNK A   1      -3.872   2.068   0.000  0.00  0.00    +0.000 OA
ENDBRANCH  85  88
BRANCH  80  90
ATOM     90  O   UNK A   1      -0.300   3.306   0.000  0.00  0.00    +0.000 OA
BRANCH  90  92
ATOM     91  C   UNK A   1       0.415   5.368   0.000  0.00  0.00    +0.000 C 
ATOM     92  C   UNK A   1      -0.300   4.131   0.000  0.00  0.00    +0.000 C 
ATOM     93  C   UNK A   1       0.414   4.543   0.000  0.00  0.00    +0.000 C 
ATOM     94  O   UNK A   1      -1.014   4.543   0.000  0.00  0.00    +0.000 OA
ATOM     95  C   UNK A   1      -0.300   5.781   0.000  0.00  0.00    +0.000 C 
ATOM     96  C   UNK A   1      -1.014   5.368   0.000  0.00  0.00    +0.000 C 
ATOM     97  O   UNK A   1      -0.300   6.606   0.000  0.00  0.00    +0.000 OA
ATOM     98  C   UNK A   1       0.827   6.083   0.000  0.00  0.00    +0.000 C 
ATOM     99  C   UNK A   1      -1.729   5.781   0.000  0.00  0.00    +0.000 C 
BRANCH  91 100
ATOM    100  N   UNK A   1       1.113   4.930   0.000  0.00  0.00    +0.000 NA
BRANCH 100 101
ATOM    101  C   UNK A   1       1.842   5.316   0.000  0.00  0.00    +0.000 C 
BRANCH 101 102
ATOM    102  C   UNK A   1       2.541   4.878   0.000  0.00  0.00    +0.000 A 
ATOM    103  C   UNK A   1       3.270   5.264   0.000  0.00  0.00    +0.000 A 
ATOM    104  C   UNK A   1       2.511   4.053   0.000  0.00  0.00    +0.000 A 
ATOM    105  C   UNK A   1       3.969   4.825   0.000  0.00  0.00    +0.000 A 
ATOM    106  C   UNK A   1       3.210   3.615   0.000  0.00  0.00    +0.000 A 
ATOM    107  C   UNK A   1       3.939   4.001   0.000  0.00  0.00    +0.000 A 
BRANCH 107 108
ATOM    108  C   UNK A   1       4.638   3.563   0.000  0.00  0.00    +0.000 A 
ATOM    109  C   UNK A   1       5.367   3.949   0.000  0.00  0.00    +0.000 A 
ATOM    110  C   UNK A   1       4.607   2.738   0.000  0.00  0.00    +0.000 A 
ATOM    111  C   UNK A   1       6.066   3.510   0.000  0.00  0.00    +0.000 A 
ATOM    112  C   UNK A   1       5.306   2.300   0.000  0.00  0.00    +0.000 A 
ATOM    113  C   UNK A   1       6.035   2.686   0.000  0.00  0.00    +0.000 A 
ATOM    114 CL   UNK A   1       6.734   2.247   0.000  0.00  0.00    +0.000 Cl
ENDBRANCH 107 108
ENDBRANCH 101 102
ENDBRANCH 100 101
ENDBRANCH  91 100
ENDBRANCH  90  92
ENDBRANCH  80  90
ENDBRANCH  79  81
ENDBRANCH   1  79
BRANCH   9 115
ATOM    115  O   UNK A   1      -5.301  -0.406   0.000  0.00  0.00    +0.000 OA
BRANCH 115 116
ATOM    116  C   UNK A   1      -6.022   0.009   0.000  0.00  0.00    +0.000 C 
ATOM    117  O   UNK A   1      -6.022   0.841   0.000  0.00  0.00    +0.000 OA
ATOM    118  C   UNK A   1      -6.742   1.257   0.000  0.00  0.00    +0.000 C 
ATOM    119  C   UNK A   1      -7.463   0.841   0.000  0.00  0.00    +0.000 C 
ATOM    120  C   UNK A   1      -7.463   0.009   0.000  0.00  0.00    +0.000 C 
ATOM    121  C   UNK A   1      -6.742  -0.406   0.000  0.00  0.00    +0.000 C 
ATOM    122  C   UNK A   1      -6.742   2.089   0.000  0.00  0.00    +0.000 C 
ATOM    123  O   UNK A   1      -8.183   1.257   0.000  0.00  0.00    +0.000 OA
ATOM    124  C   UNK A   1      -7.479  -0.829   0.000  0.00  0.00    +0.000 C 
ATOM    125  N   UNK A   1      -8.274  -0.199   0.000  0.00  0.00    +0.000 NA
ENDBRANCH 115 116
ENDBRANCH   9 115
TORSDOF 19
