REMARK  Name = 
REMARK  15 active torsions:
REMARK  status: ('A' for Active; 'I' for Inactive)
REMARK    1  A    between atoms: C_11  and  C_13
REMARK    2  A    between atoms: C_13  and  C_14
REMARK    3  A    between atoms: C_22  and  C_24
REMARK    4  A    between atoms: C_33  and  C_34
REMARK    5  A    between atoms: C_34  and  C_35
REMARK    6  A    between atoms: C_39  and  N_41
REMARK    7  A    between atoms: C_46  and  C_47
REMARK    8  A    between atoms: C_47  and  C_49
REMARK    9  A    between atoms: C_52  and  O_55
REMARK   10  A    between atoms: C_57  and  C_58
REMARK   11  A    between atoms: C_58  and  C_60
REMARK   12  A    between atoms: C_58  and  N_61
REMARK   13  A    between atoms: C_60  and  C_63
REMARK   14  A    between atoms: C_66  and  C_67
REMARK   15  A    between atoms: C_73  and  C_75
REMARK                            x       y       z     vdW  Elec       q    Type
REMARK                         _______ _______ _______ _____ _____    ______ ____
ROOT
ATOM      1  N   UNL     1       1.718  -3.823   0.000  0.00  0.00    +0.000 N 
ATOM      2  C   UNL     1       1.728  -4.648   0.000  0.00  0.00    +0.000 C 
ATOM      3  C   UNL     1       2.428  -3.402   0.000  0.00  0.00    +0.000 C 
ATOM      4  C   UNL     1       3.147  -3.806   0.000  0.00  0.00    +0.000 C 
ATOM      5  O   UNL     1       2.418  -2.577   0.000  0.00  0.00    +0.000 OA
ATOM      6  C   UNL     1       3.247  -4.621   0.000  0.00  0.00    +0.000 C 
ATOM      7  C   UNL     1       4.056  -4.783   0.000  0.00  0.00    +0.000 C 
ATOM      8  C   UNL     1       4.460  -4.063   0.000  0.00  0.00    +0.000 C 
ATOM      9  N   UNL     1       3.901  -3.457   0.000  0.00  0.00    +0.000 N 
ATOM     10  C   UNL     1       3.899  -2.631   0.000  0.00  0.00    +0.000 C 
ATOM     11  C   UNL     1       4.612  -2.217   0.000  0.00  0.00    +0.000 C 
ATOM     12  O   UNL     1       3.183  -2.221   0.000  0.00  0.00    +0.000 OA
ATOM     13  C   UNL     1       3.894  -0.982   0.000  0.00  0.00    +0.000 C 
ATOM     14  C   UNL     1       3.892  -0.157   0.000  0.00  0.00    +0.000 C 
ATOM     15  O   UNL     1       3.181  -1.396   0.000  0.00  0.00    +0.000 OA
ATOM     16  C   UNL     1       4.606   0.258   0.000  0.00  0.00    +0.000 C 
ATOM     17  C   UNL     1       3.177   0.254   0.000  0.00  0.00    +0.000 C 
ATOM     18  C   UNL     1       3.175   1.079   0.000  0.00  0.00    +0.000 C 
ATOM     19  O   UNL     1       2.463  -0.160   0.000  0.00  0.00    +0.000 OA
ATOM     20  O   UNL     1       2.459   1.490   0.000  0.00  0.00    +0.000 OA
ATOM     21  C   UNL     1       2.457   2.315   0.000  0.00  0.00    +0.000 C 
ATOM     22  C   UNL     1       1.742   2.726   0.000  0.00  0.00    +0.000 C 
ATOM     23  O   UNL     1       3.171   2.729   0.000  0.00  0.00    +0.000 OA
ATOM     24  C   UNL     1       1.028   2.311   0.000  0.00  0.00    +0.000 C 
ATOM     25  O   UNL     1       1.030   1.486   0.000  0.00  0.00    +0.000 OA
ATOM     26  C   UNL     1       0.313   2.722   0.000  0.00  0.00    +0.000 C 
ATOM     27  C   UNL     1      -1.224   2.296   0.000  0.00  0.00    +0.000 C 
ATOM     28  C   UNL     1      -1.626   1.576   0.000  0.00  0.00    +0.000 C 
ATOM     29  O   UNL     1      -1.647   3.005   0.000  0.00  0.00    +0.000 OA
ATOM     30  C   UNL     1      -1.203   0.867   0.000  0.00  0.00    +0.000 C 
ATOM     31  O   UNL     1      -0.378   0.880   0.000  0.00  0.00    +0.000 OA
ATOM     32  C   UNL     1       0.045   0.171   0.000  0.00  0.00    +0.000 C 
ATOM     33  O   UNL     1       0.870   0.183   0.000  0.00  0.00    +0.000 OA
ATOM     34  C   UNL     1      -0.357  -0.549   0.000  0.00  0.00    +0.000 C 
ATOM     35  C   UNL     1      -1.605   0.147   0.000  0.00  0.00    +0.000 C 
ATOM     36  N   UNL     1       4.610  -1.392   0.000  0.00  0.00    +0.000 NA
ATOM     37  N   UNL     1      -0.512   2.713   0.000  0.00  0.00    +0.000 NA
ENDROOT
BRANCH  28  38
ATOM     38  N   UNL     1      -2.451   1.563   0.000  0.00  0.00    +0.000 NA
ATOM     39  C   UNL     1      -2.874   2.272   0.000  0.00  0.00    +0.000 C 
ATOM     40  O   UNL     1      -2.472   2.992   0.000  0.00  0.00    +0.000 OA
BRANCH  39  41
ATOM     41  C   UNL     1      -3.699   2.260   0.000  0.00  0.00    +0.000 C 
BRANCH  41  42
ATOM     42  N   UNL     1      -4.101   1.539   0.000  0.00  0.00    +0.000 N 
ATOM     43  C   UNL     1      -4.926   1.527   0.000  0.00  0.00    +0.000 C 
ATOM     44  C   UNL     1      -3.678   0.831   0.000  0.00  0.00    +0.000 C 
ATOM     45  O   UNL     1      -2.853   0.843   0.000  0.00  0.00    +0.000 OA
BRANCH  44  46
ATOM     46  C   UNL     1      -3.857   0.026   0.000  0.00  0.00    +0.000 C 
ATOM     47  N   UNL     1      -4.616  -0.308   0.000  0.00  0.00    +0.000 N 
ATOM     48  C   UNL     1      -4.538  -1.129   0.000  0.00  0.00    +0.000 C 
ATOM     49  C   UNL     1      -3.732  -1.308   0.000  0.00  0.00    +0.000 C 
ATOM     50  C   UNL     1      -3.313  -0.598   0.000  0.00  0.00    +0.000 C 
ATOM     51  C   UNL     1      -5.328   0.110   0.000  0.00  0.00    +0.000 C 
ATOM     52  O   UNL     1      -5.322   0.935   0.000  0.00  0.00    +0.000 OA
BRANCH  51  53
ATOM     53  C   UNL     1      -6.045  -0.298   0.000  0.00  0.00    +0.000 C 
ATOM     54  O   UNL     1      -6.756   0.119   0.000  0.00  0.00    +0.000 OA
ATOM     55  C   UNL     1      -6.051  -1.123   0.000  0.00  0.00    +0.000 C 
ENDBRANCH  51  53
ENDBRANCH  44  46
ENDBRANCH  41  42
BRANCH  41  56
ATOM     56  C   UNL     1      -4.122   2.968   0.000  0.00  0.00    +0.000 C 
BRANCH  56  57
ATOM     57  C   UNL     1      -4.947   2.956   0.000  0.00  0.00    +0.000 C 
ATOM     58  C   UNL     1      -5.370   3.664   0.000  0.00  0.00    +0.000 C 
ATOM     59  C   UNL     1      -5.349   2.235   0.000  0.00  0.00    +0.000 C 
ENDBRANCH  56  57
ENDBRANCH  41  56
ENDBRANCH  39  41
ENDBRANCH  28  38
BRANCH  18  60
ATOM     60  C   UNL     1       3.888   1.494   0.000  0.00  0.00    +0.000 C 
ATOM     61  C   UNL     1       3.886   2.318   0.000  0.00  0.00    +0.000 C 
ATOM     62  C   UNL     1       4.604   1.083   0.000  0.00  0.00    +0.000 C 
ENDBRANCH  18  60
BRANCH  26  63
ATOM     63  C   UNL     1       0.311   3.547   0.000  0.00  0.00    +0.000 C 
ATOM     64  C   UNL     1       1.024   3.961   0.000  0.00  0.00    +0.000 C 
BRANCH  63  65
ATOM     65  C   UNL     1      -0.405   3.958   0.000  0.00  0.00    +0.000 C 
ATOM     66  C   UNL     1      -0.407   4.783   0.000  0.00  0.00    +0.000 C 
ENDBRANCH  63  65
ENDBRANCH  26  63
BRANCH  34  67
ATOM     67  C   UNL     1      -1.182  -0.561   0.000  0.00  0.00    +0.000 C 
BRANCH  67  68
ATOM     68  C   UNL     1      -1.584  -1.282   0.000  0.00  0.00    +0.000 A 
ATOM     69  C   UNL     1      -2.407  -1.289   0.000  0.00  0.00    +0.000 A 
ATOM     70  C   UNL     1      -2.809  -2.009   0.000  0.00  0.00    +0.000 A 
ATOM     71  C   UNL     1      -2.386  -2.718   0.000  0.00  0.00    +0.000 A 
ATOM     72  C   UNL     1      -1.557  -2.703   0.000  0.00  0.00    +0.000 A 
ATOM     73  C   UNL     1      -1.159  -1.983   0.000  0.00  0.00    +0.000 A 
BRANCH  71  74
ATOM     74  O   UNL     1      -2.787  -3.439   0.000  0.00  0.00    +0.000 OA
ATOM     75  C   UNL     1      -3.612  -3.452   0.000  0.00  0.00    +0.000 C 
ENDBRANCH  71  74
ENDBRANCH  67  68
ENDBRANCH  34  67
BRANCH  11  76
ATOM     76  C   UNL     1       5.327  -2.628   0.000  0.00  0.00    +0.000 C 
BRANCH  76  77
ATOM     77  C   UNL     1       6.041  -2.214   0.000  0.00  0.00    +0.000 C 
ATOM     78  C   UNL     1       6.756  -2.624   0.000  0.00  0.00    +0.000 C 
ATOM     79  C   UNL     1       6.039  -1.389   0.000  0.00  0.00    +0.000 C 
ENDBRANCH  76  77
ENDBRANCH  11  76
TORSDOF 15
