REMARK  Name = 
REMARK  5 active torsions:
REMARK  status: ('A' for Active; 'I' for Inactive)
REMARK    1  A    between atoms: C_6  and  N_7
REMARK    2  A    between atoms: N_7  and  C_8
REMARK    3  A    between atoms: C_8  and  C_9
REMARK    4  A    between atoms: N_19  and  C_32
REMARK    5  A    between atoms: C_32  and  C_33
REMARK                            x       y       z     vdW  Elec       q    Type
REMARK                         _______ _______ _______ _____ _____    ______ ____
ROOT
ATOM      1  C   UNL     1      -3.214   0.619   0.000  0.00  0.00    +0.000 C 
ENDROOT
BRANCH   1   2
ATOM      2  C   UNL     1      -3.214   1.444   0.000  0.00  0.00    +0.000 A 
ATOM      3  C   UNL     1      -3.928   1.856   0.000  0.00  0.00    +0.000 A 
ATOM      4  C   UNL     1      -3.928   2.681   0.000  0.00  0.00    +0.000 A 
ATOM      5 BR   UNL     1      -4.643   3.094   0.000  0.00  0.00    +0.000 Br
ATOM      6  C   UNL     1      -3.214   3.094   0.000  0.00  0.00    +0.000 A 
ATOM      7  C   UNL     1      -2.499   2.681   0.000  0.00  0.00    +0.000 A 
ATOM      8 BR   UNL     1      -1.785   3.094   0.000  0.00  0.00    +0.000 Br
ATOM      9  C   UNL     1      -2.499   1.856   0.000  0.00  0.00    +0.000 A 
ATOM     10  N   UNL     1      -1.785   1.444   0.000  0.00  0.00    +0.000 NA
ENDBRANCH   1   2
BRANCH   1  11
ATOM     11  N   UNL     1      -2.499   0.206   0.000  0.00  0.00    +0.000 NA
BRANCH  11  17
ATOM     12  C   UNL     1      -1.785  -1.856   0.000  0.00  0.00    +0.000 C 
ATOM     13  C   UNL     1      -2.499  -2.269   0.000  0.00  0.00    +0.000 C 
ATOM     14  O   UNL     1      -2.499  -3.094   0.000  0.00  0.00    +0.000 OA
ATOM     15  C   UNL     1      -3.214  -1.856   0.000  0.00  0.00    +0.000 C 
ATOM     16  C   UNL     1      -3.214  -1.031   0.000  0.00  0.00    +0.000 C 
ATOM     17  C   UNL     1      -2.499  -0.619   0.000  0.00  0.00    +0.000 C 
ATOM     18  C   UNL     1      -1.785  -1.031   0.000  0.00  0.00    +0.000 C 
ENDBRANCH  11  17
ENDBRANCH   1  11
TORSDOF 3
REMARK  Name = 
REMARK  5 active torsions:
REMARK  status: ('A' for Active; 'I' for Inactive)
REMARK    1  A    between atoms: C_6  and  N_7
REMARK    2  A    between atoms: N_7  and  C_8
REMARK    3  A    between atoms: C_8  and  C_9
REMARK    4  A    between atoms: N_19  and  C_32
REMARK    5  A    between atoms: C_32  and  C_33
REMARK                            x       y       z     vdW  Elec       q    Type
REMARK                         _______ _______ _______ _____ _____    ______ ____
ROOT
ATOM      1  N   UNL     1       1.715   0.287   0.000  0.00  0.00    +0.000 N 
ATOM      2  C   UNL     1       1.230   0.955   0.000  0.00  0.00    +0.000 A 
ATOM      3  N   UNL     1       1.715   1.622   0.000  0.00  0.00    +0.000 NA
ATOM      4  C   UNL     1       2.499   1.367   0.000  0.00  0.00    +0.000 A 
ATOM      5  N   UNL     1       3.214   1.780   0.000  0.00  0.00    +0.000 N 
ATOM      6  C   UNL     1       3.928   1.367   0.000  0.00  0.00    +0.000 A 
ATOM      7  N   UNL     1       3.928   0.542   0.000  0.00  0.00    +0.000 N 
ATOM      8  C   UNL     1       3.214   0.130   0.000  0.00  0.00    +0.000 A 
ATOM      9  C   UNL     1       2.499   0.542   0.000  0.00  0.00    +0.000 A 
ATOM     10  O   UNL     1       3.214  -0.695   0.000  0.00  0.00    +0.000 OA
ATOM     11  C   UNL     1       4.643   0.130   0.000  0.00  0.00    +0.000 C 
ATOM     12  O   UNL     1       4.643   1.780   0.000  0.00  0.00    +0.000 OA
ATOM     13  C   UNL     1       3.214   2.605   0.000  0.00  0.00    +0.000 C 
ENDROOT
BRANCH   1  14
ATOM     14  C   UNL     1       1.460  -0.497   0.000  0.00  0.00    +0.000 C 
BRANCH  14  15
ATOM     15  C   UNL     1       0.653  -0.669   0.000  0.00  0.00    +0.000 C 
ATOM     16  O   UNL     1       0.398  -1.453   0.000  0.00  0.00    +0.000 OA
ATOM     17  O   UNL     1       0.101  -0.056   0.000  0.00  0.00    +0.000 OA
ENDBRANCH  14  15
ENDBRANCH   1  14
TORSDOF 2
