REMARK  Name = 
REMARK  9 active torsions:
REMARK  status: ('A' for Active; 'I' for Inactive)
REMARK    1  A    between atoms: O_1  and  C_16
REMARK    2  A    between atoms: O_1  and  C_21
REMARK    3  A    between atoms: O_2  and  C_17
REMARK    4  A    between atoms: N_8  and  C_20
REMARK    5  A    between atoms: N_9  and  C_29
REMARK    6  A    between atoms: C_10  and  C_13
REMARK    7  A    between atoms: C_11  and  C_16
REMARK    8  A    between atoms: C_12  and  C_17
REMARK    9  A    between atoms: C_29  and  C_31
REMARK                            x       y       z     vdW  Elec       q    Type
REMARK                         _______ _______ _______ _____ _____    ______ ____
ROOT
ATOM      1  N   UNL     1      -1.247   2.649   0.000  0.00  0.00    +0.000 NA
ATOM      2  C   UNL     1      -1.247   0.992   0.000  0.00  0.00    +0.000 C 
ATOM      3  C   UNL     1      -0.541   1.411   0.000  0.00  0.00    +0.000 C 
ATOM      4  C   UNL     1      -1.985   1.411   0.000  0.00  0.00    +0.000 C 
ATOM      5  C   UNL     1      -0.541   2.239   0.000  0.00  0.00    +0.000 C 
ATOM      6  C   UNL     1      -1.985   2.239   0.000  0.00  0.00    +0.000 C 
ATOM      7  C   UNL     1       0.164   2.649   0.000  0.00  0.00    +0.000 C 
ATOM      8  C   UNL     1      -2.690   2.649   0.000  0.00  0.00    +0.000 C 
ENDROOT
BRANCH   2   9
ATOM      9  C   UNL     1      -1.247   0.164   0.000  0.00  0.00    +0.000 A 
ATOM     10  C   UNL     1      -0.541  -0.205   0.000  0.00  0.00    +0.000 A 
ATOM     11  C   UNL     1      -1.944  -0.246   0.000  0.00  0.00    +0.000 A 
ATOM     12  C   UNL     1      -0.541  -1.034   0.000  0.00  0.00    +0.000 A 
ATOM     13  C   UNL     1      -1.944  -1.034   0.000  0.00  0.00    +0.000 A 
ATOM     14  C   UNL     1      -1.247  -1.452   0.000  0.00  0.00    +0.000 A 
BRANCH  12  17
ATOM     15  O   UNL     1       0.164  -2.280   0.000  0.00  0.00    +0.000 OA
ATOM     16  O   UNL     1       1.074  -0.828   0.000  0.00  0.00    +0.000 OA
ATOM     17  N   UNL     1       0.164  -1.452   0.000  0.00  0.00    +0.000 N 
ENDBRANCH  12  17
ENDBRANCH   2   9
BRANCH   3  19
ATOM     18  O   UNL     1       0.164   0.164   0.000  0.00  0.00    +0.000 OA
ATOM     19  C   UNL     1       0.164   0.992   0.000  0.00  0.00    +0.000 C 
BRANCH  19  20
ATOM     20  O   UNL     1       0.869   1.411   0.000  0.00  0.00    +0.000 OA
BRANCH  20  22
ATOM     21  N   UNL     1       2.649   0.205   0.000  0.00  0.00    +0.000 NA
ATOM     22  C   UNL     1       1.575   0.992   0.000  0.00  0.00    +0.000 C 
ATOM     23  C   UNL     1       1.821   0.205   0.000  0.00  0.00    +0.000 C 
ATOM     24  C   UNL     1       2.239   1.493   0.000  0.00  0.00    +0.000 C 
ATOM     25  C   UNL     1       2.903   0.992   0.000  0.00  0.00    +0.000 C 
BRANCH  21  26
ATOM     26  C   UNL     1       3.355  -0.164   0.000  0.00  0.00    +0.000 C 
BRANCH  26  27
ATOM     27  C   UNL     1       3.355  -0.992   0.000  0.00  0.00    +0.000 A 
ATOM     28  C   UNL     1       2.649  -1.403   0.000  0.00  0.00    +0.000 A 
ATOM     29  C   UNL     1       4.101  -1.403   0.000  0.00  0.00    +0.000 A 
ATOM     30  C   UNL     1       2.649  -2.231   0.000  0.00  0.00    +0.000 A 
ATOM     31  C   UNL     1       4.101  -2.231   0.000  0.00  0.00    +0.000 A 
ATOM     32  C   UNL     1       3.355  -2.649   0.000  0.00  0.00    +0.000 A 
ENDBRANCH  26  27
ENDBRANCH  21  26
ENDBRANCH  20  22
ENDBRANCH  19  20
ENDBRANCH   3  19
BRANCH   4  34
ATOM     33  O   UNL     1      -2.690   0.164   0.000  0.00  0.00    +0.000 OA
ATOM     34  C   UNL     1      -2.690   0.992   0.000  0.00  0.00    +0.000 C 
BRANCH  34  35
ATOM     35  O   UNL     1      -3.396   1.411   0.000  0.00  0.00    +0.000 OA
ATOM     36  C   UNL     1      -4.101   0.992   0.000  0.00  0.00    +0.000 C 
ENDBRANCH  34  35
ENDBRANCH   4  34
TORSDOF 9
