REMARK  Name = 
REMARK  6 active torsions:
REMARK  status: ('A' for Active; 'I' for Inactive)
REMARK    1  A    between atoms: CA_1  and  C_10
REMARK    2  A    between atoms: C_6  and  C_13
REMARK    3  A    between atoms: CA_7  and  N_26
REMARK    4  A    between atoms: N_17  and  C_20
REMARK    5  A    between atoms: C_27  and  C_28
REMARK    6  A    between atoms: C_28  and  C_30
REMARK                            x       y       z     vdW  Elec       q    Type
REMARK                         _______ _______ _______ _____ _____    ______ ____
ROOT
ATOM      1  CA  UNL     1       0.474  -0.825   0.000  0.00  0.00    +0.000 C 
ATOM      2  N   UNL     1      -0.240  -0.412   0.000  0.00  0.00    +0.000 N 
ATOM      3  C   UNL     1      -0.240   0.412   0.000  0.00  0.00    +0.000 C 
ATOM      4  S   UNL     1       0.474   0.825   0.000  0.00  0.00    +0.000 S 
ATOM      5  C   UNL     1       1.188   0.412   0.000  0.00  0.00    +0.000 C 
ATOM      6  C   UNL     1       1.188  -0.412   0.000  0.00  0.00    +0.000 C 
ATOM      7  CA  UNL     1      -1.065   0.412   0.000  0.00  0.00    +0.000 C 
ATOM      8  C   UNL     1      -1.065  -0.412   0.000  0.00  0.00    +0.000 C 
ATOM      9  O   UNL     1      -1.649  -0.996   0.000  0.00  0.00    +0.000 OA
ENDROOT
BRANCH   6  10
ATOM     10  C   UNL     1       1.903  -0.825   0.000  0.00  0.00    +0.000 C 
ATOM     11  C   UNL     1       2.618  -0.412   0.000  0.00  0.00    +0.000 C 
ATOM     12  C   UNL     1       2.704   0.408   0.000  0.00  0.00    +0.000 C 
ATOM     13  C   UNL     1       3.511   0.580   0.000  0.00  0.00    +0.000 C 
ATOM     14  N   UNL     1       3.923  -0.135   0.000  0.00  0.00    +0.000 N 
ATOM     15  C   UNL     1       3.371  -0.748   0.000  0.00  0.00    +0.000 C 
ATOM     16  O   UNL     1       3.543  -1.555   0.000  0.00  0.00    +0.000 OA
BRANCH  14  17
ATOM     17  C   UNL     1       4.744  -0.221   0.000  0.00  0.00    +0.000 C 
ATOM     18  C   UNL     1       5.296   0.392   0.000  0.00  0.00    +0.000 C 
ATOM     19  N   UNL     1       6.049   0.056   0.000  0.00  0.00    +0.000 NA
ATOM     20  C   UNL     1       5.963  -0.764   0.000  0.00  0.00    +0.000 C 
ATOM     21  C   UNL     1       5.156  -0.936   0.000  0.00  0.00    +0.000 C 
ENDBRANCH  14  17
ENDBRANCH   6  10
BRANCH   1  22
ATOM     22  C   UNL     1       0.474  -1.650   0.000  0.00  0.00    +0.000 C 
ATOM     23  O   UNL     1       1.188  -2.062   0.000  0.00  0.00    +0.000 OA
ATOM     24  OXT UNL     1      -0.240  -2.062   0.000  0.00  0.00    +0.000 OA
ENDBRANCH   1  22
BRANCH   7  25
ATOM     25  N   UNL     1      -1.780   0.825   0.000  0.00  0.00    +0.000 NA
ATOM     26  C   UNL     1      -2.494   0.412   0.000  0.00  0.00    +0.000 C 
ATOM     27  O   UNL     1      -2.494  -0.412   0.000  0.00  0.00    +0.000 OA
BRANCH  26  28
ATOM     28  C   UNL     1      -3.209   0.825   0.000  0.00  0.00    +0.000 C 
ATOM     29  N   UNL     1      -3.209   1.650   0.000  0.00  0.00    +0.000 NA
ATOM     30  O   UNL     1      -2.494   2.062   0.000  0.00  0.00    +0.000 OA
BRANCH  28  31
ATOM     31  C   UNL     1      -3.923   0.412   0.000  0.00  0.00    +0.000 A 
ATOM     32  N   UNL     1      -4.010  -0.408   0.000  0.00  0.00    +0.000 NA
ATOM     33  S   UNL     1      -4.816  -0.580   0.000  0.00  0.00    +0.000 S 
ATOM     34  C   UNL     1      -5.229   0.135   0.000  0.00  0.00    +0.000 A 
ATOM     35  N   UNL     1      -4.677   0.748   0.000  0.00  0.00    +0.000 NA
ATOM     36  N   UNL     1      -6.049   0.221   0.000  0.00  0.00    +0.000 NA
ENDBRANCH  28  31
ENDBRANCH  26  28
ENDBRANCH   7  25
TORSDOF 6
