REMARK  Name = 
REMARK  6 active torsions:
REMARK  status: ('A' for Active; 'I' for Inactive)
REMARK    1  A    between atoms: O_2  and  C_3
REMARK    2  A    between atoms: C_6  and  C_9
REMARK    3  A    between atoms: C_10  and  C_11
REMARK    4  A    between atoms: C_13  and  C_24
REMARK    5  A    between atoms: N_15  and  C_16
REMARK    6  A    between atoms: N_26  and  N_27
REMARK                            x       y       z     vdW  Elec       q    Type
REMARK                         _______ _______ _______ _____ _____    ______ ____
ROOT
ATOM      1  C   UNL     1       1.429  -2.475   0.000  0.00  0.00    +0.000 A 
ATOM      2  C   UNL     1       2.096  -2.960   0.000  0.00  0.00    +0.000 A 
ATOM      3  C   UNL     1       1.841  -3.744   0.000  0.00  0.00    +0.000 A 
ATOM      4  N   UNL     1       1.016  -3.744   0.000  0.00  0.00    +0.000 NA
ATOM      5  N   UNL     1       0.761  -2.960   0.000  0.00  0.00    +0.000 N 
ENDROOT
BRANCH   5   6
ATOM      6  C   UNL     1      -0.023  -2.705   0.000  0.00  0.00    +0.000 A 
ATOM      7  C   UNL     1      -0.195  -1.898   0.000  0.00  0.00    +0.000 A 
ATOM      8  C   UNL     1      -0.979  -1.643   0.000  0.00  0.00    +0.000 A 
ATOM      9  C   UNL     1      -1.592  -2.195   0.000  0.00  0.00    +0.000 A 
ATOM     10 CL   UNL     1      -2.377  -1.940   0.000  0.00  0.00    +0.000 Cl
ATOM     11  C   UNL     1      -1.421  -3.002   0.000  0.00  0.00    +0.000 A 
ATOM     12  C   UNL     1      -0.636  -3.257   0.000  0.00  0.00    +0.000 A 
ATOM     13 CL   UNL     1      -0.465  -4.064   0.000  0.00  0.00    +0.000 Cl
ENDBRANCH   5   6
BRANCH   1  17
ATOM     14  C   UNL     1       1.429   0.000   0.000  0.00  0.00    +0.000 A 
ATOM     15  C   UNL     1       2.143  -0.412   0.000  0.00  0.00    +0.000 A 
ATOM     16  C   UNL     1       2.143  -1.238   0.000  0.00  0.00    +0.000 A 
ATOM     17  C   UNL     1       1.429  -1.650   0.000  0.00  0.00    +0.000 A 
ATOM     18  C   UNL     1       0.715  -1.238   0.000  0.00  0.00    +0.000 A 
ATOM     19  C   UNL     1       0.715  -0.412   0.000  0.00  0.00    +0.000 A 
BRANCH  14  21
ATOM     20  C   UNL     1       0.715   1.238   0.000  0.00  0.00    +0.000 C 
ATOM     21  O   UNL     1       1.429   0.825   0.000  0.00  0.00    +0.000 OA
ENDBRANCH  14  21
ENDBRANCH   1  17
BRANCH   3  22
ATOM     22  C   UNL     1       2.326  -4.412   0.000  0.00  0.00    +0.000 C 
ATOM     23  O   UNL     1       1.991  -5.166   0.000  0.00  0.00    +0.000 OA
ATOM     24  N   UNL     1       3.147  -4.326   0.000  0.00  0.00    +0.000 NA
BRANCH  24  25
ATOM     25  N   UNL     1       3.632  -4.993   0.000  0.00  0.00    +0.000 NA
ATOM     26  C   UNL     1       4.452  -4.907   0.000  0.00  0.00    +0.000 C 
ATOM     27  C   UNL     1       4.937  -5.574   0.000  0.00  0.00    +0.000 C 
ATOM     28  C   UNL     1       4.602  -6.328   0.000  0.00  0.00    +0.000 C 
ATOM     29  C   UNL     1       3.781  -6.414   0.000  0.00  0.00    +0.000 C 
ATOM     30  C   UNL     1       3.296  -5.747   0.000  0.00  0.00    +0.000 C 
ENDBRANCH  24  25
ENDBRANCH   3  22
BRANCH   2  31
ATOM     31  C   UNL     1       2.881  -2.705   0.000  0.00  0.00    +0.000 C 
ATOM     32  N   UNL     1       3.666  -2.450   0.000  0.00  0.00    +0.000 NA
ENDBRANCH   2  31
TORSDOF 6
