REMARK  Name = 
REMARK  1 active torsions:
REMARK  status: ('A' for Active; 'I' for Inactive)
REMARK    1  A    between atoms: C_20  and  C_29
REMARK                            x       y       z     vdW  Elec       q    Type
REMARK                         _______ _______ _______ _____ _____    ______ ____
ROOT
ATOM      1  C   UNL     1      -0.964  -1.138   0.000  0.00  0.00    +0.000 A 
ATOM      2  C   UNL     1       0.629  -1.145   0.000  0.00  0.00    +0.000 A 
ATOM      3  C   UNL     1       1.218  -0.562   0.000  0.00  0.00    +0.000 A 
ATOM      4  C   UNL     1       1.433   0.234   0.000  0.00  0.00    +0.000 A 
ATOM      5  C   UNL     1       1.218   1.031   0.000  0.00  0.00    +0.000 C 
ATOM      6  N   UNL     1       0.636   1.620   0.000  0.00  0.00    +0.000 N 
ATOM      7  C   UNL     1      -0.161   1.834   0.000  0.00  0.00    +0.000 C 
ATOM      8  C   UNL     1      -0.957   1.620   0.000  0.00  0.00    +0.000 A 
ATOM      9  C   UNL     1      -1.546   1.038   0.000  0.00  0.00    +0.000 A 
ATOM     10  C   UNL     1      -1.761   0.241   0.000  0.00  0.00    +0.000 C 
ATOM     11  O   UNL     1      -1.546  -0.556   0.000  0.00  0.00    +0.000 OA
ATOM     12  O   UNL     1      -0.154   2.658   0.000  0.00  0.00    +0.000 OA
ATOM     13  C   UNL     1      -1.171   2.423   0.000  0.00  0.00    +0.000 A 
ATOM     14  C   UNL     1      -1.968   2.638   0.000  0.00  0.00    +0.000 A 
ATOM     15  C   UNL     1      -2.550   2.055   0.000  0.00  0.00    +0.000 A 
ATOM     16  C   UNL     1      -2.343   1.258   0.000  0.00  0.00    +0.000 A 
ATOM     17  F   UNL     1      -3.347   2.269   0.000  0.00  0.00    +0.000 F 
ATOM     18  C   UNL     1       1.051   2.330   0.000  0.00  0.00    +0.000 C 
ATOM     19  C   UNL     1      -2.584   0.248   0.000  0.00  0.00    +0.000 C 
ATOM     20  C   UNL     1       1.908  -1.018   0.000  0.00  0.00    +0.000 A 
ATOM     21  N   UNL     1       2.550  -0.495   0.000  0.00  0.00    +0.000 N 
ATOM     22  N   UNL     1       2.256   0.234   0.000  0.00  0.00    +0.000 NA
ATOM     23  C   UNL     1      -0.964  -2.042   0.000  0.00  0.00    +0.000 A 
ATOM     24  N   UNL     1      -0.181  -2.497   0.000  0.00  0.00    +0.000 NA
ATOM     25  C   UNL     1       0.596  -2.042   0.000  0.00  0.00    +0.000 A 
ATOM     26  C   UNL     1      -0.181  -0.690   0.000  0.00  0.00    +0.000 A 
ATOM     27  N   UNL     1      -1.747  -2.497   0.000  0.00  0.00    +0.000 NA
ATOM     28  C   UNL     1       3.347  -0.703   0.000  0.00  0.00    +0.000 C 
ENDROOT
BRANCH  20  29
ATOM     29  C   UNL     1       1.948  -1.834   0.000  0.00  0.00    +0.000 C 
ATOM     30  N   UNL     1       1.988  -2.658   0.000  0.00  0.00    +0.000 NA
ENDBRANCH  20  29
TORSDOF 1
