REMARK  Name = 
REMARK  0 active torsions:
REMARK  status: ('A' for Active; 'I' for Inactive)
REMARK                            x       y       z     vdW  Elec       q    Type
REMARK                         _______ _______ _______ _____ _____    ______ ____
ROOT
ATOM      1  C   UNL     1       1.503   0.678   0.000  0.00  0.00    +0.000 C 
ATOM      2  C   UNL     1       1.503  -0.130   0.000  0.00  0.00    +0.000 C 
ATOM      3  C   UNL     1       0.072  -0.130   0.000  0.00  0.00    +0.000 C 
ATOM      4  C   UNL     1       0.803  -0.527   0.000  0.00  0.00    +0.000 C 
ATOM      5  C   UNL     1      -0.643  -0.527   0.000  0.00  0.00    +0.000 C 
ATOM      6  C   UNL     1       2.289   0.935   0.000  0.00  0.00    +0.000 C 
ATOM      7  C   UNL     1       0.803   1.099   0.000  0.00  0.00    +0.000 C 
ATOM      8  C   UNL     1       0.072   0.678   0.000  0.00  0.00    +0.000 C 
ATOM      9  C   UNL     1       2.289  -0.387   0.000  0.00  0.00    +0.000 C 
ATOM     10  C   UNL     1       2.755   0.266   0.000  0.00  0.00    +0.000 C 
ATOM     11  C   UNL     1       0.803  -1.359   0.000  0.00  0.00    +0.000 C 
ATOM     12  C   UNL     1      -0.643  -1.359   0.000  0.00  0.00    +0.000 C 
ATOM     13  C   UNL     1       0.072  -1.771   0.000  0.00  0.00    +0.000 C 
ATOM     14  C   UNL     1      -0.643   0.282   0.000  0.00  0.00    +0.000 C 
ATOM     15  C   UNL     1      -1.351  -0.130   0.000  0.00  0.00    +0.000 C 
ATOM     16  C   UNL     1      -1.351  -1.771   0.000  0.00  0.00    +0.000 C 
ATOM     17  C   UNL     1      -2.075  -0.527   0.000  0.00  0.00    +0.000 C 
ATOM     18  C   UNL     1      -2.075  -1.359   0.000  0.00  0.00    +0.000 C 
ATOM     19  O   UNL     1      -2.755  -1.741   0.000  0.00  0.00    +0.000 OA
ATOM     20  O   UNL     1       2.548   1.771   0.000  0.00  0.00    +0.000 OA
ATOM     21  C   UNL     1       1.503   1.472   0.000  0.00  0.00    +0.000 C 
ENDROOT
TORSDOF 0
