REMARK  Name = 
REMARK  9 active torsions:
REMARK  status: ('A' for Active; 'I' for Inactive)
REMARK    1  A    between atoms: C_1  and  O_2
REMARK    2  A    between atoms: O_2  and  P_3
REMARK    3  A    between atoms: P_3  and  O_6
REMARK    4  A    between atoms: O_6  and  P_7
REMARK    5  A    between atoms: P_7  and  O_10
REMARK    6  A    between atoms: O_10  and  C_11
REMARK    7  A    between atoms: C_11  and  C_12
REMARK    8  A    between atoms: C_14  and  N_19
REMARK    9  A    between atoms: C_33  and  C_34
REMARK                            x       y       z     vdW  Elec       q    Type
REMARK                         _______ _______ _______ _____ _____    ______ ____
ROOT
ATOM      1  P   UNL     1      -0.104   0.526   0.000  0.00  0.00    +0.000 P 
ATOM      2  O   UNL     1       0.721   0.526   0.000  0.00  0.00    +0.000 OA
ATOM      3  O   UNL     1      -0.929   0.526   0.000  0.00  0.00    +0.000 OA
ENDROOT
BRANCH   1   4
ATOM      4  O   UNL     1      -0.104   1.351   0.000  0.00  0.00    +0.000 OA
BRANCH   4   5
ATOM      5  P   UNL     1      -0.819   1.763   0.000  0.00  0.00    +0.000 P 
ATOM      6  O   UNL     1      -0.406   2.478   0.000  0.00  0.00    +0.000 OA
ATOM      7  O   UNL     1      -1.231   1.049   0.000  0.00  0.00    +0.000 OA
BRANCH   5   8
ATOM      8  O   UNL     1      -1.533   2.176   0.000  0.00  0.00    +0.000 OA
BRANCH   8   9
ATOM      9  C   UNL     1      -1.533   3.001   0.000  0.00  0.00    +0.000 C 
ATOM     10  C   UNL     1      -2.248   3.413   0.000  0.00  0.00    +0.000 C 
ATOM     11  F   UNL     1      -2.962   3.001   0.000  0.00  0.00    +0.000 F 
ATOM     12  C   UNL     1      -2.248   4.238   0.000  0.00  0.00    +0.000 C 
ATOM     13  O   UNL     1      -2.962   4.651   0.000  0.00  0.00    +0.000 OA
ATOM     14  C   UNL     1      -1.533   4.651   0.000  0.00  0.00    +0.000 C 
ATOM     15  O   UNL     1      -1.533   5.476   0.000  0.00  0.00    +0.000 OA
ATOM     16  C   UNL     1      -0.819   4.238   0.000  0.00  0.00    +0.000 C 
ATOM     17  O   UNL     1      -0.819   3.413   0.000  0.00  0.00    +0.000 OA
BRANCH  16  18
ATOM     18  C   UNL     1      -0.104   4.651   0.000  0.00  0.00    +0.000 C 
ATOM     19  O   UNL     1       0.610   4.238   0.000  0.00  0.00    +0.000 OA
ENDBRANCH  16  18
ENDBRANCH   8   9
ENDBRANCH   5   8
ENDBRANCH   4   5
ENDBRANCH   1   4
BRANCH   1  20
ATOM     20  O   UNL     1      -0.104  -0.299   0.000  0.00  0.00    +0.000 OA
BRANCH  20  21
ATOM     21  C   UNL     1       0.610  -0.712   0.000  0.00  0.00    +0.000 C 
BRANCH  21  22
ATOM     22  C   UNL     1       0.610  -1.536   0.000  0.00  0.00    +0.000 C 
ATOM     23  O   UNL     1       1.278  -2.021   0.000  0.00  0.00    +0.000 OA
ATOM     24  C   UNL     1       1.022  -2.806   0.000  0.00  0.00    +0.000 C 
ATOM     25  C   UNL     1       0.198  -2.806   0.000  0.00  0.00    +0.000 C 
ATOM     26  C   UNL     1      -0.057  -2.021   0.000  0.00  0.00    +0.000 C 
ATOM     27  O   UNL     1      -0.842  -1.767   0.000  0.00  0.00    +0.000 OA
ATOM     28  O   UNL     1      -0.287  -3.474   0.000  0.00  0.00    +0.000 OA
BRANCH  24  29
ATOM     29  N   UNL     1       1.507  -3.474   0.000  0.00  0.00    +0.000 N 
ATOM     30  C   UNL     1       1.172  -4.227   0.000  0.00  0.00    +0.000 A 
ATOM     31  O   UNL     1       0.351  -4.314   0.000  0.00  0.00    +0.000 OA
ATOM     32  N   UNL     1       1.657  -4.895   0.000  0.00  0.00    +0.000 NA
ATOM     33  C   UNL     1       2.477  -4.808   0.000  0.00  0.00    +0.000 A 
ATOM     34  O   UNL     1       2.962  -5.476   0.000  0.00  0.00    +0.000 OA
ATOM     35  C   UNL     1       2.813  -4.055   0.000  0.00  0.00    +0.000 A 
ATOM     36  C   UNL     1       2.328  -3.387   0.000  0.00  0.00    +0.000 A 
ENDBRANCH  24  29
ENDBRANCH  21  22
ENDBRANCH  20  21
ENDBRANCH   1  20
TORSDOF 9
