REMARK  Name = 
REMARK  5 active torsions:
REMARK  status: ('A' for Active; 'I' for Inactive)
REMARK    1  A    between atoms: C_2  and  N_5
REMARK    2  A    between atoms: N_5  and  C_6
REMARK    3  A    between atoms: N_5  and  C_9
REMARK    4  A    between atoms: N_5  and  C_13
REMARK    5  A    between atoms: C_6  and  C_7
REMARK                            x       y       z     vdW  Elec       q    Type
REMARK                         _______ _______ _______ _____ _____    ______ ____
ROOT
ATOM      1  N   UNL     1       0.825   0.000   0.000  0.00  0.00    +0.000 N 
ENDROOT
BRANCH   1   3
ATOM      2  H   UNL     1       0.000  -0.825   0.000  0.00  0.00    +0.000 HD
ATOM      3  C   UNL     1       0.825  -0.825   0.000  0.00  0.00    +0.000 C 
ATOM      4  H   UNL     1       0.825  -1.650   0.000  0.00  0.00    +0.000 HD
ATOM      5  H   UNL     1       1.650  -0.825   0.000  0.00  0.00    +0.000 HD
ENDBRANCH   1   3
BRANCH   1   6
ATOM      6  C   UNL     1       1.650   0.000   0.000  0.00  0.00    +0.000 C 
ATOM      7  H   UNL     1       2.412  -0.316   0.000  0.00  0.00    +0.000 HD
ATOM      8  H   UNL     1       2.233   0.583   0.000  0.00  0.00    +0.000 HD
ATOM      9  H   UNL     1       1.334   0.762   0.000  0.00  0.00    +0.000 HD
ENDBRANCH   1   6
BRANCH   1  10
ATOM     10  C   UNL     1       0.000   0.000   0.000  0.00  0.00    +0.000 C 
ATOM     11  H   UNL     1       0.316   0.762   0.000  0.00  0.00    +0.000 HD
ATOM     12  H   UNL     1      -0.583   0.583   0.000  0.00  0.00    +0.000 HD
ATOM     13  H   UNL     1      -0.762  -0.316   0.000  0.00  0.00    +0.000 HD
ENDBRANCH   1  10
BRANCH   1  14
ATOM     14  C   UNL     1       0.825   0.825   0.000  0.00  0.00    +0.000 C 
BRANCH  14  15
ATOM     15  C   UNL     1       1.540   1.238   0.000  0.00  0.00    +0.000 C 
ATOM     16  O   UNL     1       1.540   2.062   0.000  0.00  0.00    +0.000 OA
ENDBRANCH  14  15
ENDBRANCH   1  14
TORSDOF 5
