REMARK  Name = 
REMARK  6 active torsions:
REMARK  status: ('A' for Active; 'I' for Inactive)
REMARK    1  A    between atoms: C_2  and  O_4
REMARK    2  A    between atoms: O_4  and  C_5
REMARK    3  A    between atoms: C_10  and  C_11
REMARK    4  A    between atoms: C_11  and  O_13
REMARK    5  A    between atoms: O_13  and  C_14
REMARK    6  A    between atoms: C_19  and  O_20
REMARK                            x       y       z     vdW  Elec       q    Type
REMARK                         _______ _______ _______ _____ _____    ______ ____
ROOT
ATOM      1  C   UNL     1      -1.429  -2.475   0.000  0.00  0.00    +0.000 C 
ATOM      2  O   UNL     1      -2.143  -2.888   0.000  0.00  0.00    +0.000 OA
ENDROOT
BRANCH   1   8
ATOM      3  C   UNL     1       0.000  -2.475   0.000  0.00  0.00    +0.000 A 
ATOM      4  C   UNL     1       0.715  -2.888   0.000  0.00  0.00    +0.000 A 
ATOM      5  C   UNL     1       0.715  -3.712   0.000  0.00  0.00    +0.000 A 
ATOM      6  C   UNL     1       0.000  -4.125   0.000  0.00  0.00    +0.000 A 
ATOM      7  C   UNL     1      -0.715  -3.712   0.000  0.00  0.00    +0.000 A 
ATOM      8  C   UNL     1      -0.715  -2.888   0.000  0.00  0.00    +0.000 A 
BRANCH   3   9
ATOM      9  O   UNL     1       0.000  -1.650   0.000  0.00  0.00    +0.000 OA
BRANCH   9  11
ATOM     10  C   UNL     1       0.715  -0.412   0.000  0.00  0.00    +0.000 C 
ATOM     11  C   UNL     1       0.715  -1.238   0.000  0.00  0.00    +0.000 C 
ATOM     12  O   UNL     1       1.429  -1.650   0.000  0.00  0.00    +0.000 OA
ENDBRANCH   9  11
ENDBRANCH   3   9
ENDBRANCH   1   8
BRANCH   1  13
ATOM     13  O   UNL     1      -1.429  -1.650   0.000  0.00  0.00    +0.000 OA
BRANCH  13  14
ATOM     14  C   UNL     1      -2.143  -1.238   0.000  0.00  0.00    +0.000 A 
ATOM     15  C   UNL     1      -2.858  -1.650   0.000  0.00  0.00    +0.000 A 
ATOM     16  C   UNL     1      -3.572  -1.238   0.000  0.00  0.00    +0.000 A 
ATOM     17  C   UNL     1      -3.572  -0.412   0.000  0.00  0.00    +0.000 A 
ATOM     18  C   UNL     1      -2.858   0.000   0.000  0.00  0.00    +0.000 A 
ATOM     19  C   UNL     1      -2.143  -0.412   0.000  0.00  0.00    +0.000 A 
BRANCH  19  20
ATOM     20  O   UNL     1      -1.429   0.000   0.000  0.00  0.00    +0.000 OA
ATOM     21  C   UNL     1      -0.715  -0.412   0.000  0.00  0.00    +0.000 C 
ENDBRANCH  19  20
ENDBRANCH  13  14
ENDBRANCH   1  13
TORSDOF 6
