REMARK  Name = 
REMARK  11 active torsions:
REMARK  status: ('A' for Active; 'I' for Inactive)
REMARK    1  A    between atoms: C_1  and  C_22
REMARK    2  A    between atoms: C_2  and  C_14
REMARK    3  A    between atoms: C_5  and  C_14
REMARK    4  A    between atoms: C_9  and  C_11
REMARK    5  A    between atoms: C_10  and  O_46
REMARK    6  A    between atoms: C_12  and  C_18
REMARK    7  A    between atoms: C_17  and  O_32
REMARK    8  A    between atoms: C_22  and  C_30
REMARK    9  A    between atoms: C_23  and  C_28
REMARK   10  A    between atoms: C_31  and  O_32
REMARK   11  A    between atoms: C_42  and  O_55
REMARK                            x       y       z     vdW  Elec       q    Type
REMARK                         _______ _______ _______ _____ _____    ______ ____
ROOT
ATOM      1  C   UNL     1      -1.869   1.369   0.000  0.00  0.00    +0.000 C 
ATOM      2  O   UNL     1      -1.202   1.848   0.000  0.00  0.00    +0.000 OA
ATOM      3  C   UNL     1      -0.539   1.369   0.000  0.00  0.00    +0.000 C 
ATOM      4  C   UNL     1      -1.615   0.581   0.000  0.00  0.00    +0.000 C 
ATOM      5  C   UNL     1      -0.789   0.581   0.000  0.00  0.00    +0.000 C 
ATOM      6  C   UNL     1      -2.281   0.648   0.000  0.00  0.00    +0.000 C 
ENDROOT
BRANCH   3  12
ATOM      7  C   UNL     1       1.619   1.369   0.000  0.00  0.00    +0.000 C 
ATOM      8  C   UNL     1       3.044   1.356   0.000  0.00  0.00    +0.000 C 
ATOM      9  O   UNL     1       2.335   1.769   0.000  0.00  0.00    +0.000 OA
ATOM     10  O   UNL     1       0.956   1.856   0.000  0.00  0.00    +0.000 OA
ATOM     11  C   UNL     1       3.035   0.531   0.000  0.00  0.00    +0.000 C 
ATOM     12  C   UNL     1       0.285   1.369   0.000  0.00  0.00    +0.000 C 
ATOM     13  C   UNL     1       1.619   0.544   0.000  0.00  0.00    +0.000 C 
ATOM     14  C   UNL     1       2.331   0.123   0.000  0.00  0.00    +0.000 C 
ATOM     15  C   UNL     1       0.544   0.581   0.000  0.00  0.00    +0.000 C 
ATOM     16  C   UNL     1       1.369   0.581   0.000  0.00  0.00    +0.000 C 
ATOM     17  O   UNL     1       2.323  -0.694   0.000  0.00  0.00    +0.000 OA
ATOM     18  C   UNL     1       3.756   0.944   0.000  0.00  0.00    +0.000 C 
ATOM     19  C   UNL     1      -0.119   0.648   0.000  0.00  0.00    +0.000 C 
BRANCH   8  20
ATOM     20  C   UNL     1       3.756   1.769   0.000  0.00  0.00    +0.000 C 
ATOM     21  C   UNL     1       3.769   2.594   0.000  0.00  0.00    +0.000 C 
BRANCH  20  23
ATOM     22  C   UNL     1       5.886   1.356   0.000  0.00  0.00    +0.000 C 
ATOM     23  C   UNL     1       4.469   1.356   0.000  0.00  0.00    +0.000 C 
ATOM     24  O   UNL     1       5.181   1.769   0.000  0.00  0.00    +0.000 OA
ATOM     25  C   UNL     1       5.886   0.531   0.000  0.00  0.00    +0.000 C 
ATOM     26  C   UNL     1       4.469   0.531   0.000  0.00  0.00    +0.000 C 
ATOM     27  C   UNL     1       5.181   0.119   0.000  0.00  0.00    +0.000 C 
ATOM     28  O   UNL     1       5.894   2.181   0.000  0.00  0.00    +0.000 OA
ATOM     29  O   UNL     1       5.181  -0.706   0.000  0.00  0.00    +0.000 OA
ATOM     30  C   UNL     1       6.606   0.119   0.000  0.00  0.00    +0.000 C 
BRANCH  26  31
ATOM     31  O   UNL     1       3.756   0.119   0.000  0.00  0.00    +0.000 OA
ATOM     32  C   UNL     1       3.769  -0.706   0.000  0.00  0.00    +0.000 C 
ENDBRANCH  26  31
BRANCH  22  33
ATOM     33  C   UNL     1       6.606   1.769   0.000  0.00  0.00    +0.000 C 
BRANCH  33  34
ATOM     34  C   UNL     1       6.606   2.594   0.000  0.00  0.00    +0.000 C 
ATOM     35  O   UNL     1       7.319   3.006   0.000  0.00  0.00    +0.000 OA
ATOM     36  O   UNL     1       5.886   3.006   0.000  0.00  0.00    +0.000 OA
ENDBRANCH  33  34
ENDBRANCH  22  33
ENDBRANCH  20  23
ENDBRANCH   8  20
ENDBRANCH   3  12
BRANCH   1  38
ATOM     37  O   UNL     1      -3.356   1.848   0.000  0.00  0.00    +0.000 OA
ATOM     38  C   UNL     1      -2.694   1.360   0.000  0.00  0.00    +0.000 C 
ATOM     39  C   UNL     1      -4.027   1.360   0.000  0.00  0.00    +0.000 C 
ATOM     40  C   UNL     1      -2.944   0.581   0.000  0.00  0.00    +0.000 C 
ATOM     41  C   UNL     1      -3.769   0.581   0.000  0.00  0.00    +0.000 C 
BRANCH  39  44
ATOM     42  O   UNL     1      -5.256   2.073   0.000  0.00  0.00    +0.000 OA
ATOM     43  C   UNL     1      -6.081   2.073   0.000  0.00  0.00    +0.000 C 
ATOM     44  C   UNL     1      -4.852   1.360   0.000  0.00  0.00    +0.000 C 
ATOM     45  C   UNL     1      -5.256   0.648   0.000  0.00  0.00    +0.000 C 
ATOM     46  C   UNL     1      -6.494   1.360   0.000  0.00  0.00    +0.000 C 
ATOM     47  C   UNL     1      -6.081   0.648   0.000  0.00  0.00    +0.000 C 
ATOM     48  O   UNL     1      -6.077   2.898   0.000  0.00  0.00    +0.000 OA
ATOM     49  C   UNL     1      -6.794   2.486   0.000  0.00  0.00    +0.000 C 
ATOM     50  C   UNL     1      -4.844  -0.069   0.000  0.00  0.00    +0.000 C 
ATOM     51  C   UNL     1      -7.319   1.369   0.000  0.00  0.00    +0.000 C 
ENDBRANCH  39  44
BRANCH  40  52
ATOM     52  O   UNL     1      -2.527  -0.144   0.000  0.00  0.00    +0.000 OA
BRANCH  52  54
ATOM     53  O   UNL     1      -3.756  -0.865   0.000  0.00  0.00    +0.000 OA
ATOM     54  C   UNL     1      -2.931  -0.856   0.000  0.00  0.00    +0.000 C 
ATOM     55  C   UNL     1      -4.169  -1.577   0.000  0.00  0.00    +0.000 C 
ATOM     56  C   UNL     1      -3.756  -2.289   0.000  0.00  0.00    +0.000 C 
ATOM     57  C   UNL     1      -2.931  -2.289   0.000  0.00  0.00    +0.000 C 
ATOM     58  C   UNL     1      -2.519  -1.569   0.000  0.00  0.00    +0.000 C 
ATOM     59  C   UNL     1      -4.994  -1.577   0.000  0.00  0.00    +0.000 C 
BRANCH  56  60
ATOM     60  O   UNL     1      -4.169  -3.006   0.000  0.00  0.00    +0.000 OA
ATOM     61  C   UNL     1      -4.994  -3.006   0.000  0.00  0.00    +0.000 C 
ENDBRANCH  56  60
ENDBRANCH  52  54
ENDBRANCH  40  52
ENDBRANCH   1  38
TORSDOF 11
