REMARK  Name = 
REMARK  11 active torsions:
REMARK  status: ('A' for Active; 'I' for Inactive)
REMARK    1  A    between atoms: C_1  and  C_2
REMARK    2  A    between atoms: C_1  and  C_3
REMARK    3  A    between atoms: C_1  and  N_4
REMARK    4  A    between atoms: C_5  and  O_29
REMARK    5  A    between atoms: C_9  and  C_20
REMARK    6  A    between atoms: C_10  and  C_14
REMARK    7  A    between atoms: C_11  and  C_28
REMARK    8  A    between atoms: C_18  and  N_35
REMARK    9  A    between atoms: C_20  and  O_21
REMARK   10  A    between atoms: O_21  and  C_22
REMARK   11  A    between atoms: C_28  and  O_29
REMARK                            x       y       z     vdW  Elec       q    Type
REMARK                         _______ _______ _______ _____ _____    ______ ____
ROOT
ATOM      1  C   UNL     1      -2.199   2.276   0.000  0.00  0.00    +0.000 C 
ATOM      2  C   UNL     1      -2.199   1.451   0.000  0.00  0.00    +0.000 C 
ATOM      3  C   UNL     1      -1.483   1.038   0.000  0.00  0.00    +0.000 C 
ATOM      4  C   UNL     1      -0.771   1.451   0.000  0.00  0.00    +0.000 C 
ATOM      5  C   UNL     1      -0.771   2.276   0.000  0.00  0.00    +0.000 C 
ATOM      6  N   UNL     1      -1.483   2.688   0.000  0.00  0.00    +0.000 NA
ATOM      7  C   UNL     1      -2.913   2.689   0.000  0.00  0.00    +0.000 C 
ATOM      8  N   UNL     1      -0.056   2.688   0.000  0.00  0.00    +0.000 NA
ENDROOT
BRANCH   3   9
ATOM      9  C   UNL     1      -1.482   0.213   0.000  0.00  0.00    +0.000 A 
ATOM     10  C   UNL     1      -2.192  -0.197   0.000  0.00  0.00    +0.000 A 
ATOM     11  C   UNL     1      -2.191  -1.022   0.000  0.00  0.00    +0.000 A 
ATOM     12  C   UNL     1      -1.476  -1.434   0.000  0.00  0.00    +0.000 A 
ATOM     13  C   UNL     1      -0.762  -1.020   0.000  0.00  0.00    +0.000 A 
ATOM     14  C   UNL     1      -0.763  -0.195   0.000  0.00  0.00    +0.000 A 
BRANCH  13  15
ATOM     15  N   UNL     1      -0.047  -1.432   0.000  0.00  0.00    +0.000 N 
ATOM     16  O   UNL     1      -0.046  -2.257   0.000  0.00  0.00    +0.000 OA
ATOM     17  O   UNL     1       0.873  -0.771   0.000  0.00  0.00    +0.000 OA
ENDBRANCH  13  15
ENDBRANCH   3   9
BRANCH   2  18
ATOM     18  C   UNL     1      -2.912   1.038   0.000  0.00  0.00    +0.000 C 
ATOM     19  O   UNL     1      -2.912   0.213   0.000  0.00  0.00    +0.000 OA
BRANCH  18  20
ATOM     20  O   UNL     1      -3.624   1.451   0.000  0.00  0.00    +0.000 OA
BRANCH  20  21
ATOM     21  C   UNL     1      -4.337   1.038   0.000  0.00  0.00    +0.000 C 
ATOM     22  C   UNL     1      -5.049   1.451   0.000  0.00  0.00    +0.000 C 
ATOM     23  C   UNL     1      -4.337   0.213   0.000  0.00  0.00    +0.000 C 
ENDBRANCH  20  21
ENDBRANCH  18  20
ENDBRANCH   2  18
BRANCH   4  24
ATOM     24  C   UNL     1      -0.062   1.043   0.000  0.00  0.00    +0.000 C 
ATOM     25  O   UNL     1      -0.061   0.217   0.000  0.00  0.00    +0.000 OA
BRANCH  24  26
ATOM     26  O   UNL     1       0.651   1.455   0.000  0.00  0.00    +0.000 OA
BRANCH  26  28
ATOM     27  N   UNL     1       2.192   0.217   0.000  0.00  0.00    +0.000 NA
ATOM     28  C   UNL     1       1.367   1.043   0.000  0.00  0.00    +0.000 C 
ATOM     29  C   UNL     1       1.367   0.217   0.000  0.00  0.00    +0.000 C 
ATOM     30  C   UNL     1       2.192   1.043   0.000  0.00  0.00    +0.000 C 
BRANCH  27  31
ATOM     31  C   UNL     1       2.905  -0.199   0.000  0.00  0.00    +0.000 C 
BRANCH  31  32
ATOM     32  C   UNL     1       2.900  -1.023   0.000  0.00  0.00    +0.000 A 
ATOM     33  C   UNL     1       2.173  -1.439   0.000  0.00  0.00    +0.000 A 
ATOM     34  C   UNL     1       2.169  -2.270   0.000  0.00  0.00    +0.000 A 
ATOM     35  C   UNL     1       2.886  -2.689   0.000  0.00  0.00    +0.000 A 
ATOM     36  C   UNL     1       3.614  -2.273   0.000  0.00  0.00    +0.000 A 
ATOM     37  C   UNL     1       3.618  -1.442   0.000  0.00  0.00    +0.000 A 
ENDBRANCH  31  32
BRANCH  31  38
ATOM     38  C   UNL     1       3.621   0.210   0.000  0.00  0.00    +0.000 A 
ATOM     39  C   UNL     1       4.328  -0.208   0.000  0.00  0.00    +0.000 A 
ATOM     40  C   UNL     1       5.045   0.201   0.000  0.00  0.00    +0.000 A 
ATOM     41  C   UNL     1       5.049   1.026   0.000  0.00  0.00    +0.000 A 
ATOM     42  C   UNL     1       4.337   1.442   0.000  0.00  0.00    +0.000 A 
ATOM     43  C   UNL     1       3.620   1.033   0.000  0.00  0.00    +0.000 A 
ENDBRANCH  31  38
ENDBRANCH  27  31
ENDBRANCH  26  28
ENDBRANCH  24  26
ENDBRANCH   4  24
TORSDOF 11
