REMARK  Name = 
REMARK  2 active torsions:
REMARK  status: ('A' for Active; 'I' for Inactive)
REMARK    1  A    between atoms: C_10  and  C_19
REMARK    2  A    between atoms: C_19  and  C_24
REMARK                            x       y       z     vdW  Elec       q    Type
REMARK                         _______ _______ _______ _____ _____    ______ ____
ROOT
ATOM      1  C   UNL     1       0.269  -0.533   0.000  0.00  0.00    +0.000 C 
ATOM      2  C   UNL     1       1.023  -0.125   0.000  0.00  0.00    +0.000 C 
ATOM      3  C   UNL     1      -0.442  -0.114   0.000  0.00  0.00    +0.000 C 
ATOM      4  C   UNL     1       0.269  -1.357   0.000  0.00  0.00    +0.000 C 
ATOM      5  C   UNL     1       1.034   0.695   0.000  0.00  0.00    +0.000 C 
ATOM      6  C   UNL     1       2.403  -0.100   0.000  0.00  0.00    +0.000 C 
ATOM      7  C   UNL     1      -1.157  -0.526   0.000  0.00  0.00    +0.000 C 
ATOM      8  C   UNL     1      -0.477   0.706   0.000  0.00  0.00    +0.000 C 
ATOM      9  C   UNL     1      -0.449  -1.766   0.000  0.00  0.00    +0.000 C 
ATOM     10  C   UNL     1       1.706   1.097   0.000  0.00  0.00    +0.000 C 
ATOM     11  C   UNL     1       0.283   1.115   0.000  0.00  0.00    +0.000 C 
ATOM     12  C   UNL     1       1.047   1.516   0.000  0.00  0.00    +0.000 C 
ATOM     13  C   UNL     1       2.371   0.678   0.000  0.00  0.00    +0.000 C 
ATOM     14  C   UNL     1      -1.160  -1.350   0.000  0.00  0.00    +0.000 C 
ATOM     15  C   UNL     1      -1.871  -0.111   0.000  0.00  0.00    +0.000 C 
ATOM     16  C   UNL     1      -1.202   0.266   0.000  0.00  0.00    +0.000 C 
ATOM     17  O   UNL     1      -1.146   1.125   0.000  0.00  0.00    +0.000 OA
ATOM     18  F   UNL     1      -0.452  -2.597   0.000  0.00  0.00    +0.000 F 
ATOM     19  O   UNL     1       2.385   1.600   0.000  0.00  0.00    +0.000 OA
ATOM     20  C   UNL     1       3.301   0.889   0.000  0.00  0.00    +0.000 C 
ATOM     21  C   UNL     1      -1.871  -1.762   0.000  0.00  0.00    +0.000 C 
ATOM     22  C   UNL     1      -2.590  -0.526   0.000  0.00  0.00    +0.000 C 
ATOM     23  C   UNL     1      -2.590  -1.350   0.000  0.00  0.00    +0.000 C 
ATOM     24  O   UNL     1      -3.301  -1.762   0.000  0.00  0.00    +0.000 OA
ENDROOT
BRANCH  10  25
ATOM     25  C   UNL     1       1.716   2.178   0.000  0.00  0.00    +0.000 C 
ATOM     26  O   UNL     1       1.005   2.597   0.000  0.00  0.00    +0.000 OA
BRANCH  25  27
ATOM     27  C   UNL     1       2.438   2.579   0.000  0.00  0.00    +0.000 C 
ATOM     28  O   UNL     1       3.146   2.160   0.000  0.00  0.00    +0.000 OA
ENDBRANCH  25  27
ENDBRANCH  10  25
TORSDOF 2
