REMARK  Name = 
REMARK  5 active torsions:
REMARK  status: ('A' for Active; 'I' for Inactive)
REMARK    1  A    between atoms: C_2  and  C_3
REMARK    2  A    between atoms: C_3  and  C_4
REMARK    3  A    between atoms: C_4  and  C_5
REMARK    4  A    between atoms: C_5  and  C_7
REMARK    5  A    between atoms: C_5  and  N_9
REMARK                            x       y       z     vdW  Elec       q    Type
REMARK                         _______ _______ _______ _____ _____    ______ ____
ROOT
ATOM      1  N   UNL     1       0.000   0.825   0.000  0.00  0.00    +0.000 NA
ATOM      2  C   UNL     1       0.000   0.000   0.000  0.00  0.00    +0.000 A 
ATOM      3  N   UNL     1      -0.715  -0.412   0.000  0.00  0.00    +0.000 NA
ATOM      4  C   UNL     1      -0.715  -1.238   0.000  0.00  0.00    +0.000 A 
ATOM      5  N   UNL     1      -1.429  -1.650   0.000  0.00  0.00    +0.000 NA
ATOM      6  N   UNL     1       0.000  -1.650   0.000  0.00  0.00    +0.000 NA
ATOM      7  C   UNL     1       0.715  -1.238   0.000  0.00  0.00    +0.000 A 
ATOM      8  C   UNL     1       0.715  -0.412   0.000  0.00  0.00    +0.000 A 
ATOM      9  N   UNL     1       1.429   0.000   0.000  0.00  0.00    +0.000 NA
ATOM     10  C   UNL     1       2.143  -0.412   0.000  0.00  0.00    +0.000 A 
ATOM     11  C   UNL     1       2.143  -1.238   0.000  0.00  0.00    +0.000 A 
ATOM     12  F   UNL     1       2.858  -1.650   0.000  0.00  0.00    +0.000 F 
ATOM     13  C   UNL     1       1.429  -1.650   0.000  0.00  0.00    +0.000 A 
ENDROOT
BRANCH   1  14
ATOM     14  C   UNL     1      -0.715   1.238   0.000  0.00  0.00    +0.000 C 
ATOM     15  C   UNL     1      -1.127   0.523   0.000  0.00  0.00    +0.000 C 
BRANCH  14  16
ATOM     16  C   UNL     1      -0.302   1.952   0.000  0.00  0.00    +0.000 C 
ATOM     17  O   UNL     1       0.523   1.952   0.000  0.00  0.00    +0.000 OA
ENDBRANCH  14  16
BRANCH  14  18
ATOM     18  C   UNL     1      -1.429   1.650   0.000  0.00  0.00    +0.000 C 
BRANCH  18  19
ATOM     19  C   UNL     1      -1.429   2.475   0.000  0.00  0.00    +0.000 C 
BRANCH  19  21
ATOM     20  C   UNL     1      -2.143   3.712   0.000  0.00  0.00    +0.000 C 
ATOM     21  C   UNL     1      -2.143   2.888   0.000  0.00  0.00    +0.000 C 
ENDBRANCH  19  21
ENDBRANCH  18  19
ENDBRANCH  14  18
ENDBRANCH   1  14
TORSDOF 5
