REMARK  Name = 
REMARK  6 active torsions:
REMARK  status: ('A' for Active; 'I' for Inactive)
REMARK    1  A    between atoms: C_2  and  C_3
REMARK    2  A    between atoms: N_4  and  C_5
REMARK    3  A    between atoms: N_13  and  C_14
REMARK    4  A    between atoms: C_17  and  C_22
REMARK    5  A    between atoms: C_19  and  O_20
REMARK    6  A    between atoms: N_24  and  C_25
REMARK                            x       y       z     vdW  Elec       q    Type
REMARK                         _______ _______ _______ _____ _____    ______ ____
ROOT
ATOM      1  C   UNL     1       0.715  -0.412   0.000  0.00  0.00    +0.000 C 
ATOM      2  N   UNL     1       1.429   0.000   0.000  0.00  0.00    +0.000 N 
ATOM      3  C   UNL     1       2.143  -0.412   0.000  0.00  0.00    +0.000 A 
ATOM      4  N   UNL     1       2.858   0.000   0.000  0.00  0.00    +0.000 NA
ATOM      5  C   UNL     1       3.572  -0.412   0.000  0.00  0.00    +0.000 A 
ATOM      6  N   UNL     1       4.287   0.000   0.000  0.00  0.00    +0.000 NA
ATOM      7  N   UNL     1       3.572  -1.238   0.000  0.00  0.00    +0.000 NA
ATOM      8  C   UNL     1       2.858  -1.650   0.000  0.00  0.00    +0.000 A 
ATOM      9  C   UNL     1       2.143  -1.238   0.000  0.00  0.00    +0.000 A 
ATOM     10  N   UNL     1       1.429  -1.650   0.000  0.00  0.00    +0.000 N 
ATOM     11  C   UNL     1       1.429  -2.475   0.000  0.00  0.00    +0.000 C 
ATOM     12  C   UNL     1       0.715  -1.238   0.000  0.00  0.00    +0.000 C 
ATOM     13  O   UNL     1       0.000  -1.650   0.000  0.00  0.00    +0.000 OA
ENDROOT
BRANCH   6  14
ATOM     14  C   UNL     1       5.001  -0.412   0.000  0.00  0.00    +0.000 A 
ATOM     15  C   UNL     1       5.716   0.000   0.000  0.00  0.00    +0.000 A 
ATOM     16  C   UNL     1       6.430  -0.412   0.000  0.00  0.00    +0.000 A 
ATOM     17  C   UNL     1       6.430  -1.238   0.000  0.00  0.00    +0.000 A 
ATOM     18  C   UNL     1       5.716  -1.650   0.000  0.00  0.00    +0.000 A 
ATOM     19  C   UNL     1       5.001  -1.238   0.000  0.00  0.00    +0.000 A 
BRANCH  17  20
ATOM     20  C   UNL     1       7.145  -1.650   0.000  0.00  0.00    +0.000 C 
ATOM     21  O   UNL     1       7.145  -2.475   0.000  0.00  0.00    +0.000 OA
ATOM     22  N   UNL     1       7.859  -1.238   0.000  0.00  0.00    +0.000 NA
BRANCH  22  23
ATOM     23  C   UNL     1       8.574  -1.650   0.000  0.00  0.00    +0.000 C 
ATOM     24  C   UNL     1       9.288  -1.238   0.000  0.00  0.00    +0.000 C 
ATOM     25  C   UNL     1      10.003  -1.650   0.000  0.00  0.00    +0.000 C 
ATOM     26  N   UNL     1      10.003  -2.475   0.000  0.00  0.00    +0.000 NA
ATOM     27  C   UNL     1      10.717  -2.888   0.000  0.00  0.00    +0.000 C 
ATOM     28  C   UNL     1       9.288  -2.888   0.000  0.00  0.00    +0.000 C 
ATOM     29  C   UNL     1       8.574  -2.475   0.000  0.00  0.00    +0.000 C 
ENDBRANCH  22  23
ENDBRANCH  17  20
BRANCH  19  30
ATOM     30  O   UNL     1       4.287  -1.650   0.000  0.00  0.00    +0.000 OA
ATOM     31  C   UNL     1       4.287  -2.475   0.000  0.00  0.00    +0.000 C 
ENDBRANCH  19  30
ENDBRANCH   6  14
BRANCH   2  32
ATOM     32  C   UNL     1       1.429   0.825   0.000  0.00  0.00    +0.000 C 
ATOM     33  C   UNL     1       0.761   1.310   0.000  0.00  0.00    +0.000 C 
ATOM     34  C   UNL     1       1.016   2.095   0.000  0.00  0.00    +0.000 C 
ATOM     35  C   UNL     1       1.841   2.095   0.000  0.00  0.00    +0.000 C 
ATOM     36  C   UNL     1       2.096   1.310   0.000  0.00  0.00    +0.000 C 
ENDBRANCH   2  32
BRANCH   1  38
ATOM     37  C   UNL     1      -0.715  -0.412   0.000  0.00  0.00    +0.000 C 
ATOM     38  C   UNL     1       0.000   0.000   0.000  0.00  0.00    +0.000 C 
ENDBRANCH   1  38
TORSDOF 6
