REMARK  Name = 
REMARK  4 active torsions:
REMARK  status: ('A' for Active; 'I' for Inactive)
REMARK    1  A    between atoms: C_1  and  C_2
REMARK    2  A    between atoms: C_2  and  C_5
REMARK    3  A    between atoms: C_5  and  C_11
REMARK    4  A    between atoms: C_11  and  C_13
REMARK                            x       y       z     vdW  Elec       q    Type
REMARK                         _______ _______ _______ _____ _____    ______ ____
ROOT
ATOM      1  C   UNL     1      -0.349  -1.027   0.000  0.00  0.00    +0.000 C 
ATOM      2  O   UNL     1      -0.345  -1.853   0.000  0.00  0.00    +0.000 OA
ENDROOT
BRANCH   1   3
ATOM      3  C   UNL     1      -1.061  -0.618   0.000  0.00  0.00    +0.000 A 
ATOM      4  C   UNL     1      -1.785  -1.038   0.000  0.00  0.00    +0.000 A 
ATOM      5  C   UNL     1      -1.061   0.216   0.000  0.00  0.00    +0.000 A 
ATOM      6  C   UNL     1      -2.498  -0.618   0.000  0.00  0.00    +0.000 A 
ATOM      7  O   UNL     1      -1.789  -1.865   0.000  0.00  0.00    +0.000 OA
ATOM      8  C   UNL     1      -1.785   0.629   0.000  0.00  0.00    +0.000 A 
ATOM      9  O   UNL     1      -0.349   0.629   0.000  0.00  0.00    +0.000 OA
ATOM     10  C   UNL     1      -2.498   0.216   0.000  0.00  0.00    +0.000 A 
ATOM     11  O   UNL     1      -3.214   0.629   0.000  0.00  0.00    +0.000 OA
ENDBRANCH   1   3
BRANCH   1  12
ATOM     12  C   UNL     1       0.364  -0.614   0.000  0.00  0.00    +0.000 C 
BRANCH  12  13
ATOM     13  C   UNL     1       0.364   0.208   0.000  0.00  0.00    +0.000 C 
BRANCH  13  14
ATOM     14  C   UNL     1       1.076   0.621   0.000  0.00  0.00    +0.000 A 
ATOM     15  C   UNL     1       1.792   0.212   0.000  0.00  0.00    +0.000 A 
ATOM     16  C   UNL     1       1.076   1.440   0.000  0.00  0.00    +0.000 A 
ATOM     17  C   UNL     1       2.509   0.621   0.000  0.00  0.00    +0.000 A 
ATOM     18  C   UNL     1       1.785   1.861   0.000  0.00  0.00    +0.000 A 
ATOM     19  C   UNL     1       2.501   1.448   0.000  0.00  0.00    +0.000 A 
ATOM     20  O   UNL     1       3.214   1.865   0.000  0.00  0.00    +0.000 OA
ENDBRANCH  13  14
ENDBRANCH  12  13
ENDBRANCH   1  12
TORSDOF 4
