REMARK  Name = 
REMARK  4 active torsions:
REMARK  status: ('A' for Active; 'I' for Inactive)
REMARK    1  A    between atoms: C_2  and  C_5
REMARK    2  A    between atoms: C_4  and  C_5
REMARK    3  A    between atoms: C_5  and  O_6
REMARK    4  A    between atoms: O_6  and  P_9
REMARK                            x       y       z     vdW  Elec       q    Type
REMARK                         _______ _______ _______ _____ _____    ______ ____
ROOT
ATOM      1  C   UNL     1       0.000  -0.825   0.000  0.00  0.00    +0.000 C 
ENDROOT
BRANCH   1   3
ATOM      2  O   UNL     1       1.429  -0.825   0.000  0.00  0.00    +0.000 OA
ATOM      3  C   UNL     1       0.715  -1.238   0.000  0.00  0.00    +0.000 C 
ENDBRANCH   1   3
BRANCH   1   5
ATOM      4  O   UNL     1      -1.429  -0.825   0.000  0.00  0.00    +0.000 OA
ATOM      5  C   UNL     1      -0.715  -1.238   0.000  0.00  0.00    +0.000 C 
ENDBRANCH   1   5
BRANCH   1   6
ATOM      6  O   UNL     1       0.000   0.000   0.000  0.00  0.00    +0.000 OA
BRANCH   6   9
ATOM      7  O   UNL     1       1.429   0.000   0.000  0.00  0.00    +0.000 OA
ATOM      8  O   UNL     1       0.715   1.238   0.000  0.00  0.00    +0.000 OA
ATOM      9  P   UNL     1       0.715   0.412   0.000  0.00  0.00    +0.000 P 
ATOM     10  O   UNL     1       0.715  -0.412   0.000  0.00  0.00    +0.000 OA
ENDBRANCH   6   9
ENDBRANCH   1   6
TORSDOF 4
