REMARK  Name = 
REMARK  6 active torsions:
REMARK  status: ('A' for Active; 'I' for Inactive)
REMARK    1  A    between atoms: C_2  and  N_3
REMARK    2  A    between atoms: N_3  and  C_4
REMARK    3  A    between atoms: N_3  and  C_6
REMARK    4  A    between atoms: C_6  and  C_7
REMARK    5  A    between atoms: C_7  and  C_8
REMARK    6  A    between atoms: C_8  and  C_16
REMARK                            x       y       z     vdW  Elec       q    Type
REMARK                         _______ _______ _______ _____ _____    ______ ____
ROOT
ATOM      1  C   UNL     1       0.951   0.237   0.000  0.00  0.00    +0.000 C 
ATOM      2  C   UNL     1       1.481   0.869   0.000  0.00  0.00    +0.000 C 
ATOM      3  C   UNL     1       2.294   0.726   0.000  0.00  0.00    +0.000 C 
ATOM      4  C   UNL     1       2.576  -0.050   0.000  0.00  0.00    +0.000 C 
ATOM      5  O   UNL     1       3.388  -0.193   0.000  0.00  0.00    +0.000 OA
ATOM      6  N   UNL     1       2.045  -0.682   0.000  0.00  0.00    +0.000 NA
ATOM      7  C   UNL     1       1.233  -0.538   0.000  0.00  0.00    +0.000 C 
ATOM      8  O   UNL     1       0.703  -1.171   0.000  0.00  0.00    +0.000 OA
ENDROOT
BRANCH   1   9
ATOM      9  C   UNL     1       0.420   0.869   0.000  0.00  0.00    +0.000 A 
ATOM     10  C   UNL     1      -0.392   0.726   0.000  0.00  0.00    +0.000 A 
ATOM     11  C   UNL     1      -0.922   1.357   0.000  0.00  0.00    +0.000 A 
ATOM     12  C   UNL     1      -0.640   2.133   0.000  0.00  0.00    +0.000 A 
ATOM     13  C   UNL     1       0.172   2.276   0.000  0.00  0.00    +0.000 A 
ATOM     14  C   UNL     1       0.703   1.644   0.000  0.00  0.00    +0.000 A 
ENDBRANCH   1   9
BRANCH   1  15
ATOM     15  C   UNL     1       0.236  -0.176   0.000  0.00  0.00    +0.000 C 
BRANCH  15  16
ATOM     16  C   UNL     1      -0.478   0.237   0.000  0.00  0.00    +0.000 C 
BRANCH  16  17
ATOM     17  N   UNL     1      -1.193  -0.176   0.000  0.00  0.00    +0.000 NA
BRANCH  17  18
ATOM     18  C   UNL     1      -1.193  -1.001   0.000  0.00  0.00    +0.000 C 
ATOM     19  C   UNL     1      -1.907  -1.413   0.000  0.00  0.00    +0.000 C 
ENDBRANCH  17  18
BRANCH  17  21
ATOM     20  C   UNL     1      -2.622  -0.176   0.000  0.00  0.00    +0.000 C 
ATOM     21  C   UNL     1      -1.907   0.237   0.000  0.00  0.00    +0.000 C 
ENDBRANCH  17  21
ENDBRANCH  16  17
ENDBRANCH  15  16
ENDBRANCH   1  15
TORSDOF 6
