REMARK  Name = 
REMARK  2 active torsions:
REMARK  status: ('A' for Active; 'I' for Inactive)
REMARK    1  A    between atoms: C1*_1  and  N_2
REMARK    2  A    between atoms: C4*_7  and  C5*_14
REMARK                            x       y       z     vdW  Elec       q    Type
REMARK                         _______ _______ _______ _____ _____    ______ ____
ROOT
ATOM      1  N   UNL     1      -0.000   0.520   0.000  0.00  0.00    +0.000 N 
ATOM      2  C   UNL     1       0.714   0.933   0.000  0.00  0.00    +0.000 A 
ATOM      3  C   UNL     1      -0.715   0.933   0.000  0.00  0.00    +0.000 A 
ATOM      4  N   UNL     1       0.714   1.758   0.000  0.00  0.00    +0.000 NA
ATOM      5  O   UNL     1       1.429   0.520   0.000  0.00  0.00    +0.000 OA
ATOM      6  C   UNL     1      -0.715   1.758   0.000  0.00  0.00    +0.000 A 
ATOM      7  C   UNL     1      -0.000   2.170   0.000  0.00  0.00    +0.000 A 
ATOM      8  O   UNL     1      -0.000   2.995   0.000  0.00  0.00    +0.000 OA
ATOM      9  I   UNL     1      -1.429   2.170   0.000  0.00  0.00    +0.000 I 
ENDROOT
BRANCH   1  10
ATOM     10  C1* UNL     1      -0.000  -0.305   0.000  0.00  0.00    +0.000 C 
ATOM     11  O4* UNL     1      -0.667  -0.790   0.000  0.00  0.00    +0.000 OA
ATOM     12  C2* UNL     1       0.667  -0.790   0.000  0.00  0.00    +0.000 C 
ATOM     13  C4* UNL     1      -0.413  -1.574   0.000  0.00  0.00    +0.000 C 
ATOM     14  C3* UNL     1       0.412  -1.574   0.000  0.00  0.00    +0.000 C 
ATOM     15  O3* UNL     1       0.897  -2.242   0.000  0.00  0.00    +0.000 OA
BRANCH  13  16
ATOM     16  C5* UNL     1      -0.897  -2.242   0.000  0.00  0.00    +0.000 C 
ATOM     17  O5* UNL     1      -0.562  -2.995   0.000  0.00  0.00    +0.000 OA
ENDBRANCH  13  16
ENDBRANCH   1  10
TORSDOF 2
