REMARK  Name = 
REMARK  7 active torsions:
REMARK  status: ('A' for Active; 'I' for Inactive)
REMARK    1  A    between atoms: C_2  and  C_6
REMARK    2  A    between atoms: C_3  and  C_17
REMARK    3  A    between atoms: N_5  and  C_11
REMARK    4  A    between atoms: C_17  and  N_18
REMARK    5  A    between atoms: N_18  and  C_19
REMARK    6  A    between atoms: C_19  and  C_22
REMARK    7  A    between atoms: C_22  and  C_23
REMARK                            x       y       z     vdW  Elec       q    Type
REMARK                         _______ _______ _______ _____ _____    ______ ____
ROOT
ATOM      1  C   UNL     1      -2.857  -0.191   0.000  0.00  0.00    +0.000 A 
ATOM      2  C   UNL     1      -2.857  -1.016   0.000  0.00  0.00    +0.000 A 
ATOM      3  C   UNL     1      -1.433  -1.016   0.000  0.00  0.00    +0.000 A 
ATOM      4  N   UNL     1      -1.433  -0.191   0.000  0.00  0.00    +0.000 N 
ATOM      5  N   UNL     1      -2.149   0.226   0.000  0.00  0.00    +0.000 N 
ATOM      6  C   UNL     1      -0.834   0.578   0.000  0.00  0.00    +0.000 C 
ATOM      7  O   UNL     1      -3.573   0.218   0.000  0.00  0.00    +0.000 OA
ENDROOT
BRANCH   5   8
ATOM      8  C   UNL     1      -2.151   1.050   0.000  0.00  0.00    +0.000 A 
ATOM      9  C   UNL     1      -1.434   1.462   0.000  0.00  0.00    +0.000 A 
ATOM     10  C   UNL     1      -1.436   2.286   0.000  0.00  0.00    +0.000 A 
ATOM     11  C   UNL     1      -2.152   2.697   0.000  0.00  0.00    +0.000 A 
ATOM     12  C   UNL     1      -2.868   2.279   0.000  0.00  0.00    +0.000 A 
ATOM     13  C   UNL     1      -2.863   1.456   0.000  0.00  0.00    +0.000 A 
ENDBRANCH   5   8
BRANCH   2  14
ATOM     14  C   UNL     1      -3.440  -1.599   0.000  0.00  0.00    +0.000 C 
ATOM     15  C   UNL     1      -4.237  -1.386   0.000  0.00  0.00    +0.000 C 
ATOM     16  C   UNL     1      -3.226  -2.396   0.000  0.00  0.00    +0.000 C 
ENDBRANCH   2  14
BRANCH   3  17
ATOM     17  C   UNL     1      -0.723  -1.429   0.000  0.00  0.00    +0.000 C 
BRANCH  17  18
ATOM     18  N   UNL     1       0.281  -1.149   0.000  0.00  0.00    +0.000 NA
ATOM     19  C   UNL     1       0.289  -0.079   0.000  0.00  0.00    +0.000 C 
BRANCH  18  20
ATOM     20  C   UNL     1       1.168  -1.774   0.000  0.00  0.00    +0.000 C 
ATOM     21  C   UNL     1       1.189  -2.614   0.000  0.00  0.00    +0.000 C 
BRANCH  20  22
ATOM     22  C   UNL     1       1.983  -1.217   0.000  0.00  0.00    +0.000 C 
BRANCH  22  23
ATOM     23  C   UNL     1       2.736  -1.548   0.000  0.00  0.00    +0.000 A 
ATOM     24  C   UNL     1       2.822  -2.366   0.000  0.00  0.00    +0.000 A 
ATOM     25  C   UNL     1       3.573  -2.697   0.000  0.00  0.00    +0.000 A 
ATOM     26  C   UNL     1       4.237  -2.212   0.000  0.00  0.00    +0.000 A 
ATOM     27  C   UNL     1       4.145  -1.391   0.000  0.00  0.00    +0.000 A 
ATOM     28  C   UNL     1       3.394  -1.064   0.000  0.00  0.00    +0.000 A 
ENDBRANCH  22  23
ENDBRANCH  20  22
ENDBRANCH  18  20
ENDBRANCH  17  18
ENDBRANCH   3  17
TORSDOF 7
