REMARK  Name = 
REMARK  1 active torsions:
REMARK  status: ('A' for Active; 'I' for Inactive)
REMARK    1  A    between atoms: C_2  and  C_3
REMARK                            x       y       z     vdW  Elec       q    Type
REMARK                         _______ _______ _______ _____ _____    ______ ____
ROOT
ATOM      1  C   UNL     1       4.902  -0.040   0.000  0.00  0.00    +0.000 C 
ATOM      2  C   UNL     1       4.350  -0.653   0.000  0.00  0.00    +0.000 A 
ATOM      3  C   UNL     1       3.543  -0.482   0.000  0.00  0.00    +0.000 A 
ATOM      4  C   UNL     1       2.991  -1.095   0.000  0.00  0.00    +0.000 A 
ATOM      5  N   UNL     1       3.246  -1.880   0.000  0.00  0.00    +0.000 N 
ATOM      6  C   UNL     1       4.053  -2.051   0.000  0.00  0.00    +0.000 A 
ATOM      7  O   UNL     1       4.308  -2.836   0.000  0.00  0.00    +0.000 OA
ATOM      8  C   UNL     1       4.605  -1.438   0.000  0.00  0.00    +0.000 A 
ATOM      9  C   UNL     1       5.412  -1.610   0.000  0.00  0.00    +0.000 C 
ATOM     10  O   UNL     1       5.964  -0.997   0.000  0.00  0.00    +0.000 OA
ATOM     11  C   UNL     1       5.709  -0.212   0.000  0.00  0.00    +0.000 C 
ATOM     12  O   UNL     1       6.261   0.401   0.000  0.00  0.00    +0.000 OA
ATOM     13  C   UNL     1       2.579  -2.365   0.000  0.00  0.00    +0.000 C 
ATOM     14  C   UNL     1       1.911  -1.880   0.000  0.00  0.00    +0.000 A 
ATOM     15  C   UNL     1       2.166  -1.095   0.000  0.00  0.00    +0.000 A 
ATOM     16  N   UNL     1       1.614  -0.482   0.000  0.00  0.00    +0.000 NA
ATOM     17  C   UNL     1       0.807  -0.653   0.000  0.00  0.00    +0.000 A 
ATOM     18  C   UNL     1       0.255  -0.040   0.000  0.00  0.00    +0.000 A 
ATOM     19  C   UNL     1      -0.552  -0.212   0.000  0.00  0.00    +0.000 A 
ATOM     20  C   UNL     1      -0.807  -0.997   0.000  0.00  0.00    +0.000 A 
ATOM     21  C   UNL     1      -0.255  -1.610   0.000  0.00  0.00    +0.000 A 
ATOM     22  C   UNL     1       0.552  -1.438   0.000  0.00  0.00    +0.000 A 
ATOM     23  C   UNL     1       1.104  -2.051   0.000  0.00  0.00    +0.000 A 
ATOM     24  C   UNL     1       0.849  -2.836   0.000  0.00  0.00    +0.000 C 
ATOM     25  C   UNL     1       0.042  -3.007   0.000  0.00  0.00    +0.000 C 
ATOM     26  C   UNL     1      -0.510  -2.394   0.000  0.00  0.00    +0.000 C 
ATOM     27  N   UNL     1       1.401  -3.449   0.000  0.00  0.00    +0.000 NA
ATOM     28  C   UNL     1      -1.614  -1.168   0.000  0.00  0.00    +0.000 C 
ATOM     29  F   UNL     1      -1.104   0.401   0.000  0.00  0.00    +0.000 F 
ATOM     30  O   UNL     1       4.202   0.397   0.000  0.00  0.00    +0.000 OA
ENDROOT
BRANCH   1  32
ATOM     31  C   UNL     1       4.703   1.375   0.000  0.00  0.00    +0.000 C 
ATOM     32  C   UNL     1       5.211   0.725   0.000  0.00  0.00    +0.000 C 
ENDBRANCH   1  32
TORSDOF 1
