REMARK  Name = 
REMARK  0 active torsions:
REMARK  status: ('A' for Active; 'I' for Inactive)
REMARK                            x       y       z     vdW  Elec       q    Type
REMARK                         _______ _______ _______ _____ _____    ______ ____
ROOT
ATOM      1  C   UNL     1       0.079   0.001   0.000  0.00  0.00    +0.000 A 
ATOM      2  C   UNL     1       0.081  -0.824   0.000  0.00  0.00    +0.000 A 
ATOM      3  C   UNL     1       0.866  -1.078   0.000  0.00  0.00    +0.000 C 
ATOM      4  N   UNL     1       0.864   0.257   0.000  0.00  0.00    +0.000 NA
ATOM      5  N   UNL     1       1.349  -0.409   0.000  0.00  0.00    +0.000 NA
ATOM      6  N   UNL     1      -1.349  -0.001   0.000  0.00  0.00    +0.000 NA
ATOM      7  N   UNL     1      -0.633  -1.238   0.000  0.00  0.00    +0.000 NA
ATOM      8  C   UNL     1      -1.348  -0.826   0.000  0.00  0.00    +0.000 A 
ATOM      9  C   UNL     1      -0.636   0.412   0.000  0.00  0.00    +0.000 A 
ATOM     10  O   UNL     1      -0.636   1.238   0.000  0.00  0.00    +0.000 OA
ENDROOT
TORSDOF 0
