REMARK  Name = 
REMARK  3 active torsions:
REMARK  status: ('A' for Active; 'I' for Inactive)
REMARK    1  A    between atoms: C_10  and  C_12
REMARK    2  A    between atoms: C_11  and  C_13
REMARK    3  A    between atoms: C_11  and  C_16
REMARK                            x       y       z     vdW  Elec       q    Type
REMARK                         _______ _______ _______ _____ _____    ______ ____
ROOT
ATOM      1  C   UNL     1      -3.572   3.712   0.000  0.00  0.00    +0.000 A 
ATOM      2  C   UNL     1      -2.858   2.475   0.000  0.00  0.00    +0.000 A 
ATOM      3  C   UNL     1      -4.287   3.300   0.000  0.00  0.00    +0.000 A 
ATOM      4  C   UNL     1      -3.572   2.062   0.000  0.00  0.00    +0.000 A 
ATOM      5  C   UNL     1      -2.858   3.300   0.000  0.00  0.00    +0.000 A 
ATOM      6  C   UNL     1      -4.287   2.475   0.000  0.00  0.00    +0.000 A 
ENDROOT
BRANCH   5  11
ATOM      7  C   UNL     1      -0.715   2.062   0.000  0.00  0.00    +0.000 C 
ATOM      8  C   UNL     1       0.000   2.475   0.000  0.00  0.00    +0.000 C 
ATOM      9  C   UNL     1      -1.429   2.475   0.000  0.00  0.00    +0.000 C 
ATOM     10  C   UNL     1       0.000   3.300   0.000  0.00  0.00    +0.000 C 
ATOM     11  C   UNL     1      -2.143   3.712   0.000  0.00  0.00    +0.000 C 
ATOM     12  C   UNL     1      -1.429   3.300   0.000  0.00  0.00    +0.000 C 
ATOM     13  C   UNL     1      -0.715   3.712   0.000  0.00  0.00    +0.000 C 
ATOM     14  O   UNL     1      -0.715   4.537   0.000  0.00  0.00    +0.000 OA
ENDBRANCH   5  11
BRANCH   6  16
ATOM     15  C   UNL     1      -5.001   1.238   0.000  0.00  0.00    +0.000 C 
ATOM     16  C   UNL     1      -5.001   2.062   0.000  0.00  0.00    +0.000 C 
BRANCH  16  17
ATOM     17  C   UNL     1      -5.716   2.475   0.000  0.00  0.00    +0.000 C 
ATOM     18  O   UNL     1      -6.430   2.062   0.000  0.00  0.00    +0.000 OA
ATOM     19  O   UNL     1      -5.716   3.300   0.000  0.00  0.00    +0.000 OA
ENDBRANCH  16  17
ENDBRANCH   6  16
TORSDOF 3
