REMARK  Name = 
REMARK  6 active torsions:
REMARK  status: ('A' for Active; 'I' for Inactive)
REMARK    1  A    between atoms: C_2  and  C_3
REMARK    2  A    between atoms: C_3  and  C_4
REMARK    3  A    between atoms: C_3  and  C_6
REMARK    4  A    between atoms: C_6  and  C_7
REMARK    5  A    between atoms: C_6  and  N_23
REMARK    6  A    between atoms: C_10  and  N_13
REMARK                            x       y       z     vdW  Elec       q    Type
REMARK                         _______ _______ _______ _____ _____    ______ ____
ROOT
ATOM      1  C   UNL     1      -1.409  -2.841   0.000  0.00  0.00    +0.000 A 
ATOM      2  C   UNL     1      -1.821  -2.127   0.000  0.00  0.00    +0.000 A 
ATOM      3  C   UNL     1      -1.409  -1.412   0.000  0.00  0.00    +0.000 A 
ATOM      4  C   UNL     1      -0.584  -1.412   0.000  0.00  0.00    +0.000 A 
ATOM      5  C   UNL     1      -0.171  -2.127   0.000  0.00  0.00    +0.000 A 
ATOM      6  C   UNL     1      -0.584  -2.841   0.000  0.00  0.00    +0.000 A 
ENDROOT
BRANCH   4   7
ATOM      7  N   UNL     1      -0.171  -0.698   0.000  0.00  0.00    +0.000 NA
ATOM      8  C   UNL     1       0.654  -0.698   0.000  0.00  0.00    +0.000 A 
ATOM      9  N   UNL     1       1.139  -0.030   0.000  0.00  0.00    +0.000 NA
ATOM     10  C   UNL     1       1.923  -0.285   0.000  0.00  0.00    +0.000 A 
ATOM     11  C   UNL     1       2.638   0.127   0.000  0.00  0.00    +0.000 A 
ATOM     12  C   UNL     1       3.352  -0.285   0.000  0.00  0.00    +0.000 A 
ATOM     13  C   UNL     1       3.352  -1.110   0.000  0.00  0.00    +0.000 A 
ATOM     14  C   UNL     1       2.638  -1.523   0.000  0.00  0.00    +0.000 A 
ATOM     15  C   UNL     1       1.923  -1.110   0.000  0.00  0.00    +0.000 A 
ATOM     16  S   UNL     1       1.139  -1.365   0.000  0.00  0.00    +0.000 S 
ENDBRANCH   4   7
BRANCH   1  17
ATOM     17  C   UNL     1      -1.821  -3.556   0.000  0.00  0.00    +0.000 C 
BRANCH  17  18
ATOM     18  N   UNL     1      -2.646  -3.556   0.000  0.00  0.00    +0.000 N 
ATOM     19  C   UNL     1      -3.131  -4.223   0.000  0.00  0.00    +0.000 A 
ATOM     20  N   UNL     1      -3.916  -3.968   0.000  0.00  0.00    +0.000 NA
ATOM     21  C   UNL     1      -3.916  -3.143   0.000  0.00  0.00    +0.000 A 
ATOM     22  N   UNL     1      -3.131  -2.888   0.000  0.00  0.00    +0.000 NA
ENDBRANCH  17  18
BRANCH  17  23
ATOM     23  C   UNL     1      -1.409  -4.270   0.000  0.00  0.00    +0.000 C 
BRANCH  23  25
ATOM     24  C   UNL     1      -1.409  -5.699   0.000  0.00  0.00    +0.000 C 
ATOM     25  C   UNL     1      -1.821  -4.985   0.000  0.00  0.00    +0.000 C 
ENDBRANCH  23  25
BRANCH  23  26
ATOM     26  C   UNL     1      -0.584  -4.270   0.000  0.00  0.00    +0.000 C 
ATOM     27  C   UNL     1      -0.171  -3.556   0.000  0.00  0.00    +0.000 C 
ENDBRANCH  23  26
ENDBRANCH  17  23
ENDBRANCH   1  17
TORSDOF 6
