REMARK  Name = 
REMARK  32 active torsions:
REMARK  status: ('A' for Active; 'I' for Inactive)
REMARK    1  A    between atoms: C_1  and  C_80
REMARK    2  A    between atoms: C_5  and  O_68
REMARK    3  A    between atoms: C_7  and  C_75
REMARK    4  A    between atoms: C_11  and  O_70
REMARK    5  A    between atoms: C_13  and  C_65
REMARK    6  A    between atoms: C_14  and  O_70
REMARK    7  A    between atoms: C_16  and  O_68
REMARK    8  A    between atoms: C_17  and  O_19
REMARK    9  A    between atoms: O_19  and  C_49
REMARK   10  A    between atoms: O_20  and  C_21
REMARK   11  A    between atoms: O_20  and  C_27
REMARK   12  A    between atoms: C_21  and  C_23
REMARK   13  A    between atoms: C_28  and  O_29
REMARK   14  A    between atoms: O_29  and  C_30
REMARK   15  A    between atoms: C_34  and  C_59
REMARK   16  A    between atoms: C_50  and  C_53
REMARK   17  A    between atoms: C_83  and  C_162
REMARK   18  A    between atoms: C_87  and  O_150
REMARK   19  A    between atoms: C_89  and  C_157
REMARK   20  A    between atoms: C_93  and  O_152
REMARK   21  A    between atoms: C_95  and  C_147
REMARK   22  A    between atoms: C_96  and  O_152
REMARK   23  A    between atoms: C_98  and  O_150
REMARK   24  A    between atoms: C_99  and  O_101
REMARK   25  A    between atoms: O_101  and  C_131
REMARK   26  A    between atoms: O_102  and  C_103
REMARK   27  A    between atoms: O_102  and  C_109
REMARK   28  A    between atoms: C_103  and  C_105
REMARK   29  A    between atoms: C_110  and  O_111
REMARK   30  A    between atoms: O_111  and  C_112
REMARK   31  A    between atoms: C_116  and  C_141
REMARK   32  A    between atoms: C_132  and  C_135
REMARK                            x       y       z     vdW  Elec       q    Type
REMARK                         _______ _______ _______ _____ _____    ______ ____
ROOT
ATOM      1  C   UNL     1       8.572  -1.365   0.000  0.00  0.00    +0.000 C 
ATOM      2  C   UNL     1       8.572  -2.185   0.000  0.00  0.00    +0.000 C 
ATOM      3  C   UNL     1       7.153  -1.365   0.000  0.00  0.00    +0.000 C 
ATOM      4  C   UNL     1       7.153  -2.185   0.000  0.00  0.00    +0.000 C 
ATOM      5  C   UNL     1       7.865  -2.604   0.000  0.00  0.00    +0.000 C 
ATOM      6  C   UNL     1       7.865  -0.964   0.000  0.00  0.00    +0.000 C 
ATOM      7  C   UNL     1       6.438  -2.604   0.000  0.00  0.00    +0.000 C 
ATOM      8  C   UNL     1       6.438  -3.416   0.000  0.00  0.00    +0.000 C 
ATOM      9  C   UNL     1       7.150  -3.818   0.000  0.00  0.00    +0.000 C 
ATOM     10  C   UNL     1       7.862  -3.416   0.000  0.00  0.00    +0.000 C 
ATOM     11  C   UNL     1       5.021  -2.604   0.000  0.00  0.00    +0.000 C 
ATOM     12  C   UNL     1       5.021  -3.416   0.000  0.00  0.00    +0.000 C 
ATOM     13  C   UNL     1       5.733  -3.818   0.000  0.00  0.00    +0.000 C 
ATOM     14  C   UNL     1       5.733  -2.185   0.000  0.00  0.00    +0.000 C 
ATOM     15  C   UNL     1       4.307  -3.826   0.000  0.00  0.00    +0.000 C 
ATOM     16  C   UNL     1       4.307  -4.646   0.000  0.00  0.00    +0.000 C 
ATOM     17  C   UNL     1       5.028  -5.048   0.000  0.00  0.00    +0.000 C 
ATOM     18  C   UNL     1       5.740  -4.646   0.000  0.00  0.00    +0.000 C 
ATOM     19  C   UNL     1       2.897  -3.826   0.000  0.00  0.00    +0.000 C 
ATOM     20  C   UNL     1       2.897  -4.646   0.000  0.00  0.00    +0.000 C 
ATOM     21  C   UNL     1       3.609  -5.048   0.000  0.00  0.00    +0.000 C 
ATOM     22  C   UNL     1       3.609  -3.416   0.000  0.00  0.00    +0.000 C 
ATOM     23  C   UNL     1       2.880  -5.449   0.000  0.00  0.00    +0.000 C 
ATOM     24  C   UNL     1       4.307  -3.014   0.000  0.00  0.00    +0.000 C 
ATOM     25  C   UNL     1       5.726  -3.006   0.000  0.00  0.00    +0.000 C 
ATOM     26  C   UNL     1       6.431  -4.228   0.000  0.00  0.00    +0.000 C 
ATOM     27  O   UNL     1       8.564  -3.826   0.000  0.00  0.00    +0.000 OA
ATOM     28  C   UNL     1       7.145  -0.562   0.000  0.00  0.00    +0.000 C 
ATOM     29  C   UNL     1       8.441  -0.381   0.000  0.00  0.00    +0.000 C 
ENDROOT
BRANCH  21  30
ATOM     30  C   UNL     1       4.184  -5.622   0.000  0.00  0.00    +0.000 C 
ATOM     31  O   UNL     1       4.176  -6.434   0.000  0.00  0.00    +0.000 OA
ENDBRANCH  21  30
BRANCH   5  32
ATOM     32  C   UNL     1       8.531  -3.170   0.000  0.00  0.00    +0.000 C 
ATOM     33  O   UNL     1       9.154  -3.170   0.000  0.00  0.00    +0.000 OA
ENDBRANCH   5  32
BRANCH  20  34
ATOM     34  O   UNL     1       2.182  -5.055   0.000  0.00  0.00    +0.000 OA
BRANCH  34  39
ATOM     35  C   UNL     1       0.762  -3.420   0.000  0.00  0.00    +0.000 C 
ATOM     36  C   UNL     1       0.047  -3.841   0.000  0.00  0.00    +0.000 C 
ATOM     37  C   UNL     1       0.063  -4.652   0.000  0.00  0.00    +0.000 C 
ATOM     38  C   UNL     1       0.764  -5.052   0.000  0.00  0.00    +0.000 C 
ATOM     39  C   UNL     1       1.472  -4.647   0.000  0.00  0.00    +0.000 C 
ATOM     40  O   UNL     1       1.478  -3.827   0.000  0.00  0.00    +0.000 OA
ATOM     41  O   UNL     1      -0.507  -5.023   0.000  0.00  0.00    +0.000 OA
BRANCH  35  42
ATOM     42  C   UNL     1       0.748  -2.612   0.000  0.00  0.00    +0.000 C 
ATOM     43  O   UNL     1       0.043  -2.202   0.000  0.00  0.00    +0.000 OA
ATOM     44  O   UNL     1       1.462  -2.194   0.000  0.00  0.00    +0.000 OA
ENDBRANCH  35  42
BRANCH  38  45
ATOM     45  O   UNL     1       0.764  -6.294   0.000  0.00  0.00    +0.000 OA
BRANCH  45  50
ATOM     46  C   UNL     1      -1.360  -6.713   0.000  0.00  0.00    +0.000 C 
ATOM     47  C   UNL     1      -1.360  -7.532   0.000  0.00  0.00    +0.000 C 
ATOM     48  C   UNL     1      -0.647  -7.926   0.000  0.00  0.00    +0.000 C 
ATOM     49  C   UNL     1       0.065  -7.532   0.000  0.00  0.00    +0.000 C 
ATOM     50  C   UNL     1       0.065  -6.713   0.000  0.00  0.00    +0.000 C 
ATOM     51  O   UNL     1      -0.647  -6.294   0.000  0.00  0.00    +0.000 OA
ATOM     52  O   UNL     1       0.764  -7.934   0.000  0.00  0.00    +0.000 OA
ATOM     53  O   UNL     1      -0.654  -8.746   0.000  0.00  0.00    +0.000 OA
ATOM     54  O   UNL     1      -2.073  -7.926   0.000  0.00  0.00    +0.000 OA
BRANCH  46  55
ATOM     55  C   UNL     1      -1.925  -6.360   0.000  0.00  0.00    +0.000 C 
ATOM     56  O   UNL     1      -2.565  -6.696   0.000  0.00  0.00    +0.000 OA
ENDBRANCH  46  55
ENDBRANCH  45  50
ENDBRANCH  38  45
BRANCH  36  57
ATOM     57  O   UNL     1      -0.884  -3.325   0.000  0.00  0.00    +0.000 OA
BRANCH  57  62
ATOM     58  C   UNL     1      -3.246  -3.785   0.000  0.00  0.00    +0.000 C 
ATOM     59  C   UNL     1      -3.246  -4.605   0.000  0.00  0.00    +0.000 C 
ATOM     60  C   UNL     1      -2.525  -5.015   0.000  0.00  0.00    +0.000 C 
ATOM     61  C   UNL     1      -1.821  -4.605   0.000  0.00  0.00    +0.000 C 
ATOM     62  C   UNL     1      -1.821  -3.785   0.000  0.00  0.00    +0.000 C 
ATOM     63  O   UNL     1      -2.525  -3.383   0.000  0.00  0.00    +0.000 OA
ATOM     64  O   UNL     1      -1.351  -4.933   0.000  0.00  0.00    +0.000 OA
ATOM     65  O   UNL     1      -2.549  -5.827   0.000  0.00  0.00    +0.000 OA
ATOM     66  O   UNL     1      -3.959  -5.015   0.000  0.00  0.00    +0.000 OA
BRANCH  58  67
ATOM     67  C   UNL     1      -3.959  -3.383   0.000  0.00  0.00    +0.000 C 
ATOM     68  O   UNL     1      -4.681  -3.662   0.000  0.00  0.00    +0.000 OA
ENDBRANCH  58  67
ENDBRANCH  57  62
ENDBRANCH  36  57
ENDBRANCH  34  39
ENDBRANCH  20  34
BRANCH   1  69
ATOM     69  O   UNL     1       9.284  -0.964   0.000  0.00  0.00    +0.000 OA
BRANCH  69  70
ATOM     70  C   UNL     1       9.989  -1.365   0.000  0.00  0.00    +0.000 C 
ATOM     71  O   UNL     1       9.989  -2.169   0.000  0.00  0.00    +0.000 OA
BRANCH  70  72
ATOM     72  C   UNL     1      10.687  -0.964   0.000  0.00  0.00    +0.000 C 
ATOM     73  C   UNL     1      11.392  -1.357   0.000  0.00  0.00    +0.000 C 
ATOM     74  C   UNL     1      11.400  -1.997   0.000  0.00  0.00    +0.000 C 
ATOM     75  C   UNL     1      10.687  -0.152   0.000  0.00  0.00    +0.000 C 
ENDBRANCH  70  72
ENDBRANCH  69  70
ENDBRANCH   1  69
BRANCH   2  76
ATOM     76  O   UNL     1       9.301  -2.604   0.000  0.00  0.00    +0.000 OA
BRANCH  76  77
ATOM     77  C   UNL     1      10.062  -3.038   0.000  0.00  0.00    +0.000 C 
ATOM     78  O   UNL     1      10.095  -3.818   0.000  0.00  0.00    +0.000 OA
ATOM     79  C   UNL     1      10.737  -2.645   0.000  0.00  0.00    +0.000 C 
ENDBRANCH  76  77
ENDBRANCH   2  76
TORSDOF 16
REMARK  Name = 
REMARK  32 active torsions:
REMARK  status: ('A' for Active; 'I' for Inactive)
REMARK    1  A    between atoms: C_1  and  C_80
REMARK    2  A    between atoms: C_5  and  O_68
REMARK    3  A    between atoms: C_7  and  C_75
REMARK    4  A    between atoms: C_11  and  O_70
REMARK    5  A    between atoms: C_13  and  C_65
REMARK    6  A    between atoms: C_14  and  O_70
REMARK    7  A    between atoms: C_16  and  O_68
REMARK    8  A    between atoms: C_17  and  O_19
REMARK    9  A    between atoms: O_19  and  C_49
REMARK   10  A    between atoms: O_20  and  C_21
REMARK   11  A    between atoms: O_20  and  C_27
REMARK   12  A    between atoms: C_21  and  C_23
REMARK   13  A    between atoms: C_28  and  O_29
REMARK   14  A    between atoms: O_29  and  C_30
REMARK   15  A    between atoms: C_34  and  C_59
REMARK   16  A    between atoms: C_50  and  C_53
REMARK   17  A    between atoms: C_83  and  C_162
REMARK   18  A    between atoms: C_87  and  O_150
REMARK   19  A    between atoms: C_89  and  C_157
REMARK   20  A    between atoms: C_93  and  O_152
REMARK   21  A    between atoms: C_95  and  C_147
REMARK   22  A    between atoms: C_96  and  O_152
REMARK   23  A    between atoms: C_98  and  O_150
REMARK   24  A    between atoms: C_99  and  O_101
REMARK   25  A    between atoms: O_101  and  C_131
REMARK   26  A    between atoms: O_102  and  C_103
REMARK   27  A    between atoms: O_102  and  C_109
REMARK   28  A    between atoms: C_103  and  C_105
REMARK   29  A    between atoms: C_110  and  O_111
REMARK   30  A    between atoms: O_111  and  C_112
REMARK   31  A    between atoms: C_116  and  C_141
REMARK   32  A    between atoms: C_132  and  C_135
REMARK                            x       y       z     vdW  Elec       q    Type
REMARK                         _______ _______ _______ _____ _____    ______ ____
ROOT
ATOM      1  C   UNL     1       2.115   7.508   0.000  0.00  0.00    +0.000 C 
ATOM      2  C   UNL     1       2.115   6.680   0.000  0.00  0.00    +0.000 C 
ATOM      3  C   UNL     1       0.663   7.508   0.000  0.00  0.00    +0.000 C 
ATOM      4  C   UNL     1       0.663   6.680   0.000  0.00  0.00    +0.000 C 
ATOM      5  C   UNL     1       1.393   6.261   0.000  0.00  0.00    +0.000 C 
ATOM      6  C   UNL     1       1.393   7.926   0.000  0.00  0.00    +0.000 C 
ATOM      7  C   UNL     1      -0.060   6.253   0.000  0.00  0.00    +0.000 C 
ATOM      8  C   UNL     1      -0.060   5.433   0.000  0.00  0.00    +0.000 C 
ATOM      9  C   UNL     1       0.661   5.015   0.000  0.00  0.00    +0.000 C 
ATOM     10  C   UNL     1       1.389   5.433   0.000  0.00  0.00    +0.000 C 
ATOM     11  C   UNL     1      -1.510   6.253   0.000  0.00  0.00    +0.000 C 
ATOM     12  C   UNL     1      -1.510   5.433   0.000  0.00  0.00    +0.000 C 
ATOM     13  C   UNL     1      -0.789   5.015   0.000  0.00  0.00    +0.000 C 
ATOM     14  C   UNL     1      -0.789   6.680   0.000  0.00  0.00    +0.000 C 
ATOM     15  C   UNL     1      -2.231   4.999   0.000  0.00  0.00    +0.000 C 
ATOM     16  C   UNL     1      -2.231   4.170   0.000  0.00  0.00    +0.000 C 
ATOM     17  C   UNL     1      -1.502   3.760   0.000  0.00  0.00    +0.000 C 
ATOM     18  C   UNL     1      -0.790   4.170   0.000  0.00  0.00    +0.000 C 
ATOM     19  C   UNL     1      -3.675   4.999   0.000  0.00  0.00    +0.000 C 
ATOM     20  C   UNL     1      -3.675   4.170   0.000  0.00  0.00    +0.000 C 
ATOM     21  C   UNL     1      -2.954   3.760   0.000  0.00  0.00    +0.000 C 
ATOM     22  C   UNL     1      -2.954   5.433   0.000  0.00  0.00    +0.000 C 
ATOM     23  C   UNL     1      -3.691   3.350   0.000  0.00  0.00    +0.000 C 
ATOM     24  C   UNL     1      -2.231   5.843   0.000  0.00  0.00    +0.000 C 
ATOM     25  C   UNL     1      -0.796   5.843   0.000  0.00  0.00    +0.000 C 
ATOM     26  C   UNL     1      -0.066   4.589   0.000  0.00  0.00    +0.000 C 
ATOM     27  O   UNL     1       2.107   5.007   0.000  0.00  0.00    +0.000 OA
ATOM     28  C   UNL     1       0.655   8.344   0.000  0.00  0.00    +0.000 C 
ATOM     29  C   UNL     1       1.976   8.525   0.000  0.00  0.00    +0.000 C 
ENDROOT
BRANCH  21  30
ATOM     30  C   UNL     1      -2.363   3.178   0.000  0.00  0.00    +0.000 C 
ATOM     31  O   UNL     1      -2.371   2.349   0.000  0.00  0.00    +0.000 OA
ENDBRANCH  21  30
BRANCH   5  32
ATOM     32  C   UNL     1       2.074   5.679   0.000  0.00  0.00    +0.000 C 
ATOM     33  O   UNL     1       2.706   5.679   0.000  0.00  0.00    +0.000 OA
ENDBRANCH   5  32
BRANCH  20  34
ATOM     34  O   UNL     1      -4.398   3.753   0.000  0.00  0.00    +0.000 OA
BRANCH  34  39
ATOM     35  C   UNL     1      -5.850   5.413   0.000  0.00  0.00    +0.000 C 
ATOM     36  C   UNL     1      -6.574   5.000   0.000  0.00  0.00    +0.000 C 
ATOM     37  C   UNL     1      -6.566   4.163   0.000  0.00  0.00    +0.000 C 
ATOM     38  C   UNL     1      -5.848   3.756   0.000  0.00  0.00    +0.000 C 
ATOM     39  C   UNL     1      -5.133   4.169   0.000  0.00  0.00    +0.000 C 
ATOM     40  O   UNL     1      -5.126   5.005   0.000  0.00  0.00    +0.000 OA
ATOM     41  O   UNL     1      -7.144   3.785   0.000  0.00  0.00    +0.000 OA
BRANCH  35  42
ATOM     42  C   UNL     1      -5.864   6.245   0.000  0.00  0.00    +0.000 C 
ATOM     43  O   UNL     1      -6.586   6.671   0.000  0.00  0.00    +0.000 OA
ATOM     44  O   UNL     1      -5.143   6.672   0.000  0.00  0.00    +0.000 OA
ENDBRANCH  35  42
BRANCH  38  45
ATOM     45  O   UNL     1      -5.848   2.489   0.000  0.00  0.00    +0.000 OA
BRANCH  45  50
ATOM     46  C   UNL     1      -8.013   2.071   0.000  0.00  0.00    +0.000 C 
ATOM     47  C   UNL     1      -8.013   1.234   0.000  0.00  0.00    +0.000 C 
ATOM     48  C   UNL     1      -7.292   0.824   0.000  0.00  0.00    +0.000 C 
ATOM     49  C   UNL     1      -6.564   1.234   0.000  0.00  0.00    +0.000 C 
ATOM     50  C   UNL     1      -6.564   2.071   0.000  0.00  0.00    +0.000 C 
ATOM     51  O   UNL     1      -7.292   2.497   0.000  0.00  0.00    +0.000 OA
ATOM     52  O   UNL     1      -5.848   0.824   0.000  0.00  0.00    +0.000 OA
ATOM     53  O   UNL     1      -7.300   0.004   0.000  0.00  0.00    +0.000 OA
ATOM     54  O   UNL     1      -8.751   0.824   0.000  0.00  0.00    +0.000 OA
BRANCH  46  55
ATOM     55  C   UNL     1      -8.587   2.432   0.000  0.00  0.00    +0.000 C 
ATOM     56  O   UNL     1      -9.243   2.087   0.000  0.00  0.00    +0.000 OA
ENDBRANCH  46  55
ENDBRANCH  45  50
ENDBRANCH  38  45
BRANCH  36  57
ATOM     57  O   UNL     1      -7.529   5.523   0.000  0.00  0.00    +0.000 OA
BRANCH  57  62
ATOM     58  C   UNL     1      -9.940   5.048   0.000  0.00  0.00    +0.000 C 
ATOM     59  C   UNL     1      -9.940   4.211   0.000  0.00  0.00    +0.000 C 
ATOM     60  C   UNL     1      -9.211   3.801   0.000  0.00  0.00    +0.000 C 
ATOM     61  C   UNL     1      -8.483   4.211   0.000  0.00  0.00    +0.000 C 
ATOM     62  C   UNL     1      -8.483   5.048   0.000  0.00  0.00    +0.000 C 
ATOM     63  O   UNL     1      -9.211   5.466   0.000  0.00  0.00    +0.000 OA
ATOM     64  O   UNL     1      -8.005   3.875   0.000  0.00  0.00    +0.000 OA
ATOM     65  O   UNL     1      -9.227   2.973   0.000  0.00  0.00    +0.000 OA
ATOM     66  O   UNL     1     -10.662   3.801   0.000  0.00  0.00    +0.000 OA
BRANCH  58  67
ATOM     67  C   UNL     1     -10.662   5.458   0.000  0.00  0.00    +0.000 C 
ATOM     68  O   UNL     1     -11.400   5.163   0.000  0.00  0.00    +0.000 OA
ENDBRANCH  58  67
ENDBRANCH  57  62
ENDBRANCH  36  57
ENDBRANCH  34  39
ENDBRANCH  20  34
BRANCH   1  69
ATOM     69  O   UNL     1       2.836   7.926   0.000  0.00  0.00    +0.000 OA
BRANCH  69  70
ATOM     70  C   UNL     1       3.558   7.524   0.000  0.00  0.00    +0.000 C 
ATOM     71  O   UNL     1       3.558   6.696   0.000  0.00  0.00    +0.000 OA
BRANCH  70  72
ATOM     72  C   UNL     1       4.271   7.934   0.000  0.00  0.00    +0.000 C 
ATOM     73  C   UNL     1       4.984   7.524   0.000  0.00  0.00    +0.000 C 
ATOM     74  C   UNL     1       5.559   7.959   0.000  0.00  0.00    +0.000 C 
ATOM     75  C   UNL     1       4.263   8.746   0.000  0.00  0.00    +0.000 C 
ENDBRANCH  70  72
ENDBRANCH  69  70
ENDBRANCH   1  69
BRANCH   2  76
ATOM     76  O   UNL     1       2.860   6.253   0.000  0.00  0.00    +0.000 OA
BRANCH  76  77
ATOM     77  C   UNL     1       3.639   5.802   0.000  0.00  0.00    +0.000 C 
ATOM     78  O   UNL     1       3.663   5.015   0.000  0.00  0.00    +0.000 OA
ATOM     79  C   UNL     1       4.321   6.212   0.000  0.00  0.00    +0.000 C 
ENDBRANCH  76  77
ENDBRANCH   2  76
TORSDOF 16
