REMARK  Name = 
REMARK  8 active torsions:
REMARK  status: ('A' for Active; 'I' for Inactive)
REMARK    1  A    between atoms: C_2  and  C_4
REMARK    2  A    between atoms: C_6  and  S_23
REMARK    3  A    between atoms: C_9  and  C_10
REMARK    4  A    between atoms: C_10  and  C_12
REMARK    5  A    between atoms: C_12  and  S_14
REMARK    6  A    between atoms: S_14  and  C_15
REMARK    7  A    between atoms: C_15  and  C_16
REMARK    8  A    between atoms: S_23  and  C_24
REMARK                            x       y       z     vdW  Elec       q    Type
REMARK                         _______ _______ _______ _____ _____    ______ ____
ROOT
ATOM      1  N   UNL     1       0.745   1.264   0.000  0.00  0.00    +0.000 N 
ATOM      2  C   UNL     1       1.412   1.749   0.000  0.00  0.00    +0.000 C 
ATOM      3  C   UNL     1       0.077   1.749   0.000  0.00  0.00    +0.000 C 
ATOM      4  C   UNL     1       0.332   2.534   0.000  0.00  0.00    +0.000 C 
ATOM      5  C   UNL     1       1.157   2.534   0.000  0.00  0.00    +0.000 C 
ATOM      6  C   UNL     1       0.765   0.439   0.000  0.00  0.00    +0.000 C 
ATOM      7  O   UNL     1       1.496   0.032   0.000  0.00  0.00    +0.000 OA
ENDROOT
BRANCH   2   8
ATOM      8  C   UNL     1       2.197   1.494   0.000  0.00  0.00    +0.000 C 
ATOM      9  O   UNL     1       2.368   0.687   0.000  0.00  0.00    +0.000 OA
ATOM     10  O   UNL     1       2.810   2.046   0.000  0.00  0.00    +0.000 OA
ENDBRANCH   2   8
BRANCH   6  11
ATOM     11  C   UNL     1       0.054   0.020   0.000  0.00  0.00    +0.000 C 
ATOM     12  C   UNL     1      -0.677   0.426   0.000  0.00  0.00    +0.000 C 
BRANCH  11  13
ATOM     13  C   UNL     1       0.054  -0.841   0.000  0.00  0.00    +0.000 C 
BRANCH  13  14
ATOM     14  S   UNL     1      -0.657  -1.260   0.000  0.00  0.00    +0.000 S 
BRANCH  14  15
ATOM     15  C   UNL     1      -0.636  -2.084   0.000  0.00  0.00    +0.000 C 
ATOM     16  O   UNL     1       0.095  -2.491   0.000  0.00  0.00    +0.000 OA
BRANCH  15  17
ATOM     17  C   UNL     1      -1.368  -2.539   0.000  0.00  0.00    +0.000 A 
ATOM     18  C   UNL     1      -2.099  -2.133   0.000  0.00  0.00    +0.000 A 
ATOM     19  C   UNL     1      -2.810  -2.552   0.000  0.00  0.00    +0.000 A 
ATOM     20  C   UNL     1      -2.790  -3.376   0.000  0.00  0.00    +0.000 A 
ATOM     21  C   UNL     1      -2.058  -3.783   0.000  0.00  0.00    +0.000 A 
ATOM     22  C   UNL     1      -1.347  -3.364   0.000  0.00  0.00    +0.000 A 
ENDBRANCH  15  17
ENDBRANCH  14  15
ENDBRANCH  13  14
ENDBRANCH  11  13
ENDBRANCH   6  11
BRANCH   4  23
ATOM     23  S   UNL     1      -0.152   3.201   0.000  0.00  0.00    +0.000 S 
BRANCH  23  24
ATOM     24  C   UNL     1      -0.973   3.115   0.000  0.00  0.00    +0.000 A 
ATOM     25  C   UNL     1      -1.458   3.783   0.000  0.00  0.00    +0.000 A 
ATOM     26  C   UNL     1      -1.309   2.361   0.000  0.00  0.00    +0.000 A 
ATOM     27  C   UNL     1      -2.278   3.697   0.000  0.00  0.00    +0.000 A 
ATOM     28  C   UNL     1      -2.129   2.276   0.000  0.00  0.00    +0.000 A 
ATOM     29  C   UNL     1      -2.614   2.943   0.000  0.00  0.00    +0.000 A 
ENDBRANCH  23  24
ENDBRANCH   4  23
TORSDOF 8
