REMARK  Name = 
REMARK  6 active torsions:
REMARK  status: ('A' for Active; 'I' for Inactive)
REMARK    1  A    between atoms: C_2  and  N_3
REMARK    2  A    between atoms: C_2  and  C_19
REMARK    3  A    between atoms: C_4  and  C_6
REMARK    4  A    between atoms: C_6  and  C_17
REMARK    5  A    between atoms: C_7  and  C_8
REMARK    6  A    between atoms: C_9  and  C_10
REMARK                            x       y       z     vdW  Elec       q    Type
REMARK                         _______ _______ _______ _____ _____    ______ ____
ROOT
ATOM      1  C   UNL     1       4.287   0.000   0.000  0.00  0.00    +0.000 C 
ATOM      2  C   UNL     1       5.001  -0.412   0.000  0.00  0.00    +0.000 C 
ENDROOT
BRANCH   1   4
ATOM      3  N   UNL     1       5.001   1.238   0.000  0.00  0.00    +0.000 NA
ATOM      4  C   UNL     1       4.287   0.825   0.000  0.00  0.00    +0.000 C 
ATOM      5  O   UNL     1       3.572   1.238   0.000  0.00  0.00    +0.000 OA
BRANCH   3   7
ATOM      6  C   UNL     1       4.287   2.475   0.000  0.00  0.00    +0.000 C 
ATOM      7  C   UNL     1       5.001   2.062   0.000  0.00  0.00    +0.000 C 
BRANCH   7   8
ATOM      8  C   UNL     1       5.716   2.475   0.000  0.00  0.00    +0.000 A 
ATOM      9  C   UNL     1       5.716   3.300   0.000  0.00  0.00    +0.000 A 
ATOM     10  C   UNL     1       6.430   3.712   0.000  0.00  0.00    +0.000 A 
ATOM     11  C   UNL     1       7.145   3.300   0.000  0.00  0.00    +0.000 A 
ATOM     12  C   UNL     1       7.145   2.475   0.000  0.00  0.00    +0.000 A 
ATOM     13  C   UNL     1       6.430   2.062   0.000  0.00  0.00    +0.000 A 
ENDBRANCH   7   8
ENDBRANCH   3   7
ENDBRANCH   1   4
BRANCH   1  14
ATOM     14  C   UNL     1       3.572  -0.412   0.000  0.00  0.00    +0.000 C 
ATOM     15  N   UNL     1       2.858  -0.825   0.000  0.00  0.00    +0.000 NA
ENDBRANCH   1  14
BRANCH   2  16
ATOM     16  C   UNL     1       5.001  -1.238   0.000  0.00  0.00    +0.000 C 
ATOM     17  C   UNL     1       5.716  -1.650   0.000  0.00  0.00    +0.000 C 
BRANCH  17  18
ATOM     18  C   UNL     1       5.716  -2.475   0.000  0.00  0.00    +0.000 A 
ATOM     19  C   UNL     1       6.430  -2.888   0.000  0.00  0.00    +0.000 A 
ATOM     20  C   UNL     1       6.430  -3.712   0.000  0.00  0.00    +0.000 A 
ATOM     21  C   UNL     1       5.716  -4.125   0.000  0.00  0.00    +0.000 A 
ATOM     22  C   UNL     1       5.001  -3.712   0.000  0.00  0.00    +0.000 A 
ATOM     23 BR   UNL     1       4.287  -4.125   0.000  0.00  0.00    +0.000 Br
ATOM     24  N   UNL     1       5.001  -2.888   0.000  0.00  0.00    +0.000 NA
ENDBRANCH  17  18
ENDBRANCH   2  16
TORSDOF 6
