REMARK  Name = 
REMARK  10 active torsions:
REMARK  status: ('A' for Active; 'I' for Inactive)
REMARK    1  A    between atoms: P_1  and  O_6
REMARK    2  A    between atoms: O_6  and  C_29
REMARK    3  A    between atoms: N_13  and  C_17
REMARK    4  A    between atoms: N_14  and  C_23
REMARK    5  A    between atoms: C_17  and  C_18
REMARK    6  A    between atoms: C_18  and  C_19
REMARK    7  A    between atoms: C_19  and  C_24
REMARK    8  A    between atoms: C_23  and  C_25
REMARK    9  A    between atoms: C_24  and  C_27
REMARK   10  A    between atoms: C_25  and  C_29
REMARK                            x       y       z     vdW  Elec       q    Type
REMARK                         _______ _______ _______ _____ _____    ______ ____
ROOT
ATOM      1  O   UNL     1       1.173   0.307   0.000  0.00  0.00    +0.000 OA
ATOM      2  O   UNL     1      -1.628  -1.343   0.000  0.00  0.00    +0.000 OA
ATOM      3  O   UNL     1      -3.058   1.132   0.000  0.00  0.00    +0.000 OA
ATOM      4  N   UNL     1      -0.133   0.971   0.000  0.00  0.00    +0.000 N 
ATOM      5  N   UNL     1      -0.133  -0.357   0.000  0.00  0.00    +0.000 N 
ATOM      6  N   UNL     1      -1.628   1.132   0.000  0.00  0.00    +0.000 N 
ATOM      7  N   UNL     1      -2.343  -0.105   0.000  0.00  0.00    +0.000 N 
ATOM      8  C   UNL     1      -0.914   0.719   0.000  0.00  0.00    +0.000 A 
ATOM      9  C   UNL     1      -0.914  -0.105   0.000  0.00  0.00    +0.000 A 
ATOM     10  C   UNL     1       0.348   0.307   0.000  0.00  0.00    +0.000 A 
ATOM     11  C   UNL     1      -1.628  -0.518   0.000  0.00  0.00    +0.000 A 
ATOM     12  C   UNL     1      -2.343   0.719   0.000  0.00  0.00    +0.000 A 
ATOM     13  H   UNL     1      -1.628   1.643   0.000  0.00  0.00    +0.000 HD
ATOM     14  H   UNL     1      -2.786  -0.361   0.000  0.00  0.00    +0.000 HD
ENDROOT
BRANCH   4  15
ATOM     15  C   UNL     1       0.123   1.755   0.000  0.00  0.00    +0.000 C 
BRANCH  15  17
ATOM     16  O   UNL     1       1.481   1.311   0.000  0.00  0.00    +0.000 OA
ATOM     17  C   UNL     1       0.930   1.925   0.000  0.00  0.00    +0.000 C 
BRANCH  17  19
ATOM     18  O   UNL     1       0.635   3.324   0.000  0.00  0.00    +0.000 OA
ATOM     19  C   UNL     1       1.187   2.710   0.000  0.00  0.00    +0.000 C 
BRANCH  19  21
ATOM     20  O   UNL     1       2.545   2.266   0.000  0.00  0.00    +0.000 OA
ATOM     21  C   UNL     1       1.994   2.880   0.000  0.00  0.00    +0.000 C 
BRANCH  21  23
ATOM     22  O   UNL     1       3.058   3.834   0.000  0.00  0.00    +0.000 OA
ATOM     23  C   UNL     1       2.250   3.664   0.000  0.00  0.00    +0.000 C 
ENDBRANCH  21  23
ENDBRANCH  19  21
ENDBRANCH  17  19
ENDBRANCH  15  17
ENDBRANCH   4  15
BRANCH   5  24
ATOM     24  C   UNL     1       0.123  -1.141   0.000  0.00  0.00    +0.000 C 
BRANCH  24  25
ATOM     25  C   UNL     1       0.930  -1.311   0.000  0.00  0.00    +0.000 C 
BRANCH  25  26
ATOM     26  C   UNL     1       1.187  -2.095   0.000  0.00  0.00    +0.000 C 
BRANCH  26  27
ATOM     27  O   UNL     1       1.994  -2.266   0.000  0.00  0.00    +0.000 OA
BRANCH  27  28
ATOM     28  P   UNL     1       2.250  -3.050   0.000  0.00  0.00    +0.000 P 
ATOM     29  O   UNL     1       3.034  -2.794   0.000  0.00  0.00    +0.000 OA
ATOM     30  O   UNL     1       2.507  -3.834   0.000  0.00  0.00    +0.000 OA
ATOM     31  O   UNL     1       1.466  -3.306   0.000  0.00  0.00    +0.000 OA
ENDBRANCH  27  28
ENDBRANCH  26  27
ENDBRANCH  25  26
ENDBRANCH  24  25
ENDBRANCH   5  24
TORSDOF 10
