REMARK  Name = 
REMARK  4 active torsions:
REMARK  status: ('A' for Active; 'I' for Inactive)
REMARK    1  A    between atoms: N_4  and  C_5
REMARK    2  A    between atoms: C_5  and  C_6
REMARK    3  A    between atoms: C_13  and  C_14
REMARK    4  A    between atoms: C_20  and  C_21
REMARK                            x       y       z     vdW  Elec       q    Type
REMARK                         _______ _______ _______ _____ _____    ______ ____
ROOT
ATOM      1  C   UNL     1       2.070   1.110   0.000  0.00  0.00    +0.000 A 
ATOM      2  C   UNL     1       1.356   0.698   0.000  0.00  0.00    +0.000 A 
ATOM      3  N   UNL     1       0.641   1.110   0.000  0.00  0.00    +0.000 N 
ATOM      4  C   UNL     1       0.641   1.935   0.000  0.00  0.00    +0.000 A 
ATOM      5  C   UNL     1      -0.143   2.190   0.000  0.00  0.00    +0.000 A 
ATOM      6  N   UNL     1      -0.628   1.523   0.000  0.00  0.00    +0.000 NA
ATOM      7  C   UNL     1      -0.143   0.856   0.000  0.00  0.00    +0.000 A 
ATOM      8  C   UNL     1       1.356   2.348   0.000  0.00  0.00    +0.000 A 
ATOM      9  O   UNL     1       1.356   3.173   0.000  0.00  0.00    +0.000 OA
ATOM     10  N   UNL     1       2.070   1.935   0.000  0.00  0.00    +0.000 NA
ENDROOT
BRANCH   1  16
ATOM     11  C   UNL     1       3.710   1.841   0.000  0.00  0.00    +0.000 C 
ATOM     12  C   UNL     1       3.538   1.034   0.000  0.00  0.00    +0.000 C 
ATOM     13  C   UNL     1       4.090   0.420   0.000  0.00  0.00    +0.000 C 
ATOM     14  N   UNL     1       3.678  -0.294   0.000  0.00  0.00    +0.000 NA
ATOM     15  C   UNL     1       2.871  -0.122   0.000  0.00  0.00    +0.000 C 
ATOM     16  C   UNL     1       2.784   0.698   0.000  0.00  0.00    +0.000 C 
BRANCH  14  17
ATOM     17  C   UNL     1       4.013  -1.048   0.000  0.00  0.00    +0.000 C 
BRANCH  17  18
ATOM     18  C   UNL     1       4.834  -1.134   0.000  0.00  0.00    +0.000 A 
ATOM     19  N   UNL     1       5.319  -0.467   0.000  0.00  0.00    +0.000 NA
ATOM     20  C   UNL     1       6.139  -0.553   0.000  0.00  0.00    +0.000 A 
ATOM     21  C   UNL     1       6.475  -1.306   0.000  0.00  0.00    +0.000 A 
ATOM     22  C   UNL     1       5.990  -1.974   0.000  0.00  0.00    +0.000 A 
ATOM     23  N   UNL     1       5.169  -1.888   0.000  0.00  0.00    +0.000 NA
ENDBRANCH  17  18
ENDBRANCH  14  17
ENDBRANCH   1  16
BRANCH   7  24
ATOM     24  C   UNL     1      -0.398   0.071   0.000  0.00  0.00    +0.000 C 
ATOM     25  C   UNL     1       0.154  -0.542   0.000  0.00  0.00    +0.000 C 
ATOM     26  C   UNL     1      -0.101  -1.327   0.000  0.00  0.00    +0.000 C 
ATOM     27  O   UNL     1      -0.908  -1.498   0.000  0.00  0.00    +0.000 OA
ATOM     28  C   UNL     1      -1.460  -0.885   0.000  0.00  0.00    +0.000 C 
ATOM     29  C   UNL     1      -1.205  -0.101   0.000  0.00  0.00    +0.000 C 
ENDBRANCH   7  24
TORSDOF 4
