REMARK  Name = 
REMARK  6 active torsions:
REMARK  status: ('A' for Active; 'I' for Inactive)
REMARK    1  A    between atoms: C_1  and  O_2
REMARK    2  A    between atoms: O_2  and  C_3
REMARK    3  A    between atoms: C_7  and  N_15
REMARK    4  A    between atoms: C_12  and  C_13
REMARK    5  A    between atoms: C_13  and  C_14
REMARK    6  A    between atoms: N_18  and  C_29
REMARK                            x       y       z     vdW  Elec       q    Type
REMARK                         _______ _______ _______ _____ _____    ______ ____
ROOT
ATOM      1  C   UNL     1      -2.498   1.239   0.000  0.00  0.00    +0.000 C 
ATOM      2  C   UNL     1      -3.211   0.822   0.000  0.00  0.00    +0.000 C 
ATOM      3  C   UNL     1      -3.211  -0.003   0.000  0.00  0.00    +0.000 C 
ATOM      4  N   UNL     1      -2.498  -0.411   0.000  0.00  0.00    +0.000 N 
ATOM      5  C   UNL     1      -1.786  -0.003   0.000  0.00  0.00    +0.000 C 
ATOM      6  C   UNL     1      -1.786   0.822   0.000  0.00  0.00    +0.000 C 
ENDROOT
BRANCH   4  15
ATOM      7  C   UNL     1      -1.773  -2.480   0.000  0.00  0.00    +0.000 A 
ATOM      8  N   UNL     1      -0.983  -2.718   0.000  0.00  0.00    +0.000 NA
ATOM      9  C   UNL     1      -0.511  -2.041   0.000  0.00  0.00    +0.000 A 
ATOM     10  C   UNL     1      -1.012  -1.382   0.000  0.00  0.00    +0.000 A 
ATOM     11  C   UNL     1      -1.789  -1.656   0.000  0.00  0.00    +0.000 A 
ATOM     12  N   UNL     1      -3.204  -1.653   0.000  0.00  0.00    +0.000 NA
ATOM     13  C   UNL     1      -3.205  -2.481   0.000  0.00  0.00    +0.000 A 
ATOM     14  N   UNL     1      -2.490  -2.894   0.000  0.00  0.00    +0.000 NA
ATOM     15  C   UNL     1      -2.491  -1.240   0.000  0.00  0.00    +0.000 A 
ATOM     16  C   UNL     1      -0.802  -0.578   0.000  0.00  0.00    +0.000 C 
ENDBRANCH   4  15
BRANCH   1  17
ATOM     17  C   UNL     1      -1.786   1.651   0.000  0.00  0.00    +0.000 C 
ATOM     18  N   UNL     1      -1.073   1.239   0.000  0.00  0.00    +0.000 NA
ATOM     19  O   UNL     1      -1.794   2.477   0.000  0.00  0.00    +0.000 OA
BRANCH  18  22
ATOM     20  C   UNL     1       1.073   1.654   0.000  0.00  0.00    +0.000 A 
ATOM     21  C   UNL     1      -0.357   2.481   0.000  0.00  0.00    +0.000 A 
ATOM     22  C   UNL     1      -0.358   1.653   0.000  0.00  0.00    +0.000 A 
ATOM     23  C   UNL     1       0.356   1.240   0.000  0.00  0.00    +0.000 A 
ATOM     24  C   UNL     1       1.070   2.484   0.000  0.00  0.00    +0.000 A 
ATOM     25  C   UNL     1       0.355   2.894   0.000  0.00  0.00    +0.000 A 
BRANCH  20  26
ATOM     26  O   UNL     1       1.786   1.241   0.000  0.00  0.00    +0.000 OA
BRANCH  26  27
ATOM     27  C   UNL     1       2.498   1.654   0.000  0.00  0.00    +0.000 C 
ATOM     28  N   UNL     1       3.211   1.241   0.000  0.00  0.00    +0.000 N 
ATOM     29  C   UNL     1       3.923   1.654   0.000  0.00  0.00    +0.000 C 
ATOM     30  O   UNL     1       2.490   2.481   0.000  0.00  0.00    +0.000 OA
ATOM     31  C   UNL     1       3.203   0.418   0.000  0.00  0.00    +0.000 C 
ENDBRANCH  26  27
ENDBRANCH  20  26
ENDBRANCH  18  22
ENDBRANCH   1  17
BRANCH   1  33
ATOM     32  N   UNL     1      -3.923   1.235   0.000  0.00  0.00    +0.000 NA
ATOM     33  C   UNL     1      -3.211   1.647   0.000  0.00  0.00    +0.000 C 
ENDBRANCH   1  33
TORSDOF 6
