REMARK  Name = 
REMARK  6 active torsions:
REMARK  status: ('A' for Active; 'I' for Inactive)
REMARK    1  A    between atoms: O_2  and  C_3
REMARK    2  A    between atoms: C_4  and  C_5
REMARK    3  A    between atoms: C_5  and  C_7
REMARK    4  A    between atoms: C_8  and  C_9
REMARK    5  A    between atoms: C_18  and  C_19
REMARK    6  A    between atoms: C_19  and  C_20
REMARK                            x       y       z     vdW  Elec       q    Type
REMARK                         _______ _______ _______ _____ _____    ______ ____
ROOT
ATOM      1  C   UNL     1       0.000  -2.475   0.000  0.00  0.00    +0.000 A 
ATOM      2  C   UNL     1       0.715  -2.888   0.000  0.00  0.00    +0.000 A 
ATOM      3  C   UNL     1       0.715  -3.712   0.000  0.00  0.00    +0.000 A 
ATOM      4  O   UNL     1       1.429  -4.125   0.000  0.00  0.00    +0.000 OA
ATOM      5  C   UNL     1       0.000  -4.125   0.000  0.00  0.00    +0.000 A 
ATOM      6  C   UNL     1      -0.715  -3.712   0.000  0.00  0.00    +0.000 A 
ATOM      7  O   UNL     1      -1.429  -4.125   0.000  0.00  0.00    +0.000 OA
ATOM      8  C   UNL     1      -0.715  -2.888   0.000  0.00  0.00    +0.000 A 
ENDROOT
BRANCH   1  10
ATOM      9  C   UNL     1      -0.715  -1.238   0.000  0.00  0.00    +0.000 C 
ATOM     10  O   UNL     1       0.000  -1.650   0.000  0.00  0.00    +0.000 OA
ENDBRANCH   1  10
BRANCH   2  11
ATOM     11  C   UNL     1       1.429  -2.475   0.000  0.00  0.00    +0.000 C 
ATOM     12  O   UNL     1       2.143  -2.888   0.000  0.00  0.00    +0.000 OA
BRANCH  11  13
ATOM     13  C   UNL     1       1.429  -1.650   0.000  0.00  0.00    +0.000 C 
ATOM     14  C   UNL     1       0.715  -1.238   0.000  0.00  0.00    +0.000 C 
BRANCH  14  15
ATOM     15  C   UNL     1       0.715  -0.412   0.000  0.00  0.00    +0.000 A 
ATOM     16  C   UNL     1       0.000   0.000   0.000  0.00  0.00    +0.000 A 
ATOM     17  C   UNL     1       0.000   0.825   0.000  0.00  0.00    +0.000 A 
ATOM     18  C   UNL     1       0.715   1.238   0.000  0.00  0.00    +0.000 A 
ATOM     19  O   UNL     1       0.715   2.062   0.000  0.00  0.00    +0.000 OA
ATOM     20  C   UNL     1       1.429   0.825   0.000  0.00  0.00    +0.000 A 
ATOM     21  C   UNL     1       1.429   0.000   0.000  0.00  0.00    +0.000 A 
ENDBRANCH  14  15
ENDBRANCH  11  13
ENDBRANCH   2  11
BRANCH   5  22
ATOM     22  C   UNL     1       0.000  -4.950   0.000  0.00  0.00    +0.000 C 
BRANCH  22  23
ATOM     23  C   UNL     1       0.715  -5.362   0.000  0.00  0.00    +0.000 C 
ATOM     24  C   UNL     1       0.715  -6.188   0.000  0.00  0.00    +0.000 C 
ATOM     25  C   UNL     1       1.429  -6.600   0.000  0.00  0.00    +0.000 C 
ATOM     26  C   UNL     1       0.000  -6.600   0.000  0.00  0.00    +0.000 C 
ENDBRANCH  22  23
ENDBRANCH   5  22
TORSDOF 6
