REMARK  Name = 
REMARK  4 active torsions:
REMARK  status: ('A' for Active; 'I' for Inactive)
REMARK    1  A    between atoms: C_3  and  C_9
REMARK    2  A    between atoms: C_9  and  C_11
REMARK    3  A    between atoms: C_11  and  CA_12
REMARK    4  A    between atoms: CA_12  and  C_13
REMARK                            x       y       z     vdW  Elec       q    Type
REMARK                         _______ _______ _______ _____ _____    ______ ____
ROOT
ATOM      1  C   UNL     1      -3.572   2.062   0.000  0.00  0.00    +0.000 A 
ATOM      2  C   UNL     1      -2.858   2.475   0.000  0.00  0.00    +0.000 A 
ATOM      3  C   UNL     1      -2.143   2.062   0.000  0.00  0.00    +0.000 A 
ATOM      4  C   UNL     1      -2.143   1.238   0.000  0.00  0.00    +0.000 A 
ATOM      5  C   UNL     1      -2.858   0.825   0.000  0.00  0.00    +0.000 A 
ATOM      6  C   UNL     1      -3.572   1.238   0.000  0.00  0.00    +0.000 A 
ATOM      7 CL   UNL     1      -4.287   0.825   0.000  0.00  0.00    +0.000 Cl
ATOM      8  N   UNL     1      -1.429   0.825   0.000  0.00  0.00    +0.000 NA
ENDROOT
BRANCH   3   9
ATOM      9  C   UNL     1      -1.429   2.475   0.000  0.00  0.00    +0.000 C 
ATOM     10  O   UNL     1      -1.429   3.300   0.000  0.00  0.00    +0.000 OA
BRANCH   9  11
ATOM     11  C   UNL     1      -0.715   2.062   0.000  0.00  0.00    +0.000 C 
BRANCH  11  12
ATOM     12  CA  UNL     1       0.000   2.475   0.000  0.00  0.00    +0.000 C 
ATOM     13  N   UNL     1       0.000   3.300   0.000  0.00  0.00    +0.000 NA
BRANCH  12  14
ATOM     14  C   UNL     1       0.715   2.062   0.000  0.00  0.00    +0.000 C 
ATOM     15  O   UNL     1       1.429   2.475   0.000  0.00  0.00    +0.000 OA
ATOM     16  OXT UNL     1       0.715   1.238   0.000  0.00  0.00    +0.000 OA
ENDBRANCH  12  14
ENDBRANCH  11  12
ENDBRANCH   9  11
ENDBRANCH   3   9
TORSDOF 4
