REMARK  Name = 
REMARK  7 active torsions:
REMARK  status: ('A' for Active; 'I' for Inactive)
REMARK    1  A    between atoms: O_2  and  C_3
REMARK    2  A    between atoms: C_3  and  C_23
REMARK    3  A    between atoms: C_6  and  C_9
REMARK    4  A    between atoms: C_11  and  N_12
REMARK    5  A    between atoms: N_25  and  C_26
REMARK    6  A    between atoms: C_26  and  C_28
REMARK    7  A    between atoms: C_31  and  N_34
REMARK                            x       y       z     vdW  Elec       q    Type
REMARK                         _______ _______ _______ _____ _____    ______ ____
ROOT
ATOM      1  C   UNL     1       6.032   5.153   0.000  0.00  0.00    +0.000 C 
ATOM      2  C   UNL     1       6.747   4.740   0.000  0.00  0.00    +0.000 C 
ATOM      3  C   UNL     1       6.747   3.915   0.000  0.00  0.00    +0.000 C 
ATOM      4  C   UNL     1       6.032   3.503   0.000  0.00  0.00    +0.000 C 
ATOM      5  C   UNL     1       5.318   3.915   0.000  0.00  0.00    +0.000 C 
ATOM      6  C   UNL     1       5.318   4.740   0.000  0.00  0.00    +0.000 C 
ENDROOT
BRANCH   4   7
ATOM      7  C   UNL     1       6.032   2.678   0.000  0.00  0.00    +0.000 A 
ATOM      8  N   UNL     1       6.747   2.265   0.000  0.00  0.00    +0.000 NA
ATOM      9  C   UNL     1       6.747   1.440   0.000  0.00  0.00    +0.000 A 
ATOM     10  C   UNL     1       6.032   1.028   0.000  0.00  0.00    +0.000 A 
ATOM     11  C   UNL     1       5.318   1.440   0.000  0.00  0.00    +0.000 A 
ATOM     12  C   UNL     1       4.603   1.028   0.000  0.00  0.00    +0.000 C 
ATOM     13  N   UNL     1       5.318   2.265   0.000  0.00  0.00    +0.000 NA
BRANCH   9  14
ATOM     14  N   UNL     1       7.461   1.028   0.000  0.00  0.00    +0.000 NA
ATOM     15  C   UNL     1       7.461   0.203   0.000  0.00  0.00    +0.000 A 
ATOM     16  N   UNL     1       8.129  -0.282   0.000  0.00  0.00    +0.000 NA
ATOM     17  N   UNL     1       7.874  -1.067   0.000  0.00  0.00    +0.000 NA
ATOM     18  C   UNL     1       7.049  -1.067   0.000  0.00  0.00    +0.000 A 
ATOM     19  C   UNL     1       6.564  -1.734   0.000  0.00  0.00    +0.000 C 
ATOM     20  C   UNL     1       6.794  -0.282   0.000  0.00  0.00    +0.000 A 
ENDBRANCH   9  14
ENDBRANCH   4   7
BRANCH   1  21
ATOM     21  C   UNL     1       6.563   5.785   0.000  0.00  0.00    +0.000 C 
ATOM     22  O   UNL     1       6.280   6.560   0.000  0.00  0.00    +0.000 OA
ATOM     23  N   UNL     1       7.375   5.642   0.000  0.00  0.00    +0.000 NA
BRANCH  23  24
ATOM     24  C   UNL     1       7.905   6.274   0.000  0.00  0.00    +0.000 C 
ATOM     25  C   UNL     1       7.623   7.049   0.000  0.00  0.00    +0.000 C 
BRANCH  24  26
ATOM     26  C   UNL     1       8.718   6.130   0.000  0.00  0.00    +0.000 A 
ATOM     27  C   UNL     1       9.248   6.762   0.000  0.00  0.00    +0.000 A 
ATOM     28  C   UNL     1      10.061   6.619   0.000  0.00  0.00    +0.000 A 
ATOM     29  C   UNL     1      10.342   5.844   0.000  0.00  0.00    +0.000 A 
ATOM     30  N   UNL     1       9.812   5.212   0.000  0.00  0.00    +0.000 NA
ATOM     31  C   UNL     1       9.000   5.355   0.000  0.00  0.00    +0.000 A 
BRANCH  29  32
ATOM     32  N   UNL     1      11.155   5.701   0.000  0.00  0.00    +0.000 N 
ATOM     33  C   UNL     1      11.749   6.274   0.000  0.00  0.00    +0.000 A 
ATOM     34  C   UNL     1      12.477   5.886   0.000  0.00  0.00    +0.000 A 
ATOM     35  F   UNL     1      13.219   6.248   0.000  0.00  0.00    +0.000 F 
ATOM     36  C   UNL     1      12.334   5.074   0.000  0.00  0.00    +0.000 A 
ATOM     37  N   UNL     1      11.517   4.959   0.000  0.00  0.00    +0.000 NA
ENDBRANCH  29  32
ENDBRANCH  24  26
ENDBRANCH  23  24
ENDBRANCH   1  21
BRANCH   1  39
ATOM     38  C   UNL     1       4.689   5.642   0.000  0.00  0.00    +0.000 C 
ATOM     39  O   UNL     1       5.502   5.785   0.000  0.00  0.00    +0.000 OA
ENDBRANCH   1  39
TORSDOF 7
