REMARK  Name = 
REMARK  5 active torsions:
REMARK  status: ('A' for Active; 'I' for Inactive)
REMARK    1  A    between atoms: C_2  and  C_3
REMARK    2  A    between atoms: C_3  and  N_4
REMARK    3  A    between atoms: C_6  and  C_17
REMARK    4  A    between atoms: C_7  and  C_10
REMARK    5  A    between atoms: C_20  and  S_23
REMARK                            x       y       z     vdW  Elec       q    Type
REMARK                         _______ _______ _______ _____ _____    ______ ____
ROOT
ATOM      1  N   UNL     1       0.715  -1.238   0.000  0.00  0.00    +0.000 N 
ATOM      2  C   UNL     1       1.382  -1.722   0.000  0.00  0.00    +0.000 C 
ATOM      3  C   UNL     1       1.127  -2.507   0.000  0.00  0.00    +0.000 C 
ATOM      4  C   UNL     1       0.302  -2.507   0.000  0.00  0.00    +0.000 C 
ATOM      5  C   UNL     1       0.047  -1.722   0.000  0.00  0.00    +0.000 C 
ATOM      6  O   UNL     1      -0.738  -1.468   0.000  0.00  0.00    +0.000 OA
ENDROOT
BRANCH   4   7
ATOM      7  C   UNL     1      -0.183  -3.175   0.000  0.00  0.00    +0.000 A 
ATOM      8  C   UNL     1       0.153  -3.928   0.000  0.00  0.00    +0.000 A 
ATOM      9  C   UNL     1      -0.332  -4.596   0.000  0.00  0.00    +0.000 A 
ATOM     10  C   UNL     1      -1.153  -4.509   0.000  0.00  0.00    +0.000 A 
ATOM     11  C   UNL     1      -1.488  -3.756   0.000  0.00  0.00    +0.000 A 
ATOM     12  C   UNL     1      -1.003  -3.088   0.000  0.00  0.00    +0.000 A 
ATOM     13  C   UNL     1      -1.638  -5.177   0.000  0.00  0.00    +0.000 C 
ENDBRANCH   4   7
BRANCH   3  14
ATOM     14  C   UNL     1       1.612  -3.175   0.000  0.00  0.00    +0.000 A 
ATOM     15  C   UNL     1       2.432  -3.088   0.000  0.00  0.00    +0.000 A 
ATOM     16  C   UNL     1       2.917  -3.756   0.000  0.00  0.00    +0.000 A 
ATOM     17  C   UNL     1       2.582  -4.509   0.000  0.00  0.00    +0.000 A 
ATOM     18  C   UNL     1       1.761  -4.596   0.000  0.00  0.00    +0.000 A 
ATOM     19  C   UNL     1       1.276  -3.928   0.000  0.00  0.00    +0.000 A 
BRANCH  17  20
ATOM     20  S   UNL     1       3.067  -5.177   0.000  0.00  0.00    +0.000 S 
ATOM     21  O   UNL     1       3.552  -5.844   0.000  0.00  0.00    +0.000 OA
ATOM     22  O   UNL     1       2.399  -5.662   0.000  0.00  0.00    +0.000 OA
ATOM     23  C   UNL     1       3.734  -4.692   0.000  0.00  0.00    +0.000 C 
ENDBRANCH  17  20
ENDBRANCH   3  14
BRANCH   1  24
ATOM     24  C   UNL     1       0.715  -0.412   0.000  0.00  0.00    +0.000 C 
BRANCH  24  26
ATOM     25  C   UNL     1       0.000   0.825   0.000  0.00  0.00    +0.000 C 
ATOM     26  C   UNL     1       0.000   0.000   0.000  0.00  0.00    +0.000 C 
ENDBRANCH  24  26
ENDBRANCH   1  24
TORSDOF 5
