REMARK  Name = 
REMARK  1 active torsions:
REMARK  status: ('A' for Active; 'I' for Inactive)
REMARK    1  A    between atoms: C_8  and  C_11
REMARK                            x       y       z     vdW  Elec       q    Type
REMARK                         _______ _______ _______ _____ _____    ______ ____
ROOT
ATOM      1  C   UNL     1       1.872  -1.238   0.000  0.00  0.00    +0.000 C 
ATOM      2  C   UNL     1       2.587  -0.825   0.000  0.00  0.00    +0.000 C 
ATOM      3  C   UNL     1       0.373   0.255   0.000  0.00  0.00    +0.000 A 
ATOM      4  C   UNL     1       1.158   0.000   0.000  0.00  0.00    +0.000 A 
ATOM      5  C   UNL     1       1.158  -0.825   0.000  0.00  0.00    +0.000 A 
ATOM      6  C   UNL     1      -0.112  -0.412   0.000  0.00  0.00    +0.000 A 
ATOM      7  C   UNL     1       1.872   0.412   0.000  0.00  0.00    +0.000 C 
ATOM      8  N   UNL     1       2.587   0.000   0.000  0.00  0.00    +0.000 NA
ATOM      9  N   UNL     1       0.373  -1.080   0.000  0.00  0.00    +0.000 NA
ATOM     10  O   UNL     1       1.872   1.238   0.000  0.00  0.00    +0.000 OA
ENDROOT
BRANCH   6  15
ATOM     11  C   UNL     1      -1.349   0.302   0.000  0.00  0.00    +0.000 A 
ATOM     12  C   UNL     1      -1.349  -1.127   0.000  0.00  0.00    +0.000 A 
ATOM     13  C   UNL     1      -2.174   0.302   0.000  0.00  0.00    +0.000 A 
ATOM     14  C   UNL     1      -2.174  -1.127   0.000  0.00  0.00    +0.000 A 
ATOM     15  C   UNL     1      -0.937  -0.412   0.000  0.00  0.00    +0.000 A 
ATOM     16  N   UNL     1      -2.587  -0.412   0.000  0.00  0.00    +0.000 NA
ENDBRANCH   6  15
TORSDOF 1
