REMARK  Name = 
REMARK  8 active torsions:
REMARK  status: ('A' for Active; 'I' for Inactive)
REMARK    1  A    between atoms: N_10  and  C_16
REMARK    2  A    between atoms: C_14  and  C_15
REMARK    3  A    between atoms: C_14  and  C_16
REMARK    4  A    between atoms: C_15  and  C_17
REMARK    5  A    between atoms: C_17  and  C_22
REMARK    6  A    between atoms: C_20  and  C_23
REMARK    7  A    between atoms: C_23  and  C_25
REMARK    8  A    between atoms: C_25  and  C_27
REMARK                            x       y       z     vdW  Elec       q    Type
REMARK                         _______ _______ _______ _____ _____    ______ ____
ROOT
ATOM      1  O   UNL     1      -1.456   0.000   0.000  0.00  0.00    +0.000 OA
ATOM      2  O   UNL     1       1.415   2.504   0.000  0.00  0.00    +0.000 OA
ATOM      3  O   UNL     1       2.885  -0.020   0.000  0.00  0.00    +0.000 OA
ATOM      4  N   UNL     1      -0.027   0.000   0.000  0.00  0.00    +0.000 N 
ATOM      5  N   UNL     1       1.425  -0.029   0.000  0.00  0.00    +0.000 N 
ATOM      6  N   UNL     1      -0.027   1.650   0.000  0.00  0.00    +0.000 NA
ATOM      7  N   UNL     1       2.172   1.255   0.000  0.00  0.00    +0.000 N 
ATOM      8  C   UNL     1       0.687   0.412   0.000  0.00  0.00    +0.000 A 
ATOM      9  C   UNL     1      -0.742   0.412   0.000  0.00  0.00    +0.000 A 
ATOM     10  C   UNL     1      -0.742   1.238   0.000  0.00  0.00    +0.000 A 
ATOM     11  C   UNL     1       0.687   1.238   0.000  0.00  0.00    +0.000 A 
ATOM     12  C   UNL     1       1.425   1.679   0.000  0.00  0.00    +0.000 A 
ATOM     13  C   UNL     1       2.172   0.395   0.000  0.00  0.00    +0.000 A 
ATOM     14  H   UNL     1       1.419  -0.540   0.000  0.00  0.00    +0.000 HD
ATOM     15  H   UNL     1       2.614   1.512   0.000  0.00  0.00    +0.000 HD
ENDROOT
BRANCH   4  16
ATOM     16  C   UNL     1      -0.027  -0.825   0.000  0.00  0.00    +0.000 C 
BRANCH  16  18
ATOM     17  O   UNL     1      -1.456  -0.825   0.000  0.00  0.00    +0.000 OA
ATOM     18  C   UNL     1      -0.742  -1.238   0.000  0.00  0.00    +0.000 C 
BRANCH  18  20
ATOM     19  O   UNL     1      -0.027  -2.475   0.000  0.00  0.00    +0.000 OA
ATOM     20  C   UNL     1      -0.742  -2.062   0.000  0.00  0.00    +0.000 C 
BRANCH  20  22
ATOM     21  O   UNL     1      -2.171  -2.062   0.000  0.00  0.00    +0.000 OA
ATOM     22  C   UNL     1      -1.456  -2.475   0.000  0.00  0.00    +0.000 C 
BRANCH  22  24
ATOM     23  O   UNL     1      -2.171  -3.712   0.000  0.00  0.00    +0.000 OA
ATOM     24  C   UNL     1      -1.456  -3.300   0.000  0.00  0.00    +0.000 C 
ENDBRANCH  22  24
ENDBRANCH  20  22
ENDBRANCH  18  20
ENDBRANCH  16  18
ENDBRANCH   4  16
BRANCH  10  25
ATOM     25  C   UNL     1      -1.456   1.650   0.000  0.00  0.00    +0.000 C 
BRANCH  25  26
ATOM     26  C   UNL     1      -1.456   2.475   0.000  0.00  0.00    +0.000 C 
BRANCH  26  29
ATOM     27  O   UNL     1      -2.171   3.712   0.000  0.00  0.00    +0.000 OA
ATOM     28  O   UNL     1      -2.885   2.475   0.000  0.00  0.00    +0.000 OA
ATOM     29  C   UNL     1      -2.171   2.888   0.000  0.00  0.00    +0.000 C 
ENDBRANCH  26  29
ENDBRANCH  25  26
ENDBRANCH  10  25
TORSDOF 8
