REMARK  Name = 
REMARK  4 active torsions:
REMARK  status: ('A' for Active; 'I' for Inactive)
REMARK    1  A    between atoms: C_2  and  O_16
REMARK    2  A    between atoms: C_5  and  C_22
REMARK    3  A    between atoms: C_11  and  C_17
REMARK    4  A    between atoms: C_12  and  O_16
REMARK                            x       y       z     vdW  Elec       q    Type
REMARK                         _______ _______ _______ _____ _____    ______ ____
ROOT
ATOM      1  O   UNL     1       1.072  -0.412   0.000  0.00  0.00    +0.000 OA
ENDROOT
BRANCH   1   3
ATOM      2  O   UNL     1      -0.357  -0.412   0.000  0.00  0.00    +0.000 OA
ATOM      3  C   UNL     1       0.357  -0.825   0.000  0.00  0.00    +0.000 C 
ATOM      4  C   UNL     1       0.357  -1.650   0.000  0.00  0.00    +0.000 C 
ATOM      5  C   UNL     1      -0.357  -2.062   0.000  0.00  0.00    +0.000 C 
ATOM      6  C   UNL     1      -1.072  -0.825   0.000  0.00  0.00    +0.000 C 
ATOM      7  C   UNL     1      -1.072  -1.650   0.000  0.00  0.00    +0.000 C 
ATOM      8  O   UNL     1       1.072  -2.062   0.000  0.00  0.00    +0.000 OA
ATOM      9  O   UNL     1      -0.357  -2.887   0.000  0.00  0.00    +0.000 OA
ATOM     10  O   UNL     1      -1.786  -2.062   0.000  0.00  0.00    +0.000 OA
BRANCH   6  11
ATOM     11  C   UNL     1      -1.786  -0.412   0.000  0.00  0.00    +0.000 C 
ATOM     12  O   UNL     1      -2.501  -0.825   0.000  0.00  0.00    +0.000 OA
ENDBRANCH   6  11
ENDBRANCH   1   3
BRANCH   1  18
ATOM     13  C   UNL     1       1.072   2.062   0.000  0.00  0.00    +0.000 C 
ATOM     14  C   UNL     1       1.786   1.650   0.000  0.00  0.00    +0.000 C 
ATOM     15  O   UNL     1       0.357   1.650   0.000  0.00  0.00    +0.000 OA
ATOM     16  C   UNL     1       1.786   0.825   0.000  0.00  0.00    +0.000 C 
ATOM     17  C   UNL     1       0.357   0.825   0.000  0.00  0.00    +0.000 C 
ATOM     18  C   UNL     1       1.072   0.412   0.000  0.00  0.00    +0.000 C 
ATOM     19  O   UNL     1       1.072   2.887   0.000  0.00  0.00    +0.000 OA
ATOM     20  O   UNL     1       2.501   2.062   0.000  0.00  0.00    +0.000 OA
ATOM     21  O   UNL     1       2.501   0.412   0.000  0.00  0.00    +0.000 OA
BRANCH  17  22
ATOM     22  C   UNL     1      -0.357   0.412   0.000  0.00  0.00    +0.000 C 
ATOM     23  O   UNL     1      -1.072   0.825   0.000  0.00  0.00    +0.000 OA
ENDBRANCH  17  22
ENDBRANCH   1  18
TORSDOF 4
