REMARK  Name = 
REMARK  20 active torsions:
REMARK  status: ('A' for Active; 'I' for Inactive)
REMARK    1  A    between atoms: P_1  and  N_13
REMARK    2  A    between atoms: P_1  and  C_29
REMARK    3  A    between atoms: O_4  and  C_30
REMARK    4  A    between atoms: O_7  and  C_34
REMARK    5  A    between atoms: O_7  and  C_42
REMARK    6  A    between atoms: N_13  and  C_26
REMARK    7  A    between atoms: N_14  and  C_28
REMARK    8  A    between atoms: N_15  and  C_29
REMARK    9  A    between atoms: N_16  and  C_39
REMARK   10  A    between atoms: C_17  and  C_30
REMARK   11  A    between atoms: C_18  and  C_27
REMARK   12  A    between atoms: C_25  and  C_26
REMARK   13  A    between atoms: C_28  and  C_31
REMARK   14  A    between atoms: C_28  and  C_32
REMARK   15  A    between atoms: C_29  and  C_33
REMARK   16  A    between atoms: C_31  and  C_35
REMARK   17  A    between atoms: C_33  and  C_38
REMARK   18  A    between atoms: C_35  and  C_37
REMARK   19  A    between atoms: C_37  and  C_39
REMARK   20  A    between atoms: C_42  and  C_46
REMARK                            x       y       z     vdW  Elec       q    Type
REMARK                         _______ _______ _______ _____ _____    ______ ____
ROOT
ATOM      1  O   UNL     1      -0.126  -0.079   0.000  0.00  0.00    +0.000 OA
ATOM      2  N   UNL     1      -0.840  -1.316   0.000  0.00  0.00    +0.000 N 
ATOM      3  C   UNL     1      -0.126  -0.904   0.000  0.00  0.00    +0.000 C 
ATOM      4  H   UNL     1      -0.840  -1.828   0.000  0.00  0.00    +0.000 HD
ENDROOT
BRANCH   2   5
ATOM      5  C   UNL     1      -1.554  -0.904   0.000  0.00  0.00    +0.000 C 
BRANCH   5   6
ATOM      6  P   UNL     1      -1.554  -0.079   0.000  0.00  0.00    +0.000 P 
ATOM      7  O   UNL     1      -0.730  -0.079   0.000  0.00  0.00    +0.000 OA
ATOM      8  O   UNL     1      -2.380  -0.079   0.000  0.00  0.00    +0.000 OA
BRANCH   6   9
ATOM      9  N   UNL     1      -1.554   0.746   0.000  0.00  0.00    +0.000 NA
ATOM     10  H   UNL     1      -1.111   1.002   0.000  0.00  0.00    +0.000 HD
BRANCH   9  11
ATOM     11  C   UNL     1      -2.269   1.159   0.000  0.00  0.00    +0.000 C 
ATOM     12  C   UNL     1      -2.983   0.746   0.000  0.00  0.00    +0.000 C 
BRANCH  11  19
ATOM     13  O   UNL     1      -1.554   2.396   0.000  0.00  0.00    +0.000 OA
ATOM     14  N   UNL     1      -2.983   2.396   0.000  0.00  0.00    +0.000 N 
ATOM     15  C   UNL     1      -3.070   3.217   0.000  0.00  0.00    +0.000 C 
ATOM     16  C   UNL     1      -3.877   3.388   0.000  0.00  0.00    +0.000 C 
ATOM     17  C   UNL     1      -4.289   2.674   0.000  0.00  0.00    +0.000 C 
ATOM     18  C   UNL     1      -3.737   2.061   0.000  0.00  0.00    +0.000 C 
ATOM     19  C   UNL     1      -2.269   1.984   0.000  0.00  0.00    +0.000 C 
BRANCH  15  21
ATOM     20  O   UNL     1      -1.672   3.514   0.000  0.00  0.00    +0.000 OA
ATOM     21  C   UNL     1      -2.457   3.769   0.000  0.00  0.00    +0.000 C 
BRANCH  21  22
ATOM     22  O   UNL     1      -2.628   4.576   0.000  0.00  0.00    +0.000 OA
ATOM     23  C   UNL     1      -2.015   5.128   0.000  0.00  0.00    +0.000 C 
ENDBRANCH  21  22
ENDBRANCH  15  21
ENDBRANCH  11  19
ENDBRANCH   9  11
ENDBRANCH   6   9
ENDBRANCH   5   6
BRANCH   5  24
ATOM     24  C   UNL     1      -2.269  -1.316   0.000  0.00  0.00    +0.000 C 
BRANCH  24  25
ATOM     25  C   UNL     1      -2.269  -2.141   0.000  0.00  0.00    +0.000 A 
ATOM     26  C   UNL     1      -1.554  -2.554   0.000  0.00  0.00    +0.000 A 
ATOM     27  C   UNL     1      -2.983  -2.554   0.000  0.00  0.00    +0.000 A 
ATOM     28  C   UNL     1      -1.554  -3.379   0.000  0.00  0.00    +0.000 A 
ATOM     29  C   UNL     1      -2.983  -3.379   0.000  0.00  0.00    +0.000 A 
ATOM     30  C   UNL     1      -2.269  -3.791   0.000  0.00  0.00    +0.000 A 
ENDBRANCH  24  25
ENDBRANCH   5  24
ENDBRANCH   2   5
BRANCH   3  31
ATOM     31  C   UNL     1       0.589  -1.316   0.000  0.00  0.00    +0.000 C 
BRANCH  31  33
ATOM     32  O   UNL     1       2.018  -2.141   0.000  0.00  0.00    +0.000 OA
ATOM     33  N   UNL     1       1.303  -0.904   0.000  0.00  0.00    +0.000 N 
ATOM     34  C   UNL     1       2.018  -1.316   0.000  0.00  0.00    +0.000 C 
ATOM     35  H   UNL     1       1.303  -0.392   0.000  0.00  0.00    +0.000 HD
BRANCH  34  38
ATOM     36  O   UNL     1       1.421   0.214   0.000  0.00  0.00    +0.000 OA
ATOM     37  N   UNL     1       2.818  -0.083   0.000  0.00  0.00    +0.000 N 
ATOM     38  C   UNL     1       2.732  -0.904   0.000  0.00  0.00    +0.000 C 
ATOM     39  C   UNL     1       3.486  -1.239   0.000  0.00  0.00    +0.000 C 
ATOM     40  C   UNL     1       4.038  -0.626   0.000  0.00  0.00    +0.000 C 
ATOM     41  C   UNL     1       3.626   0.088   0.000  0.00  0.00    +0.000 C 
ATOM     42  C   UNL     1       2.205   0.469   0.000  0.00  0.00    +0.000 C 
BRANCH  42  43
ATOM     43  O   UNL     1       2.377   1.276   0.000  0.00  0.00    +0.000 OA
BRANCH  43  44
ATOM     44  C   UNL     1       3.162   1.531   0.000  0.00  0.00    +0.000 C 
BRANCH  44  45
ATOM     45  C   UNL     1       3.333   2.338   0.000  0.00  0.00    +0.000 A 
ATOM     46  C   UNL     1       2.720   2.890   0.000  0.00  0.00    +0.000 A 
ATOM     47  C   UNL     1       4.118   2.592   0.000  0.00  0.00    +0.000 A 
ATOM     48  C   UNL     1       2.892   3.697   0.000  0.00  0.00    +0.000 A 
ATOM     49  C   UNL     1       4.289   3.400   0.000  0.00  0.00    +0.000 A 
ATOM     50  C   UNL     1       3.676   3.951   0.000  0.00  0.00    +0.000 A 
ENDBRANCH  44  45
ENDBRANCH  43  44
ENDBRANCH  42  43
ENDBRANCH  34  38
ENDBRANCH  31  33
BRANCH  31  51
ATOM     51  C   UNL     1       0.589  -2.141   0.000  0.00  0.00    +0.000 C 
BRANCH  51  52
ATOM     52  C   UNL     1       1.303  -2.554   0.000  0.00  0.00    +0.000 C 
BRANCH  52  53
ATOM     53  C   UNL     1       1.303  -3.379   0.000  0.00  0.00    +0.000 C 
BRANCH  53  54
ATOM     54  C   UNL     1       2.018  -3.791   0.000  0.00  0.00    +0.000 C 
BRANCH  54  55
ATOM     55  N   UNL     1       2.018  -4.616   0.000  0.00  0.00    +0.000 N 
ATOM     56  H   UNL     1       1.506  -4.616   0.000  0.00  0.00    +0.000 HD
ATOM     57  H   UNL     1       2.529  -4.616   0.000  0.00  0.00    +0.000 HD
ATOM     58  H   UNL     1       2.018  -5.128   0.000  0.00  0.00    +0.000 HD
ENDBRANCH  54  55
ENDBRANCH  53  54
ENDBRANCH  52  53
ENDBRANCH  51  52
ENDBRANCH  31  51
ENDBRANCH   3  31
TORSDOF 20
