REMARK  Name = 
REMARK  0 active torsions:
REMARK  status: ('A' for Active; 'I' for Inactive)
REMARK                            x       y       z     vdW  Elec       q    Type
REMARK                         _______ _______ _______ _____ _____    ______ ____
ROOT
ATOM      1  C   UNL     1      -0.527   0.695   0.000  0.00  0.00    +0.000 A 
ATOM      2  C   UNL     1       0.828   0.084   0.000  0.00  0.00    +0.000 C 
ATOM      3  N   UNL     1       0.003   0.064   0.000  0.00  0.00    +0.000 NA
ATOM      4  C   UNL     1      -1.928   0.978   0.000  0.00  0.00    +0.000 A 
ATOM      5  C   UNL     1      -1.765   1.787   0.000  0.00  0.00    +0.000 A 
ATOM      6  C   UNL     1      -0.983   2.050   0.000  0.00  0.00    +0.000 A 
ATOM      7  C   UNL     1      -1.309   0.433   0.000  0.00  0.00    +0.000 A 
ATOM      8  C   UNL     1      -0.364   1.504   0.000  0.00  0.00    +0.000 A 
ATOM      9  N   UNL     1       0.370   1.881   0.000  0.00  0.00    +0.000 NA
ATOM     10  C   UNL     1       1.325   0.742   0.000  0.00  0.00    +0.000 A 
ATOM     11  C   UNL     1       1.122   1.542   0.000  0.00  0.00    +0.000 A 
ATOM     12  C   UNL     1       1.712   2.118   0.000  0.00  0.00    +0.000 A 
ATOM     13  C   UNL     1       2.506   1.894   0.000  0.00  0.00    +0.000 A 
ATOM     14  C   UNL     1       2.710   1.095   0.000  0.00  0.00    +0.000 A 
ATOM     15  C   UNL     1       2.120   0.519   0.000  0.00  0.00    +0.000 A 
ATOM     16  N   UNL     1       1.204  -0.649   0.000  0.00  0.00    +0.000 N 
ATOM     17  C   UNL     1       2.028  -0.691   0.000  0.00  0.00    +0.000 C 
ATOM     18  C   UNL     1       2.404  -1.425   0.000  0.00  0.00    +0.000 C 
ATOM     19  N   UNL     1       1.957  -2.118   0.000  0.00  0.00    +0.000 NA
ATOM     20  C   UNL     1       1.133  -2.077   0.000  0.00  0.00    +0.000 C 
ATOM     21  C   UNL     1       0.756  -1.343   0.000  0.00  0.00    +0.000 C 
ATOM     22 CL   UNL     1      -2.710   0.715   0.000  0.00  0.00    +0.000 Cl
ENDROOT
TORSDOF 0
