REMARK  Name = 
REMARK  0 active torsions:
REMARK  status: ('A' for Active; 'I' for Inactive)
REMARK                            x       y       z     vdW  Elec       q    Type
REMARK                         _______ _______ _______ _____ _____    ______ ____
ROOT
ATOM      1  C   UNL     1      -0.357   0.000   0.000  0.00  0.00    +0.000 A 
ATOM      2  C   UNL     1      -0.357  -0.825   0.000  0.00  0.00    +0.000 A 
ATOM      3  C   UNL     1      -1.072   0.413   0.000  0.00  0.00    +0.000 A 
ATOM      4  C   UNL     1      -1.072  -1.238   0.000  0.00  0.00    +0.000 A 
ATOM      5  C   UNL     1       0.357  -1.238   0.000  0.00  0.00    +0.000 A 
ATOM      6  C   UNL     1      -1.786   0.000   0.000  0.00  0.00    +0.000 A 
ATOM      7  C   UNL     1      -1.786  -0.825   0.000  0.00  0.00    +0.000 A 
ATOM      8  C   UNL     1       1.072  -0.825   0.000  0.00  0.00    +0.000 A 
ATOM      9  C   UNL     1       0.357   0.413   0.000  0.00  0.00    +0.000 A 
ATOM     10  O   UNL     1       0.357   1.238   0.000  0.00  0.00    +0.000 OA
ATOM     11  C   UNL     1       1.072   0.000   0.000  0.00  0.00    +0.000 A 
ATOM     12  O   UNL     1       1.786   0.413   0.000  0.00  0.00    +0.000 OA
ENDROOT
TORSDOF 0
