REMARK  Name = 
REMARK  3 active torsions:
REMARK  status: ('A' for Active; 'I' for Inactive)
REMARK    1  A    between atoms: C_3  and  C_9
REMARK    2  A    between atoms: N_11  and  S_12
REMARK    3  A    between atoms: S_12  and  C_15
REMARK                            x       y       z     vdW  Elec       q    Type
REMARK                         _______ _______ _______ _____ _____    ______ ____
ROOT
ATOM      1  C   UNL     1      -2.037   6.003   0.000  0.00  0.00    +0.000 C 
ATOM      2  O   UNL     1      -1.322   5.590   0.000  0.00  0.00    +0.000 OA
ATOM      3  N   UNL     1      -2.751   5.590   0.000  0.00  0.00    +0.000 NA
ENDROOT
BRANCH   1   6
ATOM      4  C   UNL     1      -1.322   8.065   0.000  0.00  0.00    +0.000 A 
ATOM      5  C   UNL     1      -1.322   7.240   0.000  0.00  0.00    +0.000 A 
ATOM      6  C   UNL     1      -2.037   6.828   0.000  0.00  0.00    +0.000 A 
ATOM      7  C   UNL     1      -2.751   7.240   0.000  0.00  0.00    +0.000 A 
ATOM      8  C   UNL     1      -2.751   8.065   0.000  0.00  0.00    +0.000 A 
ATOM      9  C   UNL     1      -2.037   8.478   0.000  0.00  0.00    +0.000 A 
ATOM     10 CL   UNL     1      -2.037   9.303   0.000  0.00  0.00    +0.000 Cl
ATOM     11 CL   UNL     1      -3.466   6.828   0.000  0.00  0.00    +0.000 Cl
ENDBRANCH   1   6
BRANCH   3  12
ATOM     12  S   UNL     1      -2.751   4.765   0.000  0.00  0.00    +0.000 S 
ATOM     13  O   UNL     1      -3.576   4.765   0.000  0.00  0.00    +0.000 OA
ATOM     14  O   UNL     1      -1.926   4.765   0.000  0.00  0.00    +0.000 OA
BRANCH  12  15
ATOM     15  C   UNL     1      -2.751   3.940   0.000  0.00  0.00    +0.000 A 
ATOM     16  C   UNL     1      -2.084   3.455   0.000  0.00  0.00    +0.000 A 
ATOM     17  C   UNL     1      -2.339   2.671   0.000  0.00  0.00    +0.000 A 
ATOM     18  C   UNL     1      -3.164   2.671   0.000  0.00  0.00    +0.000 A 
ATOM     19  S   UNL     1      -3.419   3.455   0.000  0.00  0.00    +0.000 S 
ATOM     20 BR   UNL     1      -3.649   2.003   0.000  0.00  0.00    +0.000 Br
ENDBRANCH  12  15
ENDBRANCH   3  12
TORSDOF 3
