REMARK  Name = 
REMARK  8 active torsions:
REMARK  status: ('A' for Active; 'I' for Inactive)
REMARK    1  A    between atoms: C_2  and  O_3
REMARK    2  A    between atoms: O_3  and  C_4
REMARK    3  A    between atoms: C_4  and  C_6
REMARK    4  A    between atoms: C_7  and  C_22
REMARK    5  A    between atoms: C_11  and  C_17
REMARK    6  A    between atoms: C_17  and  N_18
REMARK    7  A    between atoms: C_22  and  S_23
REMARK    8  A    between atoms: S_23  and  C_24
REMARK                            x       y       z     vdW  Elec       q    Type
REMARK                         _______ _______ _______ _____ _____    ______ ____
ROOT
ATOM      1  C   UNL     1      -0.143  -0.030   0.000  0.00  0.00    +0.000 A 
ATOM      2  C   UNL     1      -0.628  -0.698   0.000  0.00  0.00    +0.000 A 
ATOM      3  N   UNL     1      -0.143  -1.365   0.000  0.00  0.00    +0.000 N 
ATOM      4  C   UNL     1       0.641  -1.110   0.000  0.00  0.00    +0.000 A 
ATOM      5  C   UNL     1       0.641  -0.285   0.000  0.00  0.00    +0.000 A 
ATOM      6  C   UNL     1       1.356   0.127   0.000  0.00  0.00    +0.000 A 
ATOM      7  C   UNL     1       2.070  -0.285   0.000  0.00  0.00    +0.000 A 
ATOM      8  C   UNL     1       2.070  -1.110   0.000  0.00  0.00    +0.000 A 
ATOM      9  C   UNL     1       1.356  -1.523   0.000  0.00  0.00    +0.000 A 
ATOM     10 BR   UNL     1       2.784  -1.523   0.000  0.00  0.00    +0.000 Br
ATOM     11  O   UNL     1       2.784   0.127   0.000  0.00  0.00    +0.000 OA
ATOM     12  C   UNL     1      -0.398  -2.150   0.000  0.00  0.00    +0.000 C 
ENDROOT
BRANCH   1  13
ATOM     13  C   UNL     1      -0.398   0.754   0.000  0.00  0.00    +0.000 C 
ATOM     14  O   UNL     1       0.154   1.367   0.000  0.00  0.00    +0.000 OA
BRANCH  13  15
ATOM     15  O   UNL     1      -1.205   0.926   0.000  0.00  0.00    +0.000 OA
BRANCH  15  17
ATOM     16  C   UNL     1      -2.267   1.882   0.000  0.00  0.00    +0.000 C 
ATOM     17  C   UNL     1      -1.460   1.710   0.000  0.00  0.00    +0.000 C 
ENDBRANCH  15  17
ENDBRANCH  13  15
ENDBRANCH   1  13
BRANCH   2  18
ATOM     18  C   UNL     1      -1.453  -0.698   0.000  0.00  0.00    +0.000 C 
BRANCH  18  19
ATOM     19  S   UNL     1      -1.866  -1.412   0.000  0.00  0.00    +0.000 S 
BRANCH  19  20
ATOM     20  C   UNL     1      -2.691  -1.412   0.000  0.00  0.00    +0.000 A 
ATOM     21  C   UNL     1      -3.103  -2.127   0.000  0.00  0.00    +0.000 A 
ATOM     22  C   UNL     1      -3.928  -2.127   0.000  0.00  0.00    +0.000 A 
ATOM     23  C   UNL     1      -4.341  -1.412   0.000  0.00  0.00    +0.000 A 
ATOM     24  C   UNL     1      -3.928  -0.698   0.000  0.00  0.00    +0.000 A 
ATOM     25  C   UNL     1      -3.103  -0.698   0.000  0.00  0.00    +0.000 A 
ENDBRANCH  19  20
ENDBRANCH  18  19
ENDBRANCH   2  18
BRANCH   6  26
ATOM     26  C   UNL     1       1.356   0.952   0.000  0.00  0.00    +0.000 C 
BRANCH  26  27
ATOM     27  N   UNL     1       2.070   1.365   0.000  0.00  0.00    +0.000 NA
ATOM     28  C   UNL     1       2.070   2.190   0.000  0.00  0.00    +0.000 C 
ATOM     29  C   UNL     1       2.784   0.952   0.000  0.00  0.00    +0.000 C 
ENDBRANCH  26  27
ENDBRANCH   6  26
TORSDOF 8
