REMARK  Name = 
REMARK  11 active torsions:
REMARK  status: ('A' for Active; 'I' for Inactive)
REMARK    1  A    between atoms: N_8  and  C_17
REMARK    2  A    between atoms: N_9  and  C_11
REMARK    3  A    between atoms: N_10  and  C_18
REMARK    4  A    between atoms: C_17  and  C_20
REMARK    5  A    between atoms: C_18  and  C_19
REMARK    6  A    between atoms: C_18  and  C_21
REMARK    7  A    between atoms: C_21  and  C_22
REMARK    8  A    between atoms: C_28  and  C_34
REMARK    9  A    between atoms: C_31  and  C_37
REMARK   10  A    between atoms: C_32  and  C_35
REMARK   11  A    between atoms: C_35  and  C_40
REMARK                            x       y       z     vdW  Elec       q    Type
REMARK                         _______ _______ _______ _____ _____    ______ ____
ROOT
ATOM      1  O   UNL     1       0.357   2.357   0.000  0.00  0.00    +0.000 OA
ATOM      2  N   UNL     1       0.039   0.964   0.000  0.00  0.00    +0.000 NA
ATOM      3  C   UNL     1      -0.204   1.752   0.000  0.00  0.00    +0.000 C 
ENDROOT
BRANCH   2   6
ATOM      4  O   UNL     1       0.382  -0.538   0.000  0.00  0.00    +0.000 OA
ATOM      5  N   UNL     1       1.770  -0.382   0.000  0.00  0.00    +0.000 N 
ATOM      6  C   UNL     1       0.843   0.780   0.000  0.00  0.00    +0.000 C 
ATOM      7  C   UNL     1       1.358   1.425   0.000  0.00  0.00    +0.000 C 
ATOM      8  C   UNL     1       2.183   1.425   0.000  0.00  0.00    +0.000 C 
ATOM      9  C   UNL     1       2.697   0.780   0.000  0.00  0.00    +0.000 C 
ATOM     10  C   UNL     1       2.514  -0.024   0.000  0.00  0.00    +0.000 C 
ATOM     11  C   UNL     1       1.027  -0.024   0.000  0.00  0.00    +0.000 C 
BRANCH   5  12
ATOM     12  C   UNL     1       1.770  -1.207   0.000  0.00  0.00    +0.000 C 
BRANCH  12  13
ATOM     13  C   UNL     1       2.485  -1.619   0.000  0.00  0.00    +0.000 A 
ATOM     14  C   UNL     1       2.485  -2.445   0.000  0.00  0.00    +0.000 A 
ATOM     15  C   UNL     1       3.199  -1.207   0.000  0.00  0.00    +0.000 A 
ATOM     16  C   UNL     1       3.199  -2.857   0.000  0.00  0.00    +0.000 A 
ATOM     17  C   UNL     1       3.914  -1.619   0.000  0.00  0.00    +0.000 A 
ATOM     18  C   UNL     1       3.914  -2.445   0.000  0.00  0.00    +0.000 A 
BRANCH  18  19
ATOM     19  C   UNL     1       4.628  -2.857   0.000  0.00  0.00    +0.000 A 
ATOM     20  C   UNL     1       4.628  -3.682   0.000  0.00  0.00    +0.000 A 
ATOM     21  C   UNL     1       5.343  -2.445   0.000  0.00  0.00    +0.000 A 
ATOM     22  C   UNL     1       5.343  -4.095   0.000  0.00  0.00    +0.000 A 
ATOM     23  C   UNL     1       6.057  -2.857   0.000  0.00  0.00    +0.000 A 
ATOM     24  C   UNL     1       6.057  -3.682   0.000  0.00  0.00    +0.000 A 
ENDBRANCH  18  19
ENDBRANCH  12  13
ENDBRANCH   5  12
ENDBRANCH   2   6
BRANCH   3  25
ATOM     25  C   UNL     1      -1.008   1.936   0.000  0.00  0.00    +0.000 C 
BRANCH  25  27
ATOM     26  O   UNL     1       0.114   3.145   0.000  0.00  0.00    +0.000 OA
ATOM     27  N   UNL     1      -1.252   2.724   0.000  0.00  0.00    +0.000 NA
ATOM     28  C   UNL     1      -0.690   3.329   0.000  0.00  0.00    +0.000 C 
ATOM     29  C   UNL     1      -0.933   4.117   0.000  0.00  0.00    +0.000 C 
ENDBRANCH  25  27
BRANCH  25  30
ATOM     30  C   UNL     1      -1.569   1.331   0.000  0.00  0.00    +0.000 C 
BRANCH  30  31
ATOM     31  C   UNL     1      -2.374   1.515   0.000  0.00  0.00    +0.000 A 
ATOM     32  C   UNL     1      -2.617   2.303   0.000  0.00  0.00    +0.000 A 
ATOM     33  C   UNL     1      -2.935   0.910   0.000  0.00  0.00    +0.000 A 
ATOM     34  C   UNL     1      -3.421   2.486   0.000  0.00  0.00    +0.000 A 
ATOM     35  C   UNL     1      -3.982   1.882   0.000  0.00  0.00    +0.000 A 
ATOM     36  C   UNL     1      -3.739   1.093   0.000  0.00  0.00    +0.000 A 
BRANCH  34  39
ATOM     37  O   UNL     1      -4.469   3.458   0.000  0.00  0.00    +0.000 OA
ATOM     38  O   UNL     1      -3.103   3.880   0.000  0.00  0.00    +0.000 OA
ATOM     39  C   UNL     1      -3.664   3.275   0.000  0.00  0.00    +0.000 C 
ENDBRANCH  34  39
BRANCH  35  40
ATOM     40  C   UNL     1      -4.787   2.065   0.000  0.00  0.00    +0.000 C 
BRANCH  40  43
ATOM     41  O   UNL     1      -6.152   1.644   0.000  0.00  0.00    +0.000 OA
ATOM     42  O   UNL     1      -5.105   0.672   0.000  0.00  0.00    +0.000 OA
ATOM     43  C   UNL     1      -5.348   1.460   0.000  0.00  0.00    +0.000 C 
ENDBRANCH  40  43
ENDBRANCH  35  40
ENDBRANCH  30  31
ENDBRANCH  25  30
ENDBRANCH   3  25
TORSDOF 11
