REMARK  Name = 
REMARK  13 active torsions:
REMARK  status: ('A' for Active; 'I' for Inactive)
REMARK    1  A    between atoms: C_4  and  C_5
REMARK    2  A    between atoms: C_4  and  C_8
REMARK    3  A    between atoms: C_5  and  C_9
REMARK    4  A    between atoms: C_6  and  C_7
REMARK    5  A    between atoms: C_6  and  C_11
REMARK    6  A    between atoms: C_7  and  C_10
REMARK    7  A    between atoms: C_8  and  C_18
REMARK    8  A    between atoms: C_12  and  C_13
REMARK    9  A    between atoms: C_12  and  C_17
REMARK   10  A    between atoms: C_14  and  C_15
REMARK   11  A    between atoms: C_14  and  C_20
REMARK   12  A    between atoms: C_16  and  C_19
REMARK   13  A    between atoms: C_21  and  C_22
REMARK                            x       y       z     vdW  Elec       q    Type
REMARK                         _______ _______ _______ _____ _____    ______ ____
ROOT
ATOM      1  C   UNL     1       0.359  -1.028   0.000  0.00  0.00    +0.000 C 
ATOM      2  C   UNL     1       1.067  -0.621   0.000  0.00  0.00    +0.000 C 
ENDROOT
BRANCH   1   4
ATOM      3  O   UNL     1      -0.359   0.204   0.000  0.00  0.00    +0.000 OA
ATOM      4  C   UNL     1      -0.359  -0.621   0.000  0.00  0.00    +0.000 C 
BRANCH   4   5
ATOM      5  C   UNL     1      -1.076  -1.028   0.000  0.00  0.00    +0.000 C 
BRANCH   5   6
ATOM      6  C   UNL     1      -1.794  -0.621   0.000  0.00  0.00    +0.000 C 
ATOM      7  C   UNL     1      -2.502  -1.028   0.000  0.00  0.00    +0.000 C 
BRANCH   7   8
ATOM      8  C   UNL     1      -2.502  -1.862   0.000  0.00  0.00    +0.000 C 
BRANCH   8   9
ATOM      9  C   UNL     1      -3.219  -2.269   0.000  0.00  0.00    +0.000 C 
ATOM     10  C   UNL     1      -3.219  -3.093   0.000  0.00  0.00    +0.000 C 
BRANCH  10  11
ATOM     11  C   UNL     1      -2.502  -3.510   0.000  0.00  0.00    +0.000 C 
ATOM     12  C   UNL     1      -2.502  -4.334   0.000  0.00  0.00    +0.000 C 
ENDBRANCH  10  11
ENDBRANCH   8   9
ENDBRANCH   7   8
ENDBRANCH   5   6
ENDBRANCH   4   5
ENDBRANCH   1   4
BRANCH   2  14
ATOM     13  C   UNL     1       2.502  -0.621   0.000  0.00  0.00    +0.000 C 
ATOM     14  C   UNL     1       1.784  -1.028   0.000  0.00  0.00    +0.000 C 
BRANCH  13  15
ATOM     15  C   UNL     1       2.502   0.204   0.000  0.00  0.00    +0.000 C 
BRANCH  15  17
ATOM     16  C   UNL     1       3.219   1.445   0.000  0.00  0.00    +0.000 C 
ATOM     17  C   UNL     1       3.219   0.621   0.000  0.00  0.00    +0.000 C 
BRANCH  16  18
ATOM     18  C   UNL     1       2.502   1.862   0.000  0.00  0.00    +0.000 C 
BRANCH  18  19
ATOM     19  C   UNL     1       2.502   2.686   0.000  0.00  0.00    +0.000 C 
BRANCH  19  20
ATOM     20  C   UNL     1       1.784   3.093   0.000  0.00  0.00    +0.000 C 
BRANCH  20  23
ATOM     21  O   UNL     1       1.067   4.334   0.000  0.00  0.00    +0.000 OA
ATOM     22  O   UNL     1       2.502   4.334   0.000  0.00  0.00    +0.000 OA
ATOM     23  C   UNL     1       1.784   3.927   0.000  0.00  0.00    +0.000 C 
ENDBRANCH  20  23
ENDBRANCH  19  20
ENDBRANCH  18  19
ENDBRANCH  16  18
ENDBRANCH  15  17
ENDBRANCH  13  15
ENDBRANCH   2  14
TORSDOF 13
