REMARK  Name = 
REMARK  3 active torsions:
REMARK  status: ('A' for Active; 'I' for Inactive)
REMARK    1  A    between atoms: C_4  and  O_10
REMARK    2  A    between atoms: O_10  and  C_11
REMARK    3  A    between atoms: C_11  and  C_13
REMARK                            x       y       z     vdW  Elec       q    Type
REMARK                         _______ _______ _______ _____ _____    ______ ____
ROOT
ATOM      1  C   UNL     1       2.858  -4.125   0.000  0.00  0.00    +0.000 C 
ATOM      2  C   UNL     1       2.143  -3.712   0.000  0.00  0.00    +0.000 C 
ATOM      3  C   UNL     1       1.429  -4.125   0.000  0.00  0.00    +0.000 C 
ATOM      4  C   UNL     1       0.715  -3.712   0.000  0.00  0.00    +0.000 C 
ATOM      5  C   UNL     1       0.715  -2.888   0.000  0.00  0.00    +0.000 C 
ATOM      6  C   UNL     1       1.429  -2.475   0.000  0.00  0.00    +0.000 C 
ATOM      7  C   UNL     1       2.143  -2.888   0.000  0.00  0.00    +0.000 C 
ATOM      8  C   UNL     1       1.042  -1.747   0.000  0.00  0.00    +0.000 C 
ATOM      9  C   UNL     1       1.816  -1.747   0.000  0.00  0.00    +0.000 C 
ENDROOT
BRANCH   4  10
ATOM     10  O   UNL     1       0.000  -4.125   0.000  0.00  0.00    +0.000 OA
BRANCH  10  11
ATOM     11  C   UNL     1       0.000  -4.950   0.000  0.00  0.00    +0.000 C 
ATOM     12  O   UNL     1       0.715  -5.362   0.000  0.00  0.00    +0.000 OA
BRANCH  11  13
ATOM     13  C   UNL     1      -0.715  -5.362   0.000  0.00  0.00    +0.000 A 
ATOM     14  C   UNL     1      -0.715  -6.188   0.000  0.00  0.00    +0.000 A 
ATOM     15  C   UNL     1      -1.429  -6.600   0.000  0.00  0.00    +0.000 A 
ATOM     16  C   UNL     1      -2.143  -6.188   0.000  0.00  0.00    +0.000 A 
ATOM     17  N   UNL     1      -2.143  -5.362   0.000  0.00  0.00    +0.000 NA
ATOM     18  C   UNL     1      -1.429  -4.950   0.000  0.00  0.00    +0.000 A 
ENDBRANCH  11  13
ENDBRANCH  10  11
ENDBRANCH   4  10
TORSDOF 3
