REMARK  Name = 
REMARK  0 active torsions:
REMARK  status: ('A' for Active; 'I' for Inactive)
REMARK                            x       y       z     vdW  Elec       q    Type
REMARK                         _______ _______ _______ _____ _____    ______ ____
ROOT
ATOM      1 CA   UNL     1       0.029   0.390   0.000  0.00  0.00    +0.000 Ca
ENDROOT
TORSDOF 0
REMARK  Name = 
REMARK  0 active torsions:
REMARK  status: ('A' for Active; 'I' for Inactive)
REMARK                            x       y       z     vdW  Elec       q    Type
REMARK                         _______ _______ _______ _____ _____    ______ ____
ROOT
ATOM      1  C   UNL     1       0.000  -0.390   0.000  0.00  0.00    +0.000 C 
ATOM      2  N   UNL     1       0.825  -0.390   0.000  0.00  0.00    +0.000 NA
ATOM      3  N   UNL     1      -0.825  -0.390   0.000  0.00  0.00    +0.000 NA
ENDROOT
TORSDOF 0
