REMARK  Name = 
REMARK  5 active torsions:
REMARK  status: ('A' for Active; 'I' for Inactive)
REMARK    1  A    between atoms: C_2  and  C_3
REMARK    2  A    between atoms: C_3  and  C_4
REMARK    3  A    between atoms: C_4  and  C_5
REMARK    4  A    between atoms: C_6  and  C_7
REMARK    5  A    between atoms: C_8  and  C_9
REMARK                            x       y       z     vdW  Elec       q    Type
REMARK                         _______ _______ _______ _____ _____    ______ ____
ROOT
ATOM      1  C   UNL     1      -0.612   0.494   0.000  0.00  0.00    +0.000 C 
ATOM      2  C   UNL     1      -1.437   0.494   0.000  0.00  0.00    +0.000 C 
ENDROOT
BRANCH   2   3
ATOM      3  C   UNL     1      -1.850  -0.221   0.000  0.00  0.00    +0.000 C 
ATOM      4  C   UNL     1      -2.675  -0.221   0.000  0.00  0.00    +0.000 C 
BRANCH   4   5
ATOM      5  C   UNL     1      -3.087  -0.935   0.000  0.00  0.00    +0.000 C 
ATOM      6  C   UNL     1      -2.675  -1.650   0.000  0.00  0.00    +0.000 C 
ENDBRANCH   4   5
ENDBRANCH   2   3
BRANCH   1   7
ATOM      7  C   UNL     1      -0.200   1.208   0.000  0.00  0.00    +0.000 C 
BRANCH   7   8
ATOM      8  C   UNL     1       0.625   1.208   0.000  0.00  0.00    +0.000 C 
BRANCH   8  10
ATOM      9  C   UNL     1       1.863   1.923   0.000  0.00  0.00    +0.000 C 
ATOM     10  C   UNL     1       1.038   1.923   0.000  0.00  0.00    +0.000 C 
ATOM     11  O   UNL     1       0.625   2.637   0.000  0.00  0.00    +0.000 OA
ENDBRANCH   8  10
ENDBRANCH   7   8
ENDBRANCH   1   7
TORSDOF 5
