REMARK  Name = 
REMARK  7 active torsions:
REMARK  status: ('A' for Active; 'I' for Inactive)
REMARK    1  A    between atoms: O_3  and  C_12
REMARK    2  A    between atoms: O_3  and  C_15
REMARK    3  A    between atoms: N_5  and  C_11
REMARK    4  A    between atoms: N_6  and  C_18
REMARK    5  A    between atoms: N_7  and  C_23
REMARK    6  A    between atoms: C_10  and  C_11
REMARK    7  A    between atoms: C_10  and  C_12
REMARK                            x       y       z     vdW  Elec       q    Type
REMARK                         _______ _______ _______ _____ _____    ______ ____
ROOT
ATOM      1  N   UNL     1      -0.357  -0.982   0.000  0.00  0.00    +0.000 N 
ATOM      2  N   UNL     1      -3.215  -0.982   0.000  0.00  0.00    +0.000 N 
ATOM      3  N   UNL     1      -1.786  -0.982   0.000  0.00  0.00    +0.000 NA
ATOM      4  N   UNL     1      -1.072   0.256   0.000  0.00  0.00    +0.000 NA
ATOM      5  C   UNL     1      -1.072  -0.569   0.000  0.00  0.00    +0.000 A 
ATOM      6  C   UNL     1      -2.501  -0.569   0.000  0.00  0.00    +0.000 A 
ATOM      7  C   UNL     1      -2.501   0.256   0.000  0.00  0.00    +0.000 A 
ATOM      8  C   UNL     1      -1.786   0.668   0.000  0.00  0.00    +0.000 A 
ATOM      9  H   UNL     1      -0.357  -1.493   0.000  0.00  0.00    +0.000 HD
ATOM     10  H   UNL     1      -3.215  -1.493   0.000  0.00  0.00    +0.000 HD
ENDROOT
BRANCH   2  13
ATOM     11 CL   UNL     1      -3.215   0.668   0.000  0.00  0.00    +0.000 Cl
ATOM     12 CL   UNL     1      -6.073  -0.982   0.000  0.00  0.00    +0.000 Cl
ATOM     13  C   UNL     1      -3.930  -0.569   0.000  0.00  0.00    +0.000 A 
ATOM     14  C   UNL     1      -3.930   0.256   0.000  0.00  0.00    +0.000 A 
ATOM     15  C   UNL     1      -4.644  -0.982   0.000  0.00  0.00    +0.000 A 
ATOM     16  C   UNL     1      -5.359  -0.569   0.000  0.00  0.00    +0.000 A 
ATOM     17  C   UNL     1      -4.644   0.668   0.000  0.00  0.00    +0.000 A 
ATOM     18  C   UNL     1      -5.359   0.256   0.000  0.00  0.00    +0.000 A 
ENDBRANCH   2  13
BRANCH   1  22
ATOM     19  C   UNL     1       1.786   0.256   0.000  0.00  0.00    +0.000 A 
ATOM     20  C   UNL     1       1.072   0.668   0.000  0.00  0.00    +0.000 A 
ATOM     21  C   UNL     1       1.786  -0.569   0.000  0.00  0.00    +0.000 A 
ATOM     22  C   UNL     1       0.357  -0.569   0.000  0.00  0.00    +0.000 A 
ATOM     23  C   UNL     1       0.357   0.256   0.000  0.00  0.00    +0.000 A 
ATOM     24  C   UNL     1       1.072  -0.982   0.000  0.00  0.00    +0.000 A 
BRANCH  19  25
ATOM     25  O   UNL     1       2.501   0.668   0.000  0.00  0.00    +0.000 OA
BRANCH  25  26
ATOM     26  C   UNL     1       3.215   0.256   0.000  0.00  0.00    +0.000 C 
BRANCH  26  28
ATOM     27  O   UNL     1       3.930   1.493   0.000  0.00  0.00    +0.000 OA
ATOM     28  C   UNL     1       3.930   0.668   0.000  0.00  0.00    +0.000 C 
BRANCH  28  29
ATOM     29  C   UNL     1       4.644   0.256   0.000  0.00  0.00    +0.000 C 
BRANCH  29  30
ATOM     30  N   UNL     1       5.359   0.668   0.000  0.00  0.00    +0.000 NA
ATOM     31  C   UNL     1       6.073   0.256   0.000  0.00  0.00    +0.000 C 
ATOM     32  C   UNL     1       5.359   1.493   0.000  0.00  0.00    +0.000 C 
ENDBRANCH  29  30
ENDBRANCH  28  29
ENDBRANCH  26  28
ENDBRANCH  25  26
ENDBRANCH  19  25
ENDBRANCH   1  22
TORSDOF 7
