REMARK  Name = 
REMARK  0 active torsions:
REMARK  status: ('A' for Active; 'I' for Inactive)
REMARK                            x       y       z     vdW  Elec       q    Type
REMARK                         _______ _______ _______ _____ _____    ______ ____
ROOT
ATOM      1  C   UNL     1       1.637  -1.032   0.000  0.00  0.00    +0.000 C 
ATOM      2  C   UNL     1       1.637   1.434   0.000  0.00  0.00    +0.000 C 
ATOM      3  C   UNL     1       0.122  -0.212   0.000  0.00  0.00    +0.000 C 
ATOM      4  C   UNL     1       0.122   0.613   0.000  0.00  0.00    +0.000 C 
ATOM      5  C   UNL     1       0.837  -0.624   0.000  0.00  0.00    +0.000 C 
ATOM      6  C   UNL     1       0.837   1.026   0.000  0.00  0.00    +0.000 C 
ATOM      7  C   UNL     1       2.336  -0.467   0.000  0.00  0.00    +0.000 C 
ATOM      8  C   UNL     1       2.336   0.868   0.000  0.00  0.00    +0.000 C 
ATOM      9  C   UNL     1       1.551  -0.212   0.000  0.00  0.00    +0.000 C 
ATOM     10  C   UNL     1       1.551   0.613   0.000  0.00  0.00    +0.000 C 
ATOM     11  O   UNL     1       2.591  -1.251   0.000  0.00  0.00    +0.000 OA
ATOM     12  O   UNL     1       2.591   1.653   0.000  0.00  0.00    +0.000 OA
ATOM     13  O   UNL     1       1.043   0.201   0.000  0.00  0.00    +0.000 OA
ATOM     14  O   UNL     1       2.821   0.201   0.000  0.00  0.00    +0.000 OA
ENDROOT
TORSDOF 0
