REMARK  Name = 
REMARK  7 active torsions:
REMARK  status: ('A' for Active; 'I' for Inactive)
REMARK    1  A    between atoms: C_2  and  C_4
REMARK    2  A    between atoms: C_4  and  N_5
REMARK    3  A    between atoms: N_5  and  C_6
REMARK    4  A    between atoms: C_6  and  C_7
REMARK    5  A    between atoms: C_7  and  O_8
REMARK    6  A    between atoms: O_8  and  C_9
REMARK    7  A    between atoms: C_9  and  C_11
REMARK                            x       y       z     vdW  Elec       q    Type
REMARK                         _______ _______ _______ _____ _____    ______ ____
ROOT
ATOM      1  C   UNL     1       7.145  -4.950   0.000  0.00  0.00    +0.000 C 
ATOM      2  O   UNL     1       7.145  -4.125   0.000  0.00  0.00    +0.000 OA
ENDROOT
BRANCH   1   3
ATOM      3  C   UNL     1       7.859  -5.362   0.000  0.00  0.00    +0.000 A 
ATOM      4  C   UNL     1       8.574  -4.950   0.000  0.00  0.00    +0.000 A 
ATOM      5  C   UNL     1       9.288  -5.362   0.000  0.00  0.00    +0.000 A 
ATOM      6  C   UNL     1       9.288  -6.188   0.000  0.00  0.00    +0.000 A 
ATOM      7  C   UNL     1       8.574  -6.600   0.000  0.00  0.00    +0.000 A 
ATOM      8  N   UNL     1       8.574  -7.425   0.000  0.00  0.00    +0.000 NA
ATOM      9  C   UNL     1       7.859  -6.188   0.000  0.00  0.00    +0.000 A 
ENDBRANCH   1   3
BRANCH   1  10
ATOM     10  O   UNL     1       6.430  -5.362   0.000  0.00  0.00    +0.000 OA
BRANCH  10  11
ATOM     11  C   UNL     1       5.716  -4.950   0.000  0.00  0.00    +0.000 C 
BRANCH  11  12
ATOM     12  C   UNL     1       5.001  -5.362   0.000  0.00  0.00    +0.000 C 
BRANCH  12  13
ATOM     13  N   UNL     1       4.287  -4.950   0.000  0.00  0.00    +0.000 NA
BRANCH  13  14
ATOM     14  C   UNL     1       3.572  -5.362   0.000  0.00  0.00    +0.000 C 
BRANCH  14  16
ATOM     15  C   UNL     1       2.143  -5.362   0.000  0.00  0.00    +0.000 C 
ATOM     16  C   UNL     1       2.858  -4.950   0.000  0.00  0.00    +0.000 C 
ATOM     17  C   UNL     1       2.858  -4.125   0.000  0.00  0.00    +0.000 C 
ENDBRANCH  14  16
ENDBRANCH  13  14
ENDBRANCH  12  13
ENDBRANCH  11  12
ENDBRANCH  10  11
ENDBRANCH   1  10
TORSDOF 7
