REMARK  Name = 
REMARK  2 active torsions:
REMARK  status: ('A' for Active; 'I' for Inactive)
REMARK    1  A    between atoms: C_10  and  C_14
REMARK    2  A    between atoms: C_13  and  C_15
REMARK                            x       y       z     vdW  Elec       q    Type
REMARK                         _______ _______ _______ _____ _____    ______ ____
ROOT
ATOM      1  N   UNL     1       0.726  -1.021   0.000  0.00  0.00    +0.000 NA
ATOM      2  N   UNL     1       0.244  -1.685   0.000  0.00  0.00    +0.000 NA
ATOM      3  N   UNL     1      -1.251  -0.196   0.000  0.00  0.00    +0.000 NA
ATOM      4  N   UNL     1      -1.965  -1.433   0.000  0.00  0.00    +0.000 N 
ATOM      5  N   UNL     1      -1.251  -2.671   0.000  0.00  0.00    +0.000 NA
ATOM      6  C   UNL     1       0.244  -0.357   0.000  0.00  0.00    +0.000 A 
ATOM      7  C   UNL     1      -0.536  -0.608   0.000  0.00  0.00    +0.000 A 
ATOM      8  C   UNL     1      -0.536  -1.433   0.000  0.00  0.00    +0.000 A 
ATOM      9  C   UNL     1      -1.251  -1.846   0.000  0.00  0.00    +0.000 A 
ATOM     10  C   UNL     1      -1.965  -0.608   0.000  0.00  0.00    +0.000 A 
ATOM     11  C   UNL     1      -2.680  -1.846   0.000  0.00  0.00    +0.000 C 
ENDROOT
BRANCH   6  15
ATOM     12  O   UNL     1       1.286   0.681   0.000  0.00  0.00    +0.000 OA
ATOM     13  O   UNL     1      -0.808   1.097   0.000  0.00  0.00    +0.000 OA
ATOM     14  O   UNL     1       0.249   2.547   0.000  0.00  0.00    +0.000 OA
ATOM     15  C   UNL     1       0.500   0.427   0.000  0.00  0.00    +0.000 C 
ATOM     16  C   UNL     1       0.017   1.095   0.000  0.00  0.00    +0.000 C 
ATOM     17  C   UNL     1       0.503   1.762   0.000  0.00  0.00    +0.000 C 
ATOM     18  C   UNL     1       1.287   1.506   0.000  0.00  0.00    +0.000 C 
BRANCH  18  20
ATOM     19  O   UNL     1       2.708   1.653   0.000  0.00  0.00    +0.000 OA
ATOM     20  C   UNL     1       1.955   1.990   0.000  0.00  0.00    +0.000 C 
ENDBRANCH  18  20
ENDBRANCH   6  15
TORSDOF 2
