REMARK  Name = 
REMARK  3 active torsions:
REMARK  status: ('A' for Active; 'I' for Inactive)
REMARK    1  A    between atoms: C_8  and  C_9
REMARK    2  A    between atoms: C_9  and  N_10
REMARK    3  A    between atoms: N_18  and  C_19
REMARK                            x       y       z     vdW  Elec       q    Type
REMARK                         _______ _______ _______ _____ _____    ______ ____
ROOT
ATOM      1  N   UNL     1       4.067  -2.348   0.000  0.00  0.00    +0.000 NA
ATOM      2  C   UNL     1       4.781  -2.760   0.000  0.00  0.00    +0.000 C 
ATOM      3  C   UNL     1       4.781  -3.585   0.000  0.00  0.00    +0.000 C 
ATOM      4  N   UNL     1       4.067  -3.998   0.000  0.00  0.00    +0.000 N 
ATOM      5  C   UNL     1       3.352  -3.585   0.000  0.00  0.00    +0.000 C 
ATOM      6  C   UNL     1       3.352  -2.760   0.000  0.00  0.00    +0.000 C 
ATOM      7  C   UNL     1       4.067  -4.823   0.000  0.00  0.00    +0.000 C 
ATOM      8  O   UNL     1       3.352  -5.235   0.000  0.00  0.00    +0.000 OA
ATOM      9  N   UNL     1       4.781  -5.235   0.000  0.00  0.00    +0.000 NA
ENDROOT
BRANCH   9  10
ATOM     10  C   UNL     1       4.781  -6.060   0.000  0.00  0.00    +0.000 A 
ATOM     11  C   UNL     1       5.496  -6.473   0.000  0.00  0.00    +0.000 A 
ATOM     12 CL   UNL     1       6.210  -6.060   0.000  0.00  0.00    +0.000 Cl
ATOM     13  C   UNL     1       5.496  -7.298   0.000  0.00  0.00    +0.000 A 
ATOM     14  C   UNL     1       4.781  -7.710   0.000  0.00  0.00    +0.000 A 
ATOM     15  N   UNL     1       4.067  -7.298   0.000  0.00  0.00    +0.000 NA
ATOM     16  C   UNL     1       4.067  -6.473   0.000  0.00  0.00    +0.000 A 
ENDBRANCH   9  10
BRANCH   1  17
ATOM     17  C   UNL     1       4.067  -1.523   0.000  0.00  0.00    +0.000 C 
BRANCH  17  25
ATOM     18  F   UNL     1       0.041  -0.146   0.000  0.00  0.00    +0.000 F 
ATOM     19  C   UNL     1       0.654  -0.698   0.000  0.00  0.00    +0.000 C 
ATOM     20  F   UNL     1       0.041  -1.250   0.000  0.00  0.00    +0.000 F 
ATOM     21  O   UNL     1       1.139  -0.030   0.000  0.00  0.00    +0.000 OA
ATOM     22  C   UNL     1       1.923  -0.285   0.000  0.00  0.00    +0.000 A 
ATOM     23  C   UNL     1       2.638   0.127   0.000  0.00  0.00    +0.000 A 
ATOM     24  C   UNL     1       3.352  -0.285   0.000  0.00  0.00    +0.000 A 
ATOM     25  C   UNL     1       3.352  -1.110   0.000  0.00  0.00    +0.000 A 
ATOM     26  C   UNL     1       2.638  -1.523   0.000  0.00  0.00    +0.000 A 
ATOM     27  C   UNL     1       1.923  -1.110   0.000  0.00  0.00    +0.000 A 
ATOM     28  O   UNL     1       1.139  -1.365   0.000  0.00  0.00    +0.000 OA
ENDBRANCH  17  25
ENDBRANCH   1  17
TORSDOF 3
