REMARK  Name = 
REMARK  4 active torsions:
REMARK  status: ('A' for Active; 'I' for Inactive)
REMARK    1  A    between atoms: C_1  and  CA_3
REMARK    2  A    between atoms: CA_3  and  C_7
REMARK    3  A    between atoms: S_6  and  C_8
REMARK    4  A    between atoms: C_7  and  C_8
REMARK                            x       y       z     vdW  Elec       q    Type
REMARK                         _______ _______ _______ _____ _____    ______ ____
ROOT
ATOM      1  C   UNL     1      -0.412  -0.003   0.000  0.00  0.00    +0.000 C 
ENDROOT
BRANCH   1   2
ATOM      2  CA  UNL     1      -0.413  -0.822   0.000  0.00  0.00    +0.000 C 
ATOM      3  N   UNL     1      -1.131  -1.230   0.000  0.00  0.00    +0.000 NA
BRANCH   2   4
ATOM      4  C   UNL     1       0.283  -1.230   0.000  0.00  0.00    +0.000 C 
ATOM      5  O   UNL     1       0.296  -2.058   0.000  0.00  0.00    +0.000 OA
ATOM      6  OXT UNL     1       1.012  -0.850   0.000  0.00  0.00    +0.000 OA
ENDBRANCH   2   4
ENDBRANCH   1   2
BRANCH   1   7
ATOM      7  C   UNL     1       0.304   0.408   0.000  0.00  0.00    +0.000 C 
BRANCH   7   8
ATOM      8  S   UNL     1       0.306   1.233   0.000  0.00  0.00    +0.000 S 
ATOM      9  C   UNL     1       0.307   2.058   0.000  0.00  0.00    +0.000 C 
ATOM     10  O   UNL     1      -0.519   1.235   0.000  0.00  0.00    +0.000 OA
ATOM     11  O   UNL     1       1.131   1.231   0.000  0.00  0.00    +0.000 OA
ENDBRANCH   7   8
ENDBRANCH   1   7
TORSDOF 4
