REMARK  Name = 
REMARK  7 active torsions:
REMARK  status: ('A' for Active; 'I' for Inactive)
REMARK    1  A    between atoms: C_4  and  O_10
REMARK    2  A    between atoms: O_10  and  C_11
REMARK    3  A    between atoms: C_18  and  C_20
REMARK    4  A    between atoms: C_20  and  O_21
REMARK    5  A    between atoms: O_21  and  C_22
REMARK    6  A    between atoms: C_25  and  C_28
REMARK    7  A    between atoms: C_28  and  C_29
REMARK                            x       y       z     vdW  Elec       q    Type
REMARK                         _______ _______ _______ _____ _____    ______ ____
ROOT
ATOM      1  C   UNL     1       3.352   1.935   0.000  0.00  0.00    +0.000 A 
ATOM      2  C   UNL     1       3.352   1.110   0.000  0.00  0.00    +0.000 A 
ATOM      3  C   UNL     1       2.638   0.698   0.000  0.00  0.00    +0.000 A 
ATOM      4  C   UNL     1       1.923   1.110   0.000  0.00  0.00    +0.000 A 
ATOM      5  C   UNL     1       1.923   1.935   0.000  0.00  0.00    +0.000 A 
ATOM      6  C   UNL     1       2.638   2.348   0.000  0.00  0.00    +0.000 A 
ATOM      7  N   UNL     1       1.139   2.190   0.000  0.00  0.00    +0.000 N 
ATOM      8  C   UNL     1       0.654   1.523   0.000  0.00  0.00    +0.000 A 
ATOM      9  N   UNL     1       1.139   0.856   0.000  0.00  0.00    +0.000 NA
ATOM     10  C   UNL     1       0.884   2.975   0.000  0.00  0.00    +0.000 C 
ENDROOT
BRANCH   8  11
ATOM     11  C   UNL     1      -0.171   1.523   0.000  0.00  0.00    +0.000 C 
BRANCH  11  12
ATOM     12  O   UNL     1      -0.584   0.808   0.000  0.00  0.00    +0.000 OA
BRANCH  12  13
ATOM     13  C   UNL     1      -1.409   0.808   0.000  0.00  0.00    +0.000 A 
ATOM     14  C   UNL     1      -1.821   0.094   0.000  0.00  0.00    +0.000 A 
ATOM     15  C   UNL     1      -2.646   0.094   0.000  0.00  0.00    +0.000 A 
ATOM     16  C   UNL     1      -3.059   0.808   0.000  0.00  0.00    +0.000 A 
ATOM     17  C   UNL     1      -2.646   1.523   0.000  0.00  0.00    +0.000 A 
ATOM     18  C   UNL     1      -1.821   1.523   0.000  0.00  0.00    +0.000 A 
BRANCH  16  19
ATOM     19  C   UNL     1      -3.884   0.808   0.000  0.00  0.00    +0.000 C 
BRANCH  19  20
ATOM     20  C   UNL     1      -4.296   0.094   0.000  0.00  0.00    +0.000 C 
ATOM     21  C   UNL     1      -3.961  -0.660   0.000  0.00  0.00    +0.000 C 
ATOM     22  O   UNL     1      -3.154  -0.831   0.000  0.00  0.00    +0.000 OA
ATOM     23  N   UNL     1      -4.574  -1.212   0.000  0.00  0.00    +0.000 NA
ATOM     24  C   UNL     1      -5.288  -0.799   0.000  0.00  0.00    +0.000 C 
ATOM     25  O   UNL     1      -6.042  -1.135   0.000  0.00  0.00    +0.000 OA
ATOM     26  S   UNL     1      -5.117   0.008   0.000  0.00  0.00    +0.000 S 
ENDBRANCH  19  20
ENDBRANCH  16  19
ENDBRANCH  12  13
ENDBRANCH  11  12
ENDBRANCH   8  11
BRANCH   1  27
ATOM     27  O   UNL     1       4.067   2.348   0.000  0.00  0.00    +0.000 OA
BRANCH  27  31
ATOM     28  C   UNL     1       5.496  -0.127   0.000  0.00  0.00    +0.000 C 
ATOM     29  C   UNL     1       5.496   0.698   0.000  0.00  0.00    +0.000 A 
ATOM     30  C   UNL     1       4.781   1.110   0.000  0.00  0.00    +0.000 A 
ATOM     31  C   UNL     1       4.781   1.935   0.000  0.00  0.00    +0.000 A 
ATOM     32  C   UNL     1       5.496   2.348   0.000  0.00  0.00    +0.000 A 
ATOM     33  C   UNL     1       6.210   1.935   0.000  0.00  0.00    +0.000 A 
ATOM     34  C   UNL     1       6.210   1.110   0.000  0.00  0.00    +0.000 A 
ATOM     35  N   UNL     1       6.925   0.698   0.000  0.00  0.00    +0.000 NA
ATOM     36  C   UNL     1       6.925   2.348   0.000  0.00  0.00    +0.000 C 
ENDBRANCH  27  31
ENDBRANCH   1  27
TORSDOF 7
