REMARK  Name = 
REMARK  10 active torsions:
REMARK  status: ('A' for Active; 'I' for Inactive)
REMARK    1  A    between atoms: N_9  and  CA_17
REMARK    2  A    between atoms: C_13  and  C_14
REMARK    3  A    between atoms: C_13  and  C_15
REMARK    4  A    between atoms: C_13  and  C_21
REMARK    5  A    between atoms: C_14  and  C_16
REMARK    6  A    between atoms: CA_17  and  CB_24
REMARK    7  A    between atoms: CA_17  and  C_33
REMARK    8  A    between atoms: CB_24  and  CG_31
REMARK    9  A    between atoms: C_25  and  C_30
REMARK   10  A    between atoms: CG_31  and  CD_35
REMARK                            x       y       z     vdW  Elec       q    Type
REMARK                         _______ _______ _______ _____ _____    ______ ____
ROOT
ATOM      1  C   UNL     1      -0.104  -1.188   0.000  0.00  0.00    +0.000 C 
ENDROOT
BRANCH   1   2
ATOM      2  C   UNL     1       0.608  -0.772   0.000  0.00  0.00    +0.000 A 
ATOM      3  C   UNL     1       0.605   0.052   0.000  0.00  0.00    +0.000 A 
ATOM      4  C   UNL     1       1.324  -1.182   0.000  0.00  0.00    +0.000 A 
ATOM      5  C   UNL     1       2.034   0.058   0.000  0.00  0.00    +0.000 A 
ATOM      6  C   UNL     1       1.318   0.468   0.000  0.00  0.00    +0.000 A 
ATOM      7  C   UNL     1       2.037  -0.767   0.000  0.00  0.00    +0.000 A 
BRANCH   5  10
ATOM      8  O   UNL     1       2.744   1.298   0.000  0.00  0.00    +0.000 OA
ATOM      9  N   UNL     1       3.463   0.064   0.000  0.00  0.00    +0.000 N 
ATOM     10  C   ACE A   0       2.747   0.473   0.000  0.00  0.00    +0.000 C 
ATOM     11  H   UNL     1       3.465  -0.448   0.000  0.00  0.00    +0.000 HD
BRANCH   9  12
ATOM     12  CA  UNL     1       4.176   0.479   0.000  0.00  0.00    +0.000 C 
BRANCH  12  15
ATOM     13  O   UNL     1       5.605   0.484   0.000  0.00  0.00    +0.000 OA
ATOM     14  OXT UNL     1       4.895  -0.756   0.000  0.00  0.00    +0.000 OA
ATOM     15  C   UNL     1       4.892   0.069   0.000  0.00  0.00    +0.000 C 
ENDBRANCH  12  15
BRANCH  12  16
ATOM     16  CB  UNL     1       4.173   1.304   0.000  0.00  0.00    +0.000 C 
BRANCH  16  17
ATOM     17  CG  UNL     1       4.886   1.719   0.000  0.00  0.00    +0.000 C 
BRANCH  17  20
ATOM     18  OE1 UNL     1       5.595   2.959   0.000  0.00  0.00    +0.000 OA
ATOM     19  OE2 UNL     1       4.166   2.954   0.000  0.00  0.00    +0.000 OA
ATOM     20  CD  UNL     1       4.882   2.544   0.000  0.00  0.00    +0.000 C 
ENDBRANCH  17  20
ENDBRANCH  16  17
ENDBRANCH  12  16
ENDBRANCH   9  12
ENDBRANCH   5  10
ENDBRANCH   1   2
BRANCH   1  23
ATOM     21  O   UNL     1       0.615  -2.422   0.000  0.00  0.00    +0.000 OA
ATOM     22  O   UNL     1      -0.814  -2.428   0.000  0.00  0.00    +0.000 OA
ATOM     23  C   UNL     1      -0.101  -2.013   0.000  0.00  0.00    +0.000 C 
ENDBRANCH   1  23
BRANCH   1  24
ATOM     24  C   UNL     1      -0.821  -0.778   0.000  0.00  0.00    +0.000 C 
BRANCH  24  29
ATOM     25  O   UNL     1      -3.733   0.027   0.000  0.00  0.00    +0.000 OA
ATOM     26  N   UNL     1      -3.733  -2.448   0.000  0.00  0.00    +0.000 N 
ATOM     27  N   UNL     1      -4.447  -1.210   0.000  0.00  0.00    +0.000 NA
ATOM     28  N   UNL     1      -5.162  -2.448   0.000  0.00  0.00    +0.000 N 
ATOM     29  C   UNL     1      -1.533  -1.193   0.000  0.00  0.00    +0.000 A 
ATOM     30  C   UNL     1      -2.281  -0.769   0.000  0.00  0.00    +0.000 A 
ATOM     31  C   UNL     1      -1.533  -2.052   0.000  0.00  0.00    +0.000 A 
ATOM     32  C   UNL     1      -3.018  -1.210   0.000  0.00  0.00    +0.000 A 
ATOM     33  C   UNL     1      -3.018  -2.035   0.000  0.00  0.00    +0.000 A 
ATOM     34  C   UNL     1      -2.281  -2.476   0.000  0.00  0.00    +0.000 A 
ATOM     35  C   UNL     1      -3.733  -0.798   0.000  0.00  0.00    +0.000 A 
ATOM     36  C   UNL     1      -4.447  -2.035   0.000  0.00  0.00    +0.000 A 
ATOM     37  H   UNL     1      -3.733  -2.959   0.000  0.00  0.00    +0.000 HD
ATOM     38  H   UNL     1      -5.162  -2.959   0.000  0.00  0.00    +0.000 HD
ATOM     39  H   UNL     1      -5.605  -2.192   0.000  0.00  0.00    +0.000 HD
ENDBRANCH  24  29
ENDBRANCH   1  24
TORSDOF 10
