REMARK  Name = 
REMARK  3 active torsions:
REMARK  status: ('A' for Active; 'I' for Inactive)
REMARK    1  A    between atoms: C_6  and  N_11
REMARK    2  A    between atoms: C_13  and  C_16
REMARK    3  A    between atoms: C_16  and  C_18
REMARK                            x       y       z     vdW  Elec       q    Type
REMARK                         _______ _______ _______ _____ _____    ______ ____
ROOT
ATOM      1  N   UNL     1      -1.576  -2.306   0.000  0.00  0.00    +0.000 N 
ATOM      2  C   UNL     1      -1.404  -1.499   0.000  0.00  0.00    +0.000 A 
ATOM      3  C   UNL     1      -0.584  -1.412   0.000  0.00  0.00    +0.000 A 
ATOM      4  C   UNL     1      -0.248  -2.166   0.000  0.00  0.00    +0.000 A 
ATOM      5  N   UNL     1      -0.861  -2.718   0.000  0.00  0.00    +0.000 NA
ATOM      6  N   UNL     1      -1.956  -0.886   0.000  0.00  0.00    +0.000 NA
ENDROOT
BRANCH   1  12
ATOM      7  C   UNL     1      -5.877  -2.683   0.000  0.00  0.00    +0.000 C 
ATOM      8  C   UNL     1      -5.056  -2.769   0.000  0.00  0.00    +0.000 A 
ATOM      9  N   UNL     1      -4.504  -2.156   0.000  0.00  0.00    +0.000 NA
ATOM     10  C   UNL     1      -3.751  -2.492   0.000  0.00  0.00    +0.000 A 
ATOM     11  C   UNL     1      -2.997  -2.156   0.000  0.00  0.00    +0.000 A 
ATOM     12  C   UNL     1      -2.329  -2.641   0.000  0.00  0.00    +0.000 A 
ATOM     13  C   UNL     1      -2.416  -3.462   0.000  0.00  0.00    +0.000 A 
ATOM     14  C   UNL     1      -3.169  -3.797   0.000  0.00  0.00    +0.000 A 
ATOM     15  C   UNL     1      -3.837  -3.312   0.000  0.00  0.00    +0.000 A 
ATOM     16  N   UNL     1      -4.644  -3.484   0.000  0.00  0.00    +0.000 NA
ENDBRANCH   1  12
BRANCH   3  17
ATOM     17  C   UNL     1      -0.171  -0.698   0.000  0.00  0.00    +0.000 C 
ATOM     18  O   UNL     1      -0.584   0.017   0.000  0.00  0.00    +0.000 OA
BRANCH  17  19
ATOM     19  C   UNL     1       0.654  -0.698   0.000  0.00  0.00    +0.000 A 
ATOM     20  C   UNL     1       1.139  -0.030   0.000  0.00  0.00    +0.000 A 
ATOM     21  C   UNL     1       1.923  -0.285   0.000  0.00  0.00    +0.000 A 
ATOM     22  C   UNL     1       2.638   0.127   0.000  0.00  0.00    +0.000 A 
ATOM     23  C   UNL     1       3.352  -0.285   0.000  0.00  0.00    +0.000 A 
ATOM     24  C   UNL     1       3.352  -1.110   0.000  0.00  0.00    +0.000 A 
ATOM     25  C   UNL     1       2.638  -1.523   0.000  0.00  0.00    +0.000 A 
ATOM     26  C   UNL     1       1.923  -1.110   0.000  0.00  0.00    +0.000 A 
ATOM     27  N   UNL     1       1.139  -1.365   0.000  0.00  0.00    +0.000 NA
ENDBRANCH  17  19
ENDBRANCH   3  17
TORSDOF 3
