REMARK  Name = 
REMARK  14 active torsions:
REMARK  status: ('A' for Active; 'I' for Inactive)
REMARK    1  A    between atoms: C_17  and  C_23
REMARK    2  A    between atoms: C_17  and  O_40
REMARK    3  A    between atoms: C_18  and  C_30
REMARK    4  A    between atoms: C_18  and  O_41
REMARK    5  A    between atoms: C_19  and  C_26
REMARK    6  A    between atoms: C_20  and  C_27
REMARK    7  A    between atoms: C_21  and  C_28
REMARK    8  A    between atoms: C_22  and  C_29
REMARK    9  A    between atoms: C_24  and  O_42
REMARK   10  A    between atoms: C_25  and  O_43
REMARK   11  A    between atoms: C_26  and  O_40
REMARK   12  A    between atoms: C_27  and  O_41
REMARK   13  A    between atoms: C_28  and  O_42
REMARK   14  A    between atoms: C_29  and  O_43
REMARK                            x       y       z     vdW  Elec       q    Type
REMARK                         _______ _______ _______ _____ _____    ______ ____
ROOT
ATOM      1  C   UNL     1       4.848  -0.546   0.000  0.00  0.00    +0.000 C 
ATOM      2  C   UNL     1       4.180  -0.062   0.000  0.00  0.00    +0.000 C 
ATOM      3  C   UNL     1       3.513  -0.546   0.000  0.00  0.00    +0.000 C 
ATOM      4  C   UNL     1       3.768  -1.331   0.000  0.00  0.00    +0.000 C 
ATOM      5  O   UNL     1       2.961  -1.503   0.000  0.00  0.00    +0.000 OA
ATOM      6  O   UNL     1       4.593  -1.331   0.000  0.00  0.00    +0.000 OA
ENDROOT
BRANCH   4   7
ATOM      7  C   UNL     1       3.854  -2.152   0.000  0.00  0.00    +0.000 C 
BRANCH   7   8
ATOM      8  O   UNL     1       3.186  -2.637   0.000  0.00  0.00    +0.000 OA
BRANCH   8   9
ATOM      9  C   UNL     1       3.273  -3.457   0.000  0.00  0.00    +0.000 C 
ATOM     10  O   UNL     1       4.026  -3.793   0.000  0.00  0.00    +0.000 OA
BRANCH   9  15
ATOM     11  C   UNL     1       2.024  -5.247   0.000  0.00  0.00    +0.000 A 
ATOM     12  C   UNL     1       2.691  -4.762   0.000  0.00  0.00    +0.000 A 
ATOM     13  C   UNL     1       1.270  -4.912   0.000  0.00  0.00    +0.000 A 
ATOM     14  C   UNL     1       1.851  -3.606   0.000  0.00  0.00    +0.000 A 
ATOM     15  C   UNL     1       2.605  -3.942   0.000  0.00  0.00    +0.000 A 
ATOM     16  N   UNL     1       1.184  -4.091   0.000  0.00  0.00    +0.000 NA
ENDBRANCH   9  15
ENDBRANCH   8   9
ENDBRANCH   7   8
ENDBRANCH   4   7
BRANCH   1  17
ATOM     17  C   UNL     1       5.632  -0.292   0.000  0.00  0.00    +0.000 C 
BRANCH  17  18
ATOM     18  O   UNL     1       5.804   0.515   0.000  0.00  0.00    +0.000 OA
BRANCH  18  19
ATOM     19  C   UNL     1       6.588   0.770   0.000  0.00  0.00    +0.000 C 
ATOM     20  O   UNL     1       7.201   0.218   0.000  0.00  0.00    +0.000 OA
BRANCH  19  25
ATOM     21  C   UNL     1       6.318   2.936   0.000  0.00  0.00    +0.000 A 
ATOM     22  C   UNL     1       6.147   2.129   0.000  0.00  0.00    +0.000 A 
ATOM     23  C   UNL     1       7.103   3.191   0.000  0.00  0.00    +0.000 A 
ATOM     24  C   UNL     1       7.545   1.832   0.000  0.00  0.00    +0.000 A 
ATOM     25  C   UNL     1       6.760   1.577   0.000  0.00  0.00    +0.000 A 
ATOM     26  N   UNL     1       7.716   2.639   0.000  0.00  0.00    +0.000 NA
ENDBRANCH  19  25
ENDBRANCH  18  19
ENDBRANCH  17  18
ENDBRANCH   1  17
BRANCH   2  27
ATOM     27  O   UNL     1       4.180   0.763   0.000  0.00  0.00    +0.000 OA
BRANCH  27  28
ATOM     28  C   UNL     1       3.466   1.176   0.000  0.00  0.00    +0.000 C 
ATOM     29  O   UNL     1       2.751   0.763   0.000  0.00  0.00    +0.000 OA
BRANCH  28  34
ATOM     30  C   UNL     1       2.751   3.238   0.000  0.00  0.00    +0.000 A 
ATOM     31  C   UNL     1       2.751   2.413   0.000  0.00  0.00    +0.000 A 
ATOM     32  C   UNL     1       3.466   3.651   0.000  0.00  0.00    +0.000 A 
ATOM     33  C   UNL     1       4.180   2.413   0.000  0.00  0.00    +0.000 A 
ATOM     34  C   UNL     1       3.466   2.001   0.000  0.00  0.00    +0.000 A 
ATOM     35  N   UNL     1       4.180   3.238   0.000  0.00  0.00    +0.000 NA
ENDBRANCH  28  34
ENDBRANCH  27  28
ENDBRANCH   2  27
BRANCH   3  36
ATOM     36  O   UNL     1       2.728  -0.292   0.000  0.00  0.00    +0.000 OA
BRANCH  36  37
ATOM     37  C   UNL     1       2.115  -0.844   0.000  0.00  0.00    +0.000 C 
ATOM     38  O   UNL     1       2.287  -1.651   0.000  0.00  0.00    +0.000 OA
BRANCH  37  43
ATOM     39  C   UNL     1      -0.067  -0.886   0.000  0.00  0.00    +0.000 A 
ATOM     40  C   UNL     1       0.717  -1.141   0.000  0.00  0.00    +0.000 A 
ATOM     41  C   UNL     1      -0.239  -0.079   0.000  0.00  0.00    +0.000 A 
ATOM     42  C   UNL     1       1.159   0.218   0.000  0.00  0.00    +0.000 A 
ATOM     43  C   UNL     1       1.330  -0.589   0.000  0.00  0.00    +0.000 A 
ATOM     44  N   UNL     1       0.374   0.473   0.000  0.00  0.00    +0.000 NA
ENDBRANCH  37  43
ENDBRANCH  36  37
ENDBRANCH   3  36
TORSDOF 14
