REMARK  Name = 
REMARK  4 active torsions:
REMARK  status: ('A' for Active; 'I' for Inactive)
REMARK    1  A    between atoms: C_2  and  C_3
REMARK    2  A    between atoms: C_3  and  C_4
REMARK    3  A    between atoms: C_4  and  O_6
REMARK    4  A    between atoms: O_6  and  C_7
REMARK                            x       y       z     vdW  Elec       q    Type
REMARK                         _______ _______ _______ _____ _____    ______ ____
ROOT
ATOM      1  C   UNL     1       3.572  -2.888   0.000  0.00  0.00    +0.000 C 
ATOM      2  C   UNL     1       4.287  -2.475   0.000  0.00  0.00    +0.000 C 
ATOM      3  N   UNL     1       5.001  -2.888   0.000  0.00  0.00    +0.000 NA
ATOM      4  C   UNL     1       5.786  -2.633   0.000  0.00  0.00    +0.000 C 
ATOM      5  C   UNL     1       6.271  -3.300   0.000  0.00  0.00    +0.000 C 
ATOM      6  C   UNL     1       5.786  -3.967   0.000  0.00  0.00    +0.000 C 
ATOM      7  C   UNL     1       5.001  -3.712   0.000  0.00  0.00    +0.000 C 
ATOM      8  C   UNL     1       4.287  -4.125   0.000  0.00  0.00    +0.000 C 
ATOM      9  C   UNL     1       3.572  -3.712   0.000  0.00  0.00    +0.000 C 
ATOM     10  O   UNL     1       2.858  -4.125   0.000  0.00  0.00    +0.000 OA
ATOM     11  O   UNL     1       4.287  -4.950   0.000  0.00  0.00    +0.000 OA
ATOM     12  O   UNL     1       6.041  -4.752   0.000  0.00  0.00    +0.000 OA
ENDROOT
BRANCH   1  13
ATOM     13  O   UNL     1       2.858  -2.475   0.000  0.00  0.00    +0.000 OA
BRANCH  13  14
ATOM     14  C   UNL     1       2.143  -2.888   0.000  0.00  0.00    +0.000 C 
ATOM     15  O   UNL     1       2.143  -3.712   0.000  0.00  0.00    +0.000 OA
BRANCH  14  16
ATOM     16  C   UNL     1       1.429  -2.475   0.000  0.00  0.00    +0.000 C 
BRANCH  16  18
ATOM     17  C   UNL     1       0.000  -2.475   0.000  0.00  0.00    +0.000 C 
ATOM     18  C   UNL     1       0.715  -2.888   0.000  0.00  0.00    +0.000 C 
ENDBRANCH  16  18
ENDBRANCH  14  16
ENDBRANCH  13  14
ENDBRANCH   1  13
TORSDOF 4
