REMARK  Name = 
REMARK  9 active torsions:
REMARK  status: ('A' for Active; 'I' for Inactive)
REMARK    1  A    between atoms: N_6  and  CA_19
REMARK    2  A    between atoms: C_14  and  C_15
REMARK    3  A    between atoms: C_14  and  C_16
REMARK    4  A    between atoms: C_16  and  C_18
REMARK    5  A    between atoms: CA_19  and  C_21
REMARK    6  A    between atoms: CA_19  and  C_31
REMARK    7  A    between atoms: C_21  and  C_23
REMARK    8  A    between atoms: C_23  and  C_33
REMARK    9  A    between atoms: C_24  and  C_28
REMARK                            x       y       z     vdW  Elec       q    Type
REMARK                         _______ _______ _______ _____ _____    ______ ____
ROOT
ATOM      1  C   UNL     1       0.748  -1.400   0.000  0.00  0.00    +0.000 A 
ATOM      2  C   UNL     1       1.261   0.168   0.000  0.00  0.00    +0.000 A 
ATOM      3  C   UNL     1       0.197  -0.786   0.000  0.00  0.00    +0.000 A 
ATOM      4  C   UNL     1       1.555  -1.230   0.000  0.00  0.00    +0.000 A 
ATOM      5  C   UNL     1       0.453  -0.002   0.000  0.00  0.00    +0.000 A 
ATOM      6  C   UNL     1       1.812  -0.446   0.000  0.00  0.00    +0.000 A 
ENDROOT
BRANCH   2   9
ATOM      7  O   UNL     1       0.966   1.566   0.000  0.00  0.00    +0.000 OA
ATOM      8  N   UNL     1       2.324   1.122   0.000  0.00  0.00    +0.000 N 
ATOM      9  C   UNL     1       1.517   0.952   0.000  0.00  0.00    +0.000 C 
ATOM     10  H   UNL     1       2.666   0.742   0.000  0.00  0.00    +0.000 HD
BRANCH   8  11
ATOM     11  CA  UNL     1       2.580   1.906   0.000  0.00  0.00    +0.000 C 
BRANCH  11  14
ATOM     12  O   UNL     1       3.644   2.861   0.000  0.00  0.00    +0.000 OA
ATOM     13  OXT UNL     1       3.939   1.463   0.000  0.00  0.00    +0.000 OA
ATOM     14  C   UNL     1       3.388   2.077   0.000  0.00  0.00    +0.000 C 
ENDBRANCH  11  14
BRANCH  11  15
ATOM     15  C   UNL     1       2.030   2.521   0.000  0.00  0.00    +0.000 C 
BRANCH  15  16
ATOM     16  C   UNL     1       2.286   3.305   0.000  0.00  0.00    +0.000 C 
BRANCH  16  21
ATOM     17  N   UNL     1       0.914   3.834   0.000  0.00  0.00    +0.000 NA
ATOM     18  N   UNL     1       1.908   4.726   0.000  0.00  0.00    +0.000 NA
ATOM     19  N   UNL     1       0.580   4.588   0.000  0.00  0.00    +0.000 N 
ATOM     20  N   UNL     1       1.194   5.139   0.000  0.00  0.00    +0.000 NA
ATOM     21  C   UNL     1       1.735   3.919   0.000  0.00  0.00    +0.000 A 
ATOM     22  H   UNL     1       0.080   4.695   0.000  0.00  0.00    +0.000 HD
ENDBRANCH  16  21
ENDBRANCH  15  16
ENDBRANCH  11  15
ENDBRANCH   8  11
ENDBRANCH   2   9
BRANCH   1  23
ATOM     23  C   UNL     1       0.492  -2.184   0.000  0.00  0.00    +0.000 C 
BRANCH  23  24
ATOM     24  C   UNL     1      -0.315  -2.355   0.000  0.00  0.00    +0.000 C 
BRANCH  24  30
ATOM     25  O   UNL     1      -2.067  -2.153   0.000  0.00  0.00    +0.000 OA
ATOM     26  N   UNL     1      -0.572  -4.467   0.000  0.00  0.00    +0.000 N 
ATOM     27  N   UNL     1      -2.067  -4.628   0.000  0.00  0.00    +0.000 N 
ATOM     28  N   UNL     1      -2.781  -3.390   0.000  0.00  0.00    +0.000 NA
ATOM     29  N   UNL     1      -3.496  -4.628   0.000  0.00  0.00    +0.000 N 
ATOM     30  C   UNL     1      -0.572  -3.139   0.000  0.00  0.00    +0.000 A 
ATOM     31  C   UNL     1      -1.352  -3.390   0.000  0.00  0.00    +0.000 A 
ATOM     32  C   UNL     1      -1.352  -4.215   0.000  0.00  0.00    +0.000 A 
ATOM     33  C   UNL     1      -0.090  -3.803   0.000  0.00  0.00    +0.000 A 
ATOM     34  C   UNL     1      -2.067  -2.978   0.000  0.00  0.00    +0.000 A 
ATOM     35  C   UNL     1      -2.781  -4.215   0.000  0.00  0.00    +0.000 A 
ATOM     36  H   UNL     1      -0.413  -4.953   0.000  0.00  0.00    +0.000 HD
ATOM     37  H   UNL     1      -2.067  -5.139   0.000  0.00  0.00    +0.000 HD
ATOM     38  H   UNL     1      -3.496  -5.139   0.000  0.00  0.00    +0.000 HD
ATOM     39  H   UNL     1      -3.939  -4.372   0.000  0.00  0.00    +0.000 HD
ENDBRANCH  24  30
ENDBRANCH  23  24
ENDBRANCH   1  23
TORSDOF 9
