REMARK  Name = 
REMARK  7 active torsions:
REMARK  status: ('A' for Active; 'I' for Inactive)
REMARK    1  A    between atoms: N_11  and  C_16
REMARK    2  A    between atoms: C_13  and  N_21
REMARK    3  A    between atoms: C_16  and  C_17
REMARK    4  A    between atoms: N_21  and  S_22
REMARK    5  A    between atoms: S_22  and  N_23
REMARK    6  A    between atoms: N_23  and  C_24
REMARK    7  A    between atoms: N_23  and  C_25
REMARK                            x       y       z     vdW  Elec       q    Type
REMARK                         _______ _______ _______ _____ _____    ______ ____
ROOT
ATOM      1  C   UNL     1      23.384 -18.886   0.000  0.00  0.00    +0.000 A 
ATOM      2  C   UNL     1      23.384 -19.711   0.000  0.00  0.00    +0.000 A 
ATOM      3  C   UNL     1      24.099 -20.123   0.000  0.00  0.00    +0.000 A 
ATOM      4  C   UNL     1      24.813 -19.711   0.000  0.00  0.00    +0.000 A 
ATOM      5  C   UNL     1      24.813 -18.886   0.000  0.00  0.00    +0.000 A 
ATOM      6  C   UNL     1      24.099 -18.473   0.000  0.00  0.00    +0.000 A 
ATOM      7  C   UNL     1      25.528 -20.123   0.000  0.00  0.00    +0.000 C 
ATOM      8  C   UNL     1      26.242 -19.711   0.000  0.00  0.00    +0.000 C 
ATOM      9  C   UNL     1      26.242 -18.886   0.000  0.00  0.00    +0.000 C 
ATOM     10  C   UNL     1      25.528 -18.473   0.000  0.00  0.00    +0.000 C 
ATOM     11  N   UNL     1      26.957 -20.123   0.000  0.00  0.00    +0.000 NA
ATOM     12  C   UNL     1      27.671 -19.711   0.000  0.00  0.00    +0.000 C 
ATOM     13  C   UNL     1      27.671 -18.886   0.000  0.00  0.00    +0.000 C 
ATOM     14  C   UNL     1      26.957 -18.473   0.000  0.00  0.00    +0.000 C 
ATOM     15  O   UNL     1      24.099 -17.648   0.000  0.00  0.00    +0.000 OA
ENDROOT
BRANCH  13  16
ATOM     16  N   UNL     1      28.388 -18.472   0.000  0.00  0.00    +0.000 NA
BRANCH  16  17
ATOM     17  S   UNL     1      28.387 -17.653   0.000  0.00  0.00    +0.000 S 
ATOM     18  O   UNL     1      28.380 -16.774   0.000  0.00  0.00    +0.000 OA
ATOM     19  O   UNL     1      27.559 -17.639   0.000  0.00  0.00    +0.000 OA
BRANCH  17  20
ATOM     20  N   UNL     1      29.201 -17.647   0.000  0.00  0.00    +0.000 NA
BRANCH  20  21
ATOM     21  C   UNL     1      29.619 -18.359   0.000  0.00  0.00    +0.000 C 
ATOM     22  C   UNL     1      30.438 -18.353   0.000  0.00  0.00    +0.000 C 
ENDBRANCH  20  21
BRANCH  20  23
ATOM     23  C   UNL     1      29.607 -16.930   0.000  0.00  0.00    +0.000 C 
ATOM     24  C   UNL     1      30.438 -16.924   0.000  0.00  0.00    +0.000 C 
ENDBRANCH  20  23
ENDBRANCH  17  20
ENDBRANCH  16  17
ENDBRANCH  13  16
BRANCH  11  25
ATOM     25  C   UNL     1      26.957 -20.948   0.000  0.00  0.00    +0.000 C 
BRANCH  25  26
ATOM     26  C   UNL     1      27.683 -21.368   0.000  0.00  0.00    +0.000 C 
ATOM     27  C   UNL     1      28.394 -20.958   0.000  0.00  0.00    +0.000 C 
ENDBRANCH  25  26
ENDBRANCH  11  25
TORSDOF 7
