REMARK  Name = 
REMARK  6 active torsions:
REMARK  status: ('A' for Active; 'I' for Inactive)
REMARK    1  A    between atoms: C_2  and  C_7
REMARK    2  A    between atoms: C_2  and  C_8
REMARK    3  A    between atoms: C_10  and  O_12
REMARK    4  A    between atoms: C_11  and  O_13
REMARK    5  A    between atoms: O_12  and  C_20
REMARK    6  A    between atoms: O_13  and  C_21
REMARK                            x       y       z     vdW  Elec       q    Type
REMARK                         _______ _______ _______ _____ _____    ______ ____
ROOT
ATOM      1  C   UNL     1      -0.898  -2.417   0.000  0.00  0.00    +0.000 C 
ATOM      2  C   UNL     1      -0.898  -1.611   0.000  0.00  0.00    +0.000 C 
ATOM      3  O   UNL     1      -1.628  -1.187   0.000  0.00  0.00    +0.000 OA
ATOM      4  N   UNL     1      -1.628  -2.842   0.000  0.00  0.00    +0.000 NA
ATOM      5  C   UNL     1      -2.350  -1.590   0.000  0.00  0.00    +0.000 A 
ATOM      6  C   UNL     1      -2.350  -2.439   0.000  0.00  0.00    +0.000 A 
ATOM      7  O   UNL     1      -0.147  -2.842   0.000  0.00  0.00    +0.000 OA
ATOM      8  C   UNL     1      -3.079  -1.187   0.000  0.00  0.00    +0.000 A 
ATOM      9  C   UNL     1      -3.079  -2.842   0.000  0.00  0.00    +0.000 A 
ATOM     10  C   UNL     1      -3.784  -1.611   0.000  0.00  0.00    +0.000 A 
ATOM     11  C   UNL     1      -3.784  -2.417   0.000  0.00  0.00    +0.000 A 
ENDROOT
BRANCH   2  12
ATOM     12  C   UNL     1      -0.031  -1.622   0.000  0.00  0.00    +0.000 A 
ATOM     13  C   UNL     1       0.332  -0.871   0.000  0.00  0.00    +0.000 A 
ATOM     14  C   UNL     1       0.452  -2.265   0.000  0.00  0.00    +0.000 A 
ATOM     15  C   UNL     1       1.562  -1.553   0.000  0.00  0.00    +0.000 A 
ATOM     16  C   UNL     1       1.199  -0.871   0.000  0.00  0.00    +0.000 A 
ATOM     17  C   UNL     1       1.199  -2.265   0.000  0.00  0.00    +0.000 A 
BRANCH  15  18
ATOM     18  O   UNL     1       2.401  -1.553   0.000  0.00  0.00    +0.000 OA
BRANCH  18  19
ATOM     19  C   UNL     1       2.945  -2.090   0.000  0.00  0.00    +0.000 C 
ATOM     20  O   UNL     1       2.629  -2.853   0.000  0.00  0.00    +0.000 OA
ATOM     21  C   UNL     1       3.784  -1.967   0.000  0.00  0.00    +0.000 C 
ENDBRANCH  18  19
ENDBRANCH  15  18
ENDBRANCH   2  12
BRANCH   2  22
ATOM     22  C   UNL     1      -0.898  -0.748   0.000  0.00  0.00    +0.000 A 
ATOM     23  C   UNL     1      -0.169  -0.334   0.000  0.00  0.00    +0.000 A 
ATOM     24  C   UNL     1      -1.573  -0.305   0.000  0.00  0.00    +0.000 A 
ATOM     25  C   UNL     1      -0.898   0.893   0.000  0.00  0.00    +0.000 A 
ATOM     26  C   UNL     1      -1.573   0.457   0.000  0.00  0.00    +0.000 A 
ATOM     27  C   UNL     1      -0.169   0.457   0.000  0.00  0.00    +0.000 A 
BRANCH  25  28
ATOM     28  O   UNL     1      -0.898   1.513   0.000  0.00  0.00    +0.000 OA
BRANCH  28  29
ATOM     29  C   UNL     1      -0.368   2.025   0.000  0.00  0.00    +0.000 C 
ATOM     30  O   UNL     1      -0.532   2.853   0.000  0.00  0.00    +0.000 OA
ATOM     31  C   UNL     1       0.419   1.775   0.000  0.00  0.00    +0.000 C 
ENDBRANCH  28  29
ENDBRANCH  25  28
ENDBRANCH   2  22
TORSDOF 6
