REMARK  Name = 
REMARK  10 active torsions:
REMARK  status: ('A' for Active; 'I' for Inactive)
REMARK    1  A    between atoms: O_1  and  C_2
REMARK    2  A    between atoms: O_1  and  C_50
REMARK    3  A    between atoms: C_5  and  O_58
REMARK    4  A    between atoms: C_8  and  O_58
REMARK    5  A    between atoms: C_37  and  O_55
REMARK    6  A    between atoms: C_38  and  C_44
REMARK    7  A    between atoms: C_39  and  C_41
REMARK    8  A    between atoms: C_44  and  O_45
REMARK    9  A    between atoms: C_47  and  O_55
REMARK   10  A    between atoms: C_51  and  N_53
REMARK                            x       y       z     vdW  Elec       q    Type
REMARK                         _______ _______ _______ _____ _____    ______ ____
ROOT
ATOM      1  C   UNL     1      -3.961   3.444   0.000  0.00  0.00    +0.000 A 
ATOM      2  C   UNL     1      -4.675   3.031   0.000  0.00  0.00    +0.000 A 
ATOM      3  C   UNL     1      -4.675   2.206   0.000  0.00  0.00    +0.000 A 
ATOM      4  C   UNL     1      -3.246   3.031   0.000  0.00  0.00    +0.000 A 
ATOM      5  C   UNL     1      -3.246   2.206   0.000  0.00  0.00    +0.000 A 
ATOM      6  C   UNL     1      -2.532   3.444   0.000  0.00  0.00    +0.000 C 
ATOM      7  O   UNL     1      -2.532   4.269   0.000  0.00  0.00    +0.000 OA
ATOM      8  C   UNL     1      -2.532   1.794   0.000  0.00  0.00    +0.000 C 
ATOM      9  O   UNL     1      -2.532   0.969   0.000  0.00  0.00    +0.000 OA
ATOM     10  C   UNL     1      -3.961   1.794   0.000  0.00  0.00    +0.000 A 
ATOM     11  O   UNL     1      -3.961   0.969   0.000  0.00  0.00    +0.000 OA
ATOM     12  C   UNL     1      -1.817   3.031   0.000  0.00  0.00    +0.000 A 
ATOM     13  C   UNL     1      -1.817   2.206   0.000  0.00  0.00    +0.000 A 
ATOM     14  C   UNL     1      -1.103   3.444   0.000  0.00  0.00    +0.000 A 
ATOM     15  C   UNL     1      -1.103   1.794   0.000  0.00  0.00    +0.000 A 
ATOM     16  O   UNL     1      -1.103   0.969   0.000  0.00  0.00    +0.000 OA
ATOM     17  C   UNL     1      -0.326   3.094   0.000  0.00  0.00    +0.000 A 
ATOM     18  C   UNL     1      -0.326   2.269   0.000  0.00  0.00    +0.000 A 
ATOM     19  C   UNL     1       1.103   2.269   0.000  0.00  0.00    +0.000 C 
ATOM     20  C   UNL     1       0.388   1.856   0.000  0.00  0.00    +0.000 C 
ATOM     21  C   UNL     1       0.388   3.506   0.000  0.00  0.00    +0.000 C 
ATOM     22  C   UNL     1       1.103   3.094   0.000  0.00  0.00    +0.000 C 
ATOM     23  O   UNL     1       1.900   2.880   0.000  0.00  0.00    +0.000 OA
ENDROOT
BRANCH  21  25
ATOM     24  O   UNL     1      -0.326   4.744   0.000  0.00  0.00    +0.000 OA
ATOM     25  C   UNL     1       0.388   4.331   0.000  0.00  0.00    +0.000 C 
BRANCH  25  26
ATOM     26  O   UNL     1       1.103   4.744   0.000  0.00  0.00    +0.000 OA
ATOM     27  C   UNL     1       1.103   5.569   0.000  0.00  0.00    +0.000 C 
ENDBRANCH  25  26
ENDBRANCH  21  25
BRANCH  22  28
ATOM     28  C   UNL     1       1.515   3.808   0.000  0.00  0.00    +0.000 C 
ATOM     29  C   UNL     1       2.340   3.808   0.000  0.00  0.00    +0.000 C 
ENDBRANCH  22  28
BRANCH  20  30
ATOM     30  O   UNL     1       0.388   1.031   0.000  0.00  0.00    +0.000 OA
BRANCH  30  31
ATOM     31  C   UNL     1       1.103   0.619   0.000  0.00  0.00    +0.000 C 
ATOM     32  O   UNL     1       1.103  -0.206   0.000  0.00  0.00    +0.000 OA
ATOM     33  C   UNL     1       1.817  -0.619   0.000  0.00  0.00    +0.000 C 
ATOM     34  C   UNL     1       2.532  -0.206   0.000  0.00  0.00    +0.000 C 
ATOM     35  C   UNL     1       2.532   0.619   0.000  0.00  0.00    +0.000 C 
ATOM     36  C   UNL     1       1.817   1.031   0.000  0.00  0.00    +0.000 C 
ATOM     37  C   UNL     1       1.817  -1.444   0.000  0.00  0.00    +0.000 C 
BRANCH  35  38
ATOM     38  N   UNL     1       3.246   1.031   0.000  0.00  0.00    +0.000 NA
ATOM     39  C   UNL     1       3.246   1.856   0.000  0.00  0.00    +0.000 C 
ATOM     40  C   UNL     1       3.961   0.619   0.000  0.00  0.00    +0.000 C 
ENDBRANCH  35  38
BRANCH  34  41
ATOM     41  O   UNL     1       3.246  -0.619   0.000  0.00  0.00    +0.000 OA
BRANCH  41  42
ATOM     42  C   UNL     1       3.246  -1.444   0.000  0.00  0.00    +0.000 C 
ATOM     43  O   UNL     1       2.532  -1.856   0.000  0.00  0.00    +0.000 OA
ATOM     44  C   UNL     1       2.532  -2.681   0.000  0.00  0.00    +0.000 C 
ATOM     45  C   UNL     1       3.246  -3.094   0.000  0.00  0.00    +0.000 C 
ATOM     46  C   UNL     1       3.961  -2.681   0.000  0.00  0.00    +0.000 C 
ATOM     47  C   UNL     1       3.961  -1.856   0.000  0.00  0.00    +0.000 C 
ATOM     48  O   UNL     1       4.675  -3.094   0.000  0.00  0.00    +0.000 OA
ATOM     49  C   UNL     1       1.817  -3.094   0.000  0.00  0.00    +0.000 C 
BRANCH  45  50
ATOM     50  O   UNL     1       3.246  -3.919   0.000  0.00  0.00    +0.000 OA
BRANCH  50  51
ATOM     51  C   UNL     1       2.532  -4.331   0.000  0.00  0.00    +0.000 C 
ATOM     52  O   UNL     1       1.817  -3.919   0.000  0.00  0.00    +0.000 OA
ATOM     53  C   UNL     1       1.103  -4.331   0.000  0.00  0.00    +0.000 C 
ATOM     54  C   UNL     1       1.103  -5.156   0.000  0.00  0.00    +0.000 C 
ATOM     55  C   UNL     1       1.817  -5.569   0.000  0.00  0.00    +0.000 C 
ATOM     56  C   UNL     1       2.532  -5.156   0.000  0.00  0.00    +0.000 C 
ATOM     57  C   UNL     1       0.388  -3.919   0.000  0.00  0.00    +0.000 C 
ATOM     58  O   UNL     1       0.388  -5.569   0.000  0.00  0.00    +0.000 OA
ENDBRANCH  50  51
ENDBRANCH  45  50
ENDBRANCH  41  42
ENDBRANCH  34  41
ENDBRANCH  30  31
ENDBRANCH  20  30
TORSDOF 10
