REMARK  Name = 
REMARK  8 active torsions:
REMARK  status: ('A' for Active; 'I' for Inactive)
REMARK    1  A    between atoms: C_2  and  C_4
REMARK    2  A    between atoms: N_6  and  C_7
REMARK    3  A    between atoms: C_11  and  S_13
REMARK    4  A    between atoms: S_13  and  N_16
REMARK    5  A    between atoms: N_16  and  C_17
REMARK    6  A    between atoms: C_18  and  N_27
REMARK    7  A    between atoms: N_27  and  C_28
REMARK    8  A    between atoms: C_30  and  O_35
REMARK                            x       y       z     vdW  Elec       q    Type
REMARK                         _______ _______ _______ _____ _____    ______ ____
ROOT
ATOM      1  C   UNL     1       0.715  -1.238   0.000  0.00  0.00    +0.000 A 
ATOM      2  C   UNL     1       0.715  -0.412   0.000  0.00  0.00    +0.000 A 
ATOM      3  N   UNL     1       1.429   0.000   0.000  0.00  0.00    +0.000 NA
ATOM      4  C   UNL     1       2.143  -0.412   0.000  0.00  0.00    +0.000 A 
ATOM      5  C   UNL     1       2.858   0.000   0.000  0.00  0.00    +0.000 A 
ATOM      6  C   UNL     1       3.572  -0.412   0.000  0.00  0.00    +0.000 A 
ATOM      7  C   UNL     1       3.572  -1.238   0.000  0.00  0.00    +0.000 A 
ATOM      8  C   UNL     1       2.858  -1.650   0.000  0.00  0.00    +0.000 A 
ATOM      9  C   UNL     1       2.143  -1.238   0.000  0.00  0.00    +0.000 A 
ATOM     10  N   UNL     1       1.429  -1.650   0.000  0.00  0.00    +0.000 NA
ENDROOT
BRANCH   2  11
ATOM     11  N   UNL     1       0.000   0.000   0.000  0.00  0.00    +0.000 NA
BRANCH  11  12
ATOM     12  C   UNL     1       0.000   0.825   0.000  0.00  0.00    +0.000 A 
ATOM     13  C   UNL     1      -0.715   1.238   0.000  0.00  0.00    +0.000 A 
ATOM     14  C   UNL     1      -0.715   2.062   0.000  0.00  0.00    +0.000 A 
ATOM     15  C   UNL     1       0.000   2.475   0.000  0.00  0.00    +0.000 A 
ATOM     16  C   UNL     1       0.715   2.062   0.000  0.00  0.00    +0.000 A 
ATOM     17  C   UNL     1       0.715   1.238   0.000  0.00  0.00    +0.000 A 
ATOM     18 CL   UNL     1       1.429   0.825   0.000  0.00  0.00    +0.000 Cl
BRANCH  14  19
ATOM     19  O   UNL     1      -1.429   2.475   0.000  0.00  0.00    +0.000 OA
ATOM     20  C   UNL     1      -1.429   3.300   0.000  0.00  0.00    +0.000 C 
ENDBRANCH  14  19
ENDBRANCH  11  12
ENDBRANCH   2  11
BRANCH   1  21
ATOM     21  N   UNL     1       0.000  -1.650   0.000  0.00  0.00    +0.000 NA
BRANCH  21  22
ATOM     22  S   UNL     1       0.000  -2.475   0.000  0.00  0.00    +0.000 S 
ATOM     23  O   UNL     1       0.825  -2.475   0.000  0.00  0.00    +0.000 OA
ATOM     24  O   UNL     1      -0.825  -2.475   0.000  0.00  0.00    +0.000 OA
BRANCH  22  29
ATOM     25  C   UNL     1       0.715  -4.537   0.000  0.00  0.00    +0.000 A 
ATOM     26  C   UNL     1       0.000  -4.950   0.000  0.00  0.00    +0.000 A 
ATOM     27  C   UNL     1      -0.715  -4.537   0.000  0.00  0.00    +0.000 A 
ATOM     28  C   UNL     1      -0.715  -3.712   0.000  0.00  0.00    +0.000 A 
ATOM     29  C   UNL     1       0.000  -3.300   0.000  0.00  0.00    +0.000 A 
ATOM     30  C   UNL     1       0.715  -3.712   0.000  0.00  0.00    +0.000 A 
BRANCH  25  33
ATOM     31  C   UNL     1       1.429  -5.775   0.000  0.00  0.00    +0.000 C 
ATOM     32  O   UNL     1       0.715  -6.188   0.000  0.00  0.00    +0.000 OA
ATOM     33  N   UNL     1       1.429  -4.950   0.000  0.00  0.00    +0.000 NA
BRANCH  31  35
ATOM     34  C   UNL     1       2.858  -6.600   0.000  0.00  0.00    +0.000 C 
ATOM     35  C   UNL     1       2.143  -6.188   0.000  0.00  0.00    +0.000 C 
ATOM     36  C   UNL     1       2.556  -5.473   0.000  0.00  0.00    +0.000 C 
ATOM     37  N   UNL     1       1.731  -6.902   0.000  0.00  0.00    +0.000 NA
ENDBRANCH  31  35
ENDBRANCH  25  33
ENDBRANCH  22  29
ENDBRANCH  21  22
ENDBRANCH   1  21
TORSDOF 8
