REMARK  Name = 
REMARK  12 active torsions:
REMARK  status: ('A' for Active; 'I' for Inactive)
REMARK    1  A    between atoms: C_5  and  C_6
REMARK    2  A    between atoms: C_5  and  N_7
REMARK    3  A    between atoms: C_6  and  O_8
REMARK    4  A    between atoms: C_13  and  C_14
REMARK    5  A    between atoms: C_13  and  N_15
REMARK    6  A    between atoms: C_14  and  O_16
REMARK    7  A    between atoms: C_21  and  C_22
REMARK    8  A    between atoms: C_21  and  N_23
REMARK    9  A    between atoms: C_22  and  O_24
REMARK   10  A    between atoms: C_29  and  C_30
REMARK   11  A    between atoms: C_29  and  N_31
REMARK   12  A    between atoms: C_30  and  O_32
REMARK                            x       y       z     vdW  Elec       q    Type
REMARK                         _______ _______ _______ _____ _____    ______ ____
ROOT
ATOM      1  C   UNL     1      -6.784   1.575   0.000  0.00  0.00    +0.000 C 
ATOM      2  C   UNL     1      -5.355   2.400   0.000  0.00  0.00    +0.000 C 
ATOM      3  C   UNL     1      -6.070   1.987   0.000  0.00  0.00    +0.000 C 
ENDROOT
BRANCH   3   5
ATOM      4  C   UNL     1      -7.307   2.702   0.000  0.00  0.00    +0.000 C 
ATOM      5  O   UNL     1      -6.482   2.702   0.000  0.00  0.00    +0.000 OA
ENDBRANCH   3   5
BRANCH   3   6
ATOM      6  C   UNL     1      -5.657   1.273   0.000  0.00  0.00    +0.000 C 
BRANCH   6   8
ATOM      7  C   UNL     1      -4.007   1.273   0.000  0.00  0.00    +0.000 C 
ATOM      8  N   UNL     1      -4.832   1.273   0.000  0.00  0.00    +0.000 NA
ENDBRANCH   6   8
ENDBRANCH   3   6
TORSDOF 3
REMARK  Name = 
REMARK  12 active torsions:
REMARK  status: ('A' for Active; 'I' for Inactive)
REMARK    1  A    between atoms: C_5  and  C_6
REMARK    2  A    between atoms: C_5  and  N_7
REMARK    3  A    between atoms: C_6  and  O_8
REMARK    4  A    between atoms: C_13  and  C_14
REMARK    5  A    between atoms: C_13  and  N_15
REMARK    6  A    between atoms: C_14  and  O_16
REMARK    7  A    between atoms: C_21  and  C_22
REMARK    8  A    between atoms: C_21  and  N_23
REMARK    9  A    between atoms: C_22  and  O_24
REMARK   10  A    between atoms: C_29  and  C_30
REMARK   11  A    between atoms: C_29  and  N_31
REMARK   12  A    between atoms: C_30  and  O_32
REMARK                            x       y       z     vdW  Elec       q    Type
REMARK                         _______ _______ _______ _____ _____    ______ ____
ROOT
ATOM      1  C   UNL     1       0.412   2.475   0.000  0.00  0.00    +0.000 C 
ATOM      2  C   UNL     1       0.412   0.825   0.000  0.00  0.00    +0.000 C 
ATOM      3  C   UNL     1       0.412   1.650   0.000  0.00  0.00    +0.000 C 
ENDROOT
BRANCH   3   5
ATOM      4  C   UNL     1      -0.825   0.935   0.000  0.00  0.00    +0.000 C 
ATOM      5  O   UNL     1      -0.412   1.650   0.000  0.00  0.00    +0.000 OA
ENDBRANCH   3   5
BRANCH   3   6
ATOM      6  C   UNL     1       1.238   1.650   0.000  0.00  0.00    +0.000 C 
BRANCH   6   8
ATOM      7  C   UNL     1       2.062   3.079   0.000  0.00  0.00    +0.000 C 
ATOM      8  N   UNL     1       1.650   2.364   0.000  0.00  0.00    +0.000 NA
ENDBRANCH   6   8
ENDBRANCH   3   6
TORSDOF 3
REMARK  Name = 
REMARK  12 active torsions:
REMARK  status: ('A' for Active; 'I' for Inactive)
REMARK    1  A    between atoms: C_5  and  C_6
REMARK    2  A    between atoms: C_5  and  N_7
REMARK    3  A    between atoms: C_6  and  O_8
REMARK    4  A    between atoms: C_13  and  C_14
REMARK    5  A    between atoms: C_13  and  N_15
REMARK    6  A    between atoms: C_14  and  O_16
REMARK    7  A    between atoms: C_21  and  C_22
REMARK    8  A    between atoms: C_21  and  N_23
REMARK    9  A    between atoms: C_22  and  O_24
REMARK   10  A    between atoms: C_29  and  C_30
REMARK   11  A    between atoms: C_29  and  N_31
REMARK   12  A    between atoms: C_30  and  O_32
REMARK                            x       y       z     vdW  Elec       q    Type
REMARK                         _______ _______ _______ _____ _____    ______ ____
ROOT
ATOM      1  C   UNL     1       5.657   2.475   0.000  0.00  0.00    +0.000 C 
ATOM      2  C   UNL     1       5.657   0.825   0.000  0.00  0.00    +0.000 C 
ATOM      3  C   UNL     1       5.657   1.650   0.000  0.00  0.00    +0.000 C 
ENDROOT
BRANCH   3   5
ATOM      4  C   UNL     1       4.420   0.935   0.000  0.00  0.00    +0.000 C 
ATOM      5  O   UNL     1       4.832   1.650   0.000  0.00  0.00    +0.000 OA
ENDBRANCH   3   5
BRANCH   3   6
ATOM      6  C   UNL     1       6.482   1.650   0.000  0.00  0.00    +0.000 C 
BRANCH   6   8
ATOM      7  C   UNL     1       7.307   3.079   0.000  0.00  0.00    +0.000 C 
ATOM      8  N   UNL     1       6.895   2.364   0.000  0.00  0.00    +0.000 NA
ENDBRANCH   6   8
ENDBRANCH   3   6
TORSDOF 3
REMARK  Name = 
REMARK  12 active torsions:
REMARK  status: ('A' for Active; 'I' for Inactive)
REMARK    1  A    between atoms: C_5  and  C_6
REMARK    2  A    between atoms: C_5  and  N_7
REMARK    3  A    between atoms: C_6  and  O_8
REMARK    4  A    between atoms: C_13  and  C_14
REMARK    5  A    between atoms: C_13  and  N_15
REMARK    6  A    between atoms: C_14  and  O_16
REMARK    7  A    between atoms: C_21  and  C_22
REMARK    8  A    between atoms: C_21  and  N_23
REMARK    9  A    between atoms: C_22  and  O_24
REMARK   10  A    between atoms: C_29  and  C_30
REMARK   11  A    between atoms: C_29  and  N_31
REMARK   12  A    between atoms: C_30  and  O_32
REMARK                            x       y       z     vdW  Elec       q    Type
REMARK                         _______ _______ _______ _____ _____    ______ ____
ROOT
ATOM      1  C   UNL     1      -5.726  -1.429   0.000  0.00  0.00    +0.000 C 
ATOM      2  C   UNL     1      -5.726  -3.079   0.000  0.00  0.00    +0.000 C 
ATOM      3  C   UNL     1      -5.726  -2.254   0.000  0.00  0.00    +0.000 C 
ENDROOT
BRANCH   3   5
ATOM      4  C   UNL     1      -6.963  -2.968   0.000  0.00  0.00    +0.000 C 
ATOM      5  O   UNL     1      -6.551  -2.254   0.000  0.00  0.00    +0.000 OA
ENDBRANCH   3   5
BRANCH   3   6
ATOM      6  C   UNL     1      -4.901  -2.254   0.000  0.00  0.00    +0.000 C 
BRANCH   6   8
ATOM      7  C   UNL     1      -4.076  -0.825   0.000  0.00  0.00    +0.000 C 
ATOM      8  N   UNL     1      -4.488  -1.539   0.000  0.00  0.00    +0.000 NA
ENDBRANCH   6   8
ENDBRANCH   3   6
TORSDOF 3
REMARK  Name = 
REMARK  12 active torsions:
REMARK  status: ('A' for Active; 'I' for Inactive)
REMARK    1  A    between atoms: C_5  and  C_6
REMARK    2  A    between atoms: C_5  and  N_7
REMARK    3  A    between atoms: C_6  and  O_8
REMARK    4  A    between atoms: C_13  and  C_14
REMARK    5  A    between atoms: C_13  and  N_15
REMARK    6  A    between atoms: C_14  and  O_16
REMARK    7  A    between atoms: C_21  and  C_22
REMARK    8  A    between atoms: C_21  and  N_23
REMARK    9  A    between atoms: C_22  and  O_24
REMARK   10  A    between atoms: C_29  and  C_30
REMARK   11  A    between atoms: C_29  and  N_31
REMARK   12  A    between atoms: C_30  and  O_32
REMARK                            x       y       z     vdW  Elec       q    Type
REMARK                         _______ _______ _______ _____ _____    ______ ____
ROOT
ATOM      1  B   UNL     1      -1.483  -2.075   0.000  0.00  0.00    +0.000 B 
ATOM      2  F   UNL     1      -1.483  -2.900   0.000  0.00  0.00    +0.000 F 
ATOM      3  F   UNL     1      -1.483  -1.250   0.000  0.00  0.00    +0.000 F 
ATOM      4  F   UNL     1      -0.658  -2.075   0.000  0.00  0.00    +0.000 F 
ATOM      5  F   UNL     1      -2.308  -2.075   0.000  0.00  0.00    +0.000 F 
ENDROOT
TORSDOF 0
REMARK  Name = 
REMARK  12 active torsions:
REMARK  status: ('A' for Active; 'I' for Inactive)
REMARK    1  A    between atoms: C_5  and  C_6
REMARK    2  A    between atoms: C_5  and  N_7
REMARK    3  A    between atoms: C_6  and  O_8
REMARK    4  A    between atoms: C_13  and  C_14
REMARK    5  A    between atoms: C_13  and  N_15
REMARK    6  A    between atoms: C_14  and  O_16
REMARK    7  A    between atoms: C_21  and  C_22
REMARK    8  A    between atoms: C_21  and  N_23
REMARK    9  A    between atoms: C_22  and  O_24
REMARK   10  A    between atoms: C_29  and  C_30
REMARK   11  A    between atoms: C_29  and  N_31
REMARK   12  A    between atoms: C_30  and  O_32
REMARK                            x       y       z     vdW  Elec       q    Type
REMARK                         _______ _______ _______ _____ _____    ______ ____
ROOT
ATOM      1 CU   UNL     1      -3.182   1.273   0.000  0.00  0.00    +0.000 Cu
ENDROOT
TORSDOF 0
