REMARK  Name = 
REMARK  14 active torsions:
REMARK  status: ('A' for Active; 'I' for Inactive)
REMARK    1  A    between atoms: C_3  and  C_19
REMARK    2  A    between atoms: C_6  and  C_7
REMARK    3  A    between atoms: C_7  and  N_8
REMARK    4  A    between atoms: N_8  and  C_9
REMARK    5  A    between atoms: C_9  and  C_10
REMARK    6  A    between atoms: C_10  and  O_11
REMARK    7  A    between atoms: O_11  and  C_12
REMARK    8  A    between atoms: C_14  and  C_15
REMARK    9  A    between atoms: C_19  and  N_20
REMARK   10  A    between atoms: N_20  and  C_21
REMARK   11  A    between atoms: C_21  and  C_27
REMARK   12  A    between atoms: C_22  and  C_23
REMARK   13  A    between atoms: C_27  and  O_28
REMARK   14  A    between atoms: O_28  and  C_29
REMARK                            x       y       z     vdW  Elec       q    Type
REMARK                         _______ _______ _______ _____ _____    ______ ____
ROOT
ATOM      1  C   UNL     1       0.000   0.825   0.000  0.00  0.00    +0.000 A 
ATOM      2  C   UNL     1      -0.715   0.412   0.000  0.00  0.00    +0.000 A 
ATOM      3  C   UNL     1      -0.715  -0.412   0.000  0.00  0.00    +0.000 A 
ATOM      4  C   UNL     1       0.000  -0.825   0.000  0.00  0.00    +0.000 A 
ATOM      5  C   UNL     1       0.714  -0.412   0.000  0.00  0.00    +0.000 A 
ATOM      6  C   UNL     1       0.714   0.412   0.000  0.00  0.00    +0.000 A 
ENDROOT
BRANCH   6   7
ATOM      7  C   UNL     1       1.429   0.825   0.000  0.00  0.00    +0.000 C 
BRANCH   7   8
ATOM      8  N   UNL     1       2.143   0.412   0.000  0.00  0.00    +0.000 N 
ATOM      9  C   UNL     1       2.143  -0.412   0.000  0.00  0.00    +0.000 C 
ATOM     10  O   UNL     1       1.429  -0.825   0.000  0.00  0.00    +0.000 OA
BRANCH   9  11
ATOM     11  C   UNL     1       2.858  -0.825   0.000  0.00  0.00    +0.000 C 
ATOM     12 CL   UNL     1       2.858  -1.650   0.000  0.00  0.00    +0.000 Cl
ATOM     13 CL   UNL     1       3.572  -0.412   0.000  0.00  0.00    +0.000 Cl
ENDBRANCH   9  11
BRANCH   8  14
ATOM     14  C   UNL     1       2.858   0.825   0.000  0.00  0.00    +0.000 C 
BRANCH  14  15
ATOM     15  C   UNL     1       3.572   0.412   0.000  0.00  0.00    +0.000 C 
BRANCH  15  16
ATOM     16  O   UNL     1       4.287   0.825   0.000  0.00  0.00    +0.000 OA
BRANCH  16  17
ATOM     17  C   UNL     1       5.001   0.412   0.000  0.00  0.00    +0.000 C 
ATOM     18  C   UNL     1       5.716   0.825   0.000  0.00  0.00    +0.000 C 
ENDBRANCH  16  17
ENDBRANCH  15  16
ENDBRANCH  14  15
ENDBRANCH   8  14
ENDBRANCH   7   8
ENDBRANCH   6   7
BRANCH   3  19
ATOM     19  C   UNL     1      -1.429  -0.825   0.000  0.00  0.00    +0.000 C 
BRANCH  19  20
ATOM     20  N   UNL     1      -2.143  -0.412   0.000  0.00  0.00    +0.000 N 
ATOM     21  C   UNL     1      -2.143   0.412   0.000  0.00  0.00    +0.000 C 
ATOM     22  O   UNL     1      -1.429   0.825   0.000  0.00  0.00    +0.000 OA
BRANCH  21  23
ATOM     23  C   UNL     1      -2.858   0.825   0.000  0.00  0.00    +0.000 C 
ATOM     24 CL   UNL     1      -2.858   1.650   0.000  0.00  0.00    +0.000 Cl
ATOM     25 CL   UNL     1      -3.572   0.412   0.000  0.00  0.00    +0.000 Cl
ENDBRANCH  21  23
BRANCH  20  26
ATOM     26  C   UNL     1      -2.858  -0.825   0.000  0.00  0.00    +0.000 C 
BRANCH  26  27
ATOM     27  C   UNL     1      -3.572  -0.412   0.000  0.00  0.00    +0.000 C 
BRANCH  27  28
ATOM     28  O   UNL     1      -4.287  -0.825   0.000  0.00  0.00    +0.000 OA
BRANCH  28  29
ATOM     29  C   UNL     1      -5.001  -0.412   0.000  0.00  0.00    +0.000 C 
ATOM     30  C   UNL     1      -5.716  -0.825   0.000  0.00  0.00    +0.000 C 
ENDBRANCH  28  29
ENDBRANCH  27  28
ENDBRANCH  26  27
ENDBRANCH  20  26
ENDBRANCH  19  20
ENDBRANCH   3  19
TORSDOF 14
