REMARK  Name = 
REMARK  4 active torsions:
REMARK  status: ('A' for Active; 'I' for Inactive)
REMARK    1  A    between atoms: O_1  and  C_2
REMARK    2  A    between atoms: O_1  and  P_9
REMARK    3  A    between atoms: C_2  and  C_5
REMARK    4  A    between atoms: C_4  and  C_5
REMARK                            x       y       z     vdW  Elec       q    Type
REMARK                         _______ _______ _______ _____ _____    ______ ____
ROOT
ATOM      1  O   UNL     1       0.715  -0.206   0.000  0.00  0.00    +0.000 OA
ENDROOT
BRANCH   1   4
ATOM      2  O   UNL     1       1.429   1.031   0.000  0.00  0.00    +0.000 OA
ATOM      3  O   UNL     1       2.144  -0.206   0.000  0.00  0.00    +0.000 OA
ATOM      4  P   UNL     1       1.429   0.206   0.000  0.00  0.00    +0.000 P 
ATOM      5  O   UNL     1       1.429  -0.619   0.000  0.00  0.00    +0.000 OA
ENDBRANCH   1   4
BRANCH   1   6
ATOM      6  C   UNL     1       0.000   0.206   0.000  0.00  0.00    +0.000 C 
BRANCH   6   7
ATOM      7  C   UNL     1      -0.715  -0.206   0.000  0.00  0.00    +0.000 C 
ATOM      8  O   UNL     1      -0.715  -1.031   0.000  0.00  0.00    +0.000 OA
BRANCH   7  10
ATOM      9  O   UNL     1      -2.144  -0.206   0.000  0.00  0.00    +0.000 OA
ATOM     10  C   UNL     1      -1.429   0.206   0.000  0.00  0.00    +0.000 C 
ENDBRANCH   7  10
ENDBRANCH   6   7
ENDBRANCH   1   6
TORSDOF 4
