REMARK  Name = 
REMARK  8 active torsions:
REMARK  status: ('A' for Active; 'I' for Inactive)
REMARK    1  A    between atoms: C_2  and  C_4
REMARK    2  A    between atoms: C_2  and  O_15
REMARK    3  A    between atoms: C_4  and  O_6
REMARK    4  A    between atoms: O_6  and  C_7
REMARK    5  A    between atoms: C_7  and  C_8
REMARK    6  A    between atoms: C_8  and  C_9
REMARK    7  A    between atoms: C_9  and  C_10
REMARK    8  A    between atoms: O_15  and  C_16
REMARK                            x       y       z     vdW  Elec       q    Type
REMARK                         _______ _______ _______ _____ _____    ______ ____
ROOT
ATOM      1  C   UNL     1       0.302  -2.998   0.000  0.00  0.00    +0.000 C 
ATOM      2  C   UNL     1       0.715  -3.712   0.000  0.00  0.00    +0.000 C 
ATOM      3  C   UNL     1       1.127  -4.427   0.000  0.00  0.00    +0.000 C 
ENDROOT
BRANCH   2   4
ATOM      4  C   UNL     1       1.429  -3.300   0.000  0.00  0.00    +0.000 C 
ATOM      5  O   UNL     1       1.429  -2.475   0.000  0.00  0.00    +0.000 OA
BRANCH   4   6
ATOM      6  O   UNL     1       2.143  -3.712   0.000  0.00  0.00    +0.000 OA
BRANCH   6   7
ATOM      7  C   UNL     1       2.858  -3.300   0.000  0.00  0.00    +0.000 C 
BRANCH   7   8
ATOM      8  C   UNL     1       3.572  -3.712   0.000  0.00  0.00    +0.000 C 
BRANCH   8   9
ATOM      9  C   UNL     1       4.287  -3.300   0.000  0.00  0.00    +0.000 C 
BRANCH   9  10
ATOM     10  C   UNL     1       5.001  -3.712   0.000  0.00  0.00    +0.000 C 
ATOM     11  O   UNL     1       5.001  -4.537   0.000  0.00  0.00    +0.000 OA
ATOM     12  N   UNL     1       5.716  -3.300   0.000  0.00  0.00    +0.000 N 
ATOM     13  C   UNL     1       6.430  -3.712   0.000  0.00  0.00    +0.000 C 
ATOM     14  C   UNL     1       5.716  -2.475   0.000  0.00  0.00    +0.000 C 
ENDBRANCH   9  10
ENDBRANCH   8   9
ENDBRANCH   7   8
ENDBRANCH   6   7
ENDBRANCH   4   6
ENDBRANCH   2   4
BRANCH   2  15
ATOM     15  O   UNL     1       0.000  -4.125   0.000  0.00  0.00    +0.000 OA
BRANCH  15  16
ATOM     16  C   UNL     1      -0.715  -3.712   0.000  0.00  0.00    +0.000 A 
ATOM     17  C   UNL     1      -1.429  -4.125   0.000  0.00  0.00    +0.000 A 
ATOM     18  C   UNL     1      -2.143  -3.712   0.000  0.00  0.00    +0.000 A 
ATOM     19  C   UNL     1      -2.143  -2.888   0.000  0.00  0.00    +0.000 A 
ATOM     20  C   UNL     1      -1.429  -2.475   0.000  0.00  0.00    +0.000 A 
ATOM     21  C   UNL     1      -0.715  -2.888   0.000  0.00  0.00    +0.000 A 
ATOM     22 CL   UNL     1      -2.858  -2.475   0.000  0.00  0.00    +0.000 Cl
ENDBRANCH  15  16
ENDBRANCH   2  15
TORSDOF 8
