REMARK  Name = 
REMARK  4 active torsions:
REMARK  status: ('A' for Active; 'I' for Inactive)
REMARK    1  A    between atoms: C_1  and  N_2
REMARK    2  A    between atoms: N_2  and  C_3
REMARK    3  A    between atoms: C_11  and  N_12
REMARK    4  A    between atoms: N_12  and  C_13
REMARK                            x       y       z     vdW  Elec       q    Type
REMARK                         _______ _______ _______ _____ _____    ______ ____
ROOT
ATOM      1  C   UNL     1      -1.072   0.825   0.000  0.00  0.00    +0.000 A 
ATOM      2  C   UNL     1      -1.072   1.650   0.000  0.00  0.00    +0.000 A 
ATOM      3  C   UNL     1      -0.357   2.062   0.000  0.00  0.00    +0.000 A 
ATOM      4  C   UNL     1       0.357   1.650   0.000  0.00  0.00    +0.000 A 
ATOM      5  C   UNL     1       0.357   0.825   0.000  0.00  0.00    +0.000 A 
ATOM      6  C   UNL     1      -0.357   0.412   0.000  0.00  0.00    +0.000 A 
ENDROOT
BRANCH   1   7
ATOM      7  N   UNL     1      -1.786   0.412   0.000  0.00  0.00    +0.000 NA
BRANCH   7   8
ATOM      8  C   UNL     1      -1.786  -0.412   0.000  0.00  0.00    +0.000 A 
ATOM      9  C   UNL     1      -1.072  -0.825   0.000  0.00  0.00    +0.000 A 
ATOM     10  C   UNL     1      -1.072  -1.650   0.000  0.00  0.00    +0.000 A 
ATOM     11  C   UNL     1      -1.786  -2.062   0.000  0.00  0.00    +0.000 A 
ATOM     12  C   UNL     1      -2.501  -1.650   0.000  0.00  0.00    +0.000 A 
ATOM     13  C   UNL     1      -2.501  -0.825   0.000  0.00  0.00    +0.000 A 
ENDBRANCH   7   8
ENDBRANCH   1   7
BRANCH   4  14
ATOM     14  N   UNL     1       1.072   2.062   0.000  0.00  0.00    +0.000 NA
BRANCH  14  15
ATOM     15  C   UNL     1       1.786   1.650   0.000  0.00  0.00    +0.000 C 
ATOM     16  C   UNL     1       2.501   2.062   0.000  0.00  0.00    +0.000 C 
ATOM     17  C   UNL     1       1.786   0.825   0.000  0.00  0.00    +0.000 C 
ENDBRANCH  14  15
ENDBRANCH   4  14
TORSDOF 4
