REMARK  Name = 
REMARK  0 active torsions:
REMARK  status: ('A' for Active; 'I' for Inactive)
REMARK                            x       y       z     vdW  Elec       q    Type
REMARK                         _______ _______ _______ _____ _____    ______ ____
ROOT
ATOM      1  C   UNL     1      -1.339  -0.023   0.000  0.00  0.00    +0.000 C 
ATOM      2  C   UNL     1      -2.062  -0.420   0.000  0.00  0.00    +0.000 C 
ATOM      3  C   UNL     1      -2.062  -1.252   0.000  0.00  0.00    +0.000 C 
ATOM      4  C   UNL     1      -1.339  -1.664   0.000  0.00  0.00    +0.000 C 
ATOM      5  C   UNL     1      -0.631  -1.252   0.000  0.00  0.00    +0.000 C 
ATOM      6  C   UNL     1       0.084  -1.664   0.000  0.00  0.00    +0.000 C 
ATOM      7  C   UNL     1       0.815  -1.252   0.000  0.00  0.00    +0.000 C 
ATOM      8  C   UNL     1       0.815  -0.420   0.000  0.00  0.00    +0.000 C 
ATOM      9  C   UNL     1       0.084  -0.023   0.000  0.00  0.00    +0.000 C 
ATOM     10  C   UNL     1      -0.631  -0.420   0.000  0.00  0.00    +0.000 C 
ATOM     11  C   UNL     1       0.084   0.785   0.000  0.00  0.00    +0.000 C 
ATOM     12  C   UNL     1       0.815   1.205   0.000  0.00  0.00    +0.000 C 
ATOM     13  C   UNL     1       1.514   0.785   0.000  0.00  0.00    +0.000 C 
ATOM     14  C   UNL     1       1.514  -0.023   0.000  0.00  0.00    +0.000 C 
ATOM     15  C   UNL     1       2.300  -0.280   0.000  0.00  0.00    +0.000 C 
ATOM     16  C   UNL     1       2.766   0.373   0.000  0.00  0.00    +0.000 C 
ATOM     17  C   UNL     1       2.300   1.042   0.000  0.00  0.00    +0.000 C 
ATOM     18  C   UNL     1       1.514   1.632   0.000  0.00  0.00    +0.000 C 
ATOM     19  C   UNL     1      -0.631   0.389   0.000  0.00  0.00    +0.000 C 
ATOM     20  O   UNL     1      -2.766  -1.657   0.000  0.00  0.00    +0.000 OA
ATOM     21  O   UNL     1       2.535   1.901   0.000  0.00  0.00    +0.000 OA
ENDROOT
TORSDOF 0
