REMARK  Name = 
REMARK  4 active torsions:
REMARK  status: ('A' for Active; 'I' for Inactive)
REMARK    1  A    between atoms: N_2  and  C_14
REMARK    2  A    between atoms: N_3  and  C_13
REMARK    3  A    between atoms: C_4  and  C_7
REMARK    4  A    between atoms: C_7  and  C_13
REMARK                            x       y       z     vdW  Elec       q    Type
REMARK                         _______ _______ _______ _____ _____    ______ ____
ROOT
ATOM      1  S   UNL     1       0.961  -0.647   0.000  0.00  0.00    +0.000 S 
ATOM      2  N   UNL     1      -1.082   0.261   0.000  0.00  0.00    +0.000 N 
ATOM      3  C   UNL     1       0.393  -0.026   0.000  0.00  0.00    +0.000 C 
ATOM      4  C   UNL     1      -0.428  -0.214   0.000  0.00  0.00    +0.000 A 
ATOM      5  C   UNL     1      -0.678  -0.983   0.000  0.00  0.00    +0.000 A 
ATOM      6  C   UNL     1      -0.124  -1.617   0.000  0.00  0.00    +0.000 C 
ATOM      7  C   UNL     1      -1.486  -0.983   0.000  0.00  0.00    +0.000 A 
ATOM      8  C   UNL     1      -1.736  -0.214   0.000  0.00  0.00    +0.000 A 
ATOM      9  C   UNL     1       0.701  -1.448   0.000  0.00  0.00    +0.000 C 
ATOM     10  C   UNL     1       0.216   0.762   0.000  0.00  0.00    +0.000 C 
ATOM     11  C   UNL     1      -2.039  -1.617   0.000  0.00  0.00    +0.000 A 
ATOM     12  C   UNL     1      -2.556  -0.026   0.000  0.00  0.00    +0.000 A 
ATOM     13  C   UNL     1      -2.864  -1.448   0.000  0.00  0.00    +0.000 A 
ATOM     14  C   UNL     1      -3.124  -0.647   0.000  0.00  0.00    +0.000 A 
ENDROOT
BRANCH   2  15
ATOM     15  C   UNL     1      -1.082   1.069   0.000  0.00  0.00    +0.000 C 
ATOM     16  C   UNL     1      -1.782   1.473   0.000  0.00  0.00    +0.000 C 
ENDBRANCH   2  15
BRANCH   3  17
ATOM     17  C   UNL     1       0.987   0.521   0.000  0.00  0.00    +0.000 C 
BRANCH  17  18
ATOM     18  C   UNL     1       1.758   0.281   0.000  0.00  0.00    +0.000 C 
BRANCH  18  19
ATOM     19  N   UNL     1       2.353   0.828   0.000  0.00  0.00    +0.000 NA
ATOM     20  C   UNL     1       3.124   0.588   0.000  0.00  0.00    +0.000 C 
ATOM     21  C   UNL     1       2.176   1.617   0.000  0.00  0.00    +0.000 C 
ENDBRANCH  18  19
ENDBRANCH  17  18
ENDBRANCH   3  17
TORSDOF 4
