REMARK  Name = 
REMARK  4 active torsions:
REMARK  status: ('A' for Active; 'I' for Inactive)
REMARK    1  A    between atoms: P_1  and  O_3
REMARK    2  A    between atoms: O_3  and  C_13
REMARK    3  A    between atoms: N_11  and  C_16
REMARK    4  A    between atoms: C_15  and  C_17
REMARK                            x       y       z     vdW  Elec       q    Type
REMARK                         _______ _______ _______ _____ _____    ______ ____
ROOT
ATOM      1  O   UNL     1       0.534  -0.413   0.000  0.00  0.00    +0.000 OA
ATOM      2  O   UNL     1      -1.585  -0.158   0.000  0.00  0.00    +0.000 OA
ATOM      3  C   UNL     1      -0.545  -1.197   0.000  0.00  0.00    +0.000 C 
ATOM      4  C   UNL     1      -0.800  -0.413   0.000  0.00  0.00    +0.000 C 
ATOM      5  C   UNL     1       0.280  -1.197   0.000  0.00  0.00    +0.000 C 
ATOM      6  C   UNL     1      -0.133   0.072   0.000  0.00  0.00    +0.000 C 
ENDROOT
BRANCH   6   9
ATOM      7  O   UNL     1      -1.562   0.897   0.000  0.00  0.00    +0.000 OA
ATOM      8  O   UNL     1      -0.133   3.372   0.000  0.00  0.00    +0.000 OA
ATOM      9  N   UNL     1      -0.133   0.897   0.000  0.00  0.00    +0.000 N 
ATOM     10  N   UNL     1      -0.847   2.135   0.000  0.00  0.00    +0.000 N 
ATOM     11  C   UNL     1      -0.847   1.310   0.000  0.00  0.00    +0.000 A 
ATOM     12  C   UNL     1       0.582   1.310   0.000  0.00  0.00    +0.000 A 
ATOM     13  C   UNL     1       0.582   2.135   0.000  0.00  0.00    +0.000 A 
ATOM     14  C   UNL     1      -0.133   2.547   0.000  0.00  0.00    +0.000 A 
ATOM     15  H   UNL     1      -1.290   2.390   0.000  0.00  0.00    +0.000 HD
ENDBRANCH   6   9
BRANCH   5  17
ATOM     16  O   UNL     1       1.585  -1.779   0.000  0.00  0.00    +0.000 OA
ATOM     17  C   UNL     1       0.764  -1.865   0.000  0.00  0.00    +0.000 C 
ENDBRANCH   5  17
BRANCH   3  18
ATOM     18  O   UNL     1      -1.030  -1.865   0.000  0.00  0.00    +0.000 OA
BRANCH  18  19
ATOM     19  P   UNL     1      -0.695  -2.619   0.000  0.00  0.00    +0.000 P 
ATOM     20  O   UNL     1      -1.448  -2.954   0.000  0.00  0.00    +0.000 OA
ATOM     21  O   UNL     1      -0.359  -3.372   0.000  0.00  0.00    +0.000 OA
ATOM     22  O   UNL     1       0.059  -2.283   0.000  0.00  0.00    +0.000 OA
ENDBRANCH  18  19
ENDBRANCH   3  18
TORSDOF 4
