REMARK  Name = 
REMARK  34 active torsions:
REMARK  status: ('A' for Active; 'I' for Inactive)
REMARK    1  A    between atoms: S_1  and  C_61
REMARK    2  A    between atoms: S_1  and  C_64
REMARK    3  A    between atoms: P_2  and  O_6
REMARK    4  A    between atoms: P_3  and  O_8
REMARK    5  A    between atoms: P_3  and  O_11
REMARK    6  A    between atoms: P_4  and  O_11
REMARK    7  A    between atoms: P_4  and  O_14
REMARK    8  A    between atoms: O_6  and  C_29
REMARK    9  A    between atoms: O_8  and  C_33
REMARK   10  A    between atoms: O_14  and  C_40
REMARK   11  A    between atoms: N_22  and  C_32
REMARK   12  A    between atoms: N_26  and  C_38
REMARK   13  A    between atoms: N_27  and  C_57
REMARK   14  A    between atoms: N_28  and  C_63
REMARK   15  A    between atoms: C_31  and  C_33
REMARK   16  A    between atoms: C_37  and  C_39
REMARK   17  A    between atoms: C_37  and  C_40
REMARK   18  A    between atoms: C_39  and  C_48
REMARK   19  A    between atoms: C_44  and  C_45
REMARK   20  A    between atoms: C_44  and  C_46
REMARK   21  A    between atoms: C_45  and  C_47
REMARK   22  A    between atoms: C_46  and  C_49
REMARK   23  A    between atoms: C_47  and  C_50
REMARK   24  A    between atoms: C_49  and  C_51
REMARK   25  A    between atoms: C_50  and  C_52
REMARK   26  A    between atoms: C_51  and  C_53
REMARK   27  A    between atoms: C_52  and  C_54
REMARK   28  A    between atoms: C_53  and  C_55
REMARK   29  A    between atoms: C_54  and  C_56
REMARK   30  A    between atoms: C_55  and  C_59
REMARK   31  A    between atoms: C_57  and  C_58
REMARK   32  A    between atoms: C_58  and  C_62
REMARK   33  A    between atoms: C_59  and  C_61
REMARK   34  A    between atoms: C_63  and  C_64
REMARK                            x       y       z     vdW  Elec       q    Type
REMARK                         _______ _______ _______ _____ _____    ______ ____
ROOT
ATOM      1  C   UNL     1      -4.436   1.629   0.000  0.00  0.00    +0.000 C 
ATOM      2  C   UNL     1      -4.772   0.875   0.000  0.00  0.00    +0.000 C 
ATOM      3  C   UNL     1      -4.099   2.381   0.000  0.00  0.00    +0.000 C 
ENDROOT
BRANCH   1   5
ATOM      4  O   UNL     1      -3.598   0.471   0.000  0.00  0.00    +0.000 OA
ATOM      5  C   UNL     1      -3.683   1.292   0.000  0.00  0.00    +0.000 C 
BRANCH   5   8
ATOM      6  O   UNL     1      -3.099   2.596   0.000  0.00  0.00    +0.000 OA
ATOM      7  N   UNL     1      -2.261   1.438   0.000  0.00  0.00    +0.000 N 
ATOM      8  C   UNL     1      -3.014   1.775   0.000  0.00  0.00    +0.000 C 
ATOM      9  H   UNL     1      -2.209   0.930   0.000  0.00  0.00    +0.000 HD
BRANCH   7  10
ATOM     10  C   UNL     1      -1.593   1.922   0.000  0.00  0.00    +0.000 C 
BRANCH  10  11
ATOM     11  C   UNL     1      -0.840   1.585   0.000  0.00  0.00    +0.000 C 
BRANCH  11  14
ATOM     12  O   UNL     1      -0.257   2.890   0.000  0.00  0.00    +0.000 OA
ATOM     13  N   UNL     1       0.581   1.732   0.000  0.00  0.00    +0.000 N 
ATOM     14  C   UNL     1      -0.172   2.069   0.000  0.00  0.00    +0.000 C 
ATOM     15  H   UNL     1       0.634   1.224   0.000  0.00  0.00    +0.000 HD
BRANCH  13  16
ATOM     16  C   UNL     1       1.250   2.216   0.000  0.00  0.00    +0.000 C 
BRANCH  16  17
ATOM     17  C   UNL     1       2.003   1.879   0.000  0.00  0.00    +0.000 C 
BRANCH  17  18
ATOM     18  S   UNL     1       2.671   2.363   0.000  0.00  0.00    +0.000 S 
BRANCH  18  19
ATOM     19  C   UNL     1       3.424   2.026   0.000  0.00  0.00    +0.000 C 
BRANCH  19  21
ATOM     20  O   UNL     1       4.007   3.330   0.000  0.00  0.00    +0.000 OA
ATOM     21  C   UNL     1       4.092   2.510   0.000  0.00  0.00    +0.000 C 
BRANCH  21  22
ATOM     22  C   UNL     1       4.845   2.173   0.000  0.00  0.00    +0.000 C 
BRANCH  22  23
ATOM     23  C   UNL     1       5.513   2.657   0.000  0.00  0.00    +0.000 C 
BRANCH  23  24
ATOM     24  C   UNL     1       6.266   2.320   0.000  0.00  0.00    +0.000 C 
BRANCH  24  25
ATOM     25  C   UNL     1       6.935   2.804   0.000  0.00  0.00    +0.000 C 
BRANCH  25  26
ATOM     26  C   UNL     1       7.688   2.467   0.000  0.00  0.00    +0.000 C 
BRANCH  26  27
ATOM     27  C   UNL     1       8.356   2.950   0.000  0.00  0.00    +0.000 C 
BRANCH  27  28
ATOM     28  C   UNL     1       9.109   2.614   0.000  0.00  0.00    +0.000 C 
BRANCH  28  29
ATOM     29  C   UNL     1       9.777   3.098   0.000  0.00  0.00    +0.000 C 
BRANCH  29  30
ATOM     30  C   UNL     1      10.530   2.761   0.000  0.00  0.00    +0.000 C 
BRANCH  30  31
ATOM     31  C   UNL     1      11.199   3.244   0.000  0.00  0.00    +0.000 C 
BRANCH  31  32
ATOM     32  C   UNL     1      11.952   2.908   0.000  0.00  0.00    +0.000 C 
BRANCH  32  33
ATOM     33  C   UNL     1      12.620   3.391   0.000  0.00  0.00    +0.000 C 
ATOM     34  C   UNL     1      13.373   3.054   0.000  0.00  0.00    +0.000 C 
ENDBRANCH  32  33
ENDBRANCH  31  32
ENDBRANCH  30  31
ENDBRANCH  29  30
ENDBRANCH  28  29
ENDBRANCH  27  28
ENDBRANCH  26  27
ENDBRANCH  25  26
ENDBRANCH  24  25
ENDBRANCH  23  24
ENDBRANCH  22  23
ENDBRANCH  21  22
ENDBRANCH  19  21
ENDBRANCH  18  19
ENDBRANCH  17  18
ENDBRANCH  16  17
ENDBRANCH  13  16
ENDBRANCH  11  14
ENDBRANCH  10  11
ENDBRANCH   7  10
ENDBRANCH   5   8
ENDBRANCH   1   5
BRANCH   1  35
ATOM     35  C   UNL     1      -5.189   1.965   0.000  0.00  0.00    +0.000 C 
BRANCH  35  36
ATOM     36  O   UNL     1      -5.857   1.482   0.000  0.00  0.00    +0.000 OA
BRANCH  36  37
ATOM     37  P   UNL     1      -6.610   1.818   0.000  0.00  0.00    +0.000 P 
ATOM     38  O   UNL     1      -6.273   2.571   0.000  0.00  0.00    +0.000 OA
ATOM     39  O   UNL     1      -6.947   1.065   0.000  0.00  0.00    +0.000 OA
BRANCH  37  40
ATOM     40  O   UNL     1      -7.363   2.155   0.000  0.00  0.00    +0.000 OA
BRANCH  40  41
ATOM     41  P   UNL     1      -8.031   1.671   0.000  0.00  0.00    +0.000 P 
ATOM     42  O   UNL     1      -7.548   1.003   0.000  0.00  0.00    +0.000 OA
ATOM     43  O   UNL     1      -8.515   2.340   0.000  0.00  0.00    +0.000 OA
BRANCH  41  44
ATOM     44  O   UNL     1      -8.700   1.188   0.000  0.00  0.00    +0.000 OA
BRANCH  44  45
ATOM     45  C   UNL     1      -9.453   1.525   0.000  0.00  0.00    +0.000 C 
BRANCH  45  50
ATOM     46  O   UNL     1     -10.122   0.216   0.000  0.00  0.00    +0.000 OA
ATOM     47  O   UNL     1     -12.216   0.632   0.000  0.00  0.00    +0.000 OA
ATOM     48  C   UNL     1     -10.905   1.297   0.000  0.00  0.00    +0.000 C 
ATOM     49  C   UNL     1     -11.391   0.631   0.000  0.00  0.00    +0.000 C 
ATOM     50  C   UNL     1     -10.121   1.041   0.000  0.00  0.00    +0.000 C 
ATOM     51  C   UNL     1     -10.907  -0.038   0.000  0.00  0.00    +0.000 C 
BRANCH  51  52
ATOM     52  N   UNL     1     -11.164  -0.822   0.000  0.00  0.00    +0.000 N 
ATOM     53  N   UNL     1     -11.164  -2.149   0.000  0.00  0.00    +0.000 NA
ATOM     54  N   UNL     1     -12.659  -0.661   0.000  0.00  0.00    +0.000 NA
ATOM     55  N   UNL     1     -13.373  -1.898   0.000  0.00  0.00    +0.000 NA
ATOM     56  C   UNL     1     -11.944  -1.073   0.000  0.00  0.00    +0.000 A 
ATOM     57  C   UNL     1     -10.682  -1.486   0.000  0.00  0.00    +0.000 A 
ATOM     58  C   UNL     1     -11.944  -1.898   0.000  0.00  0.00    +0.000 A 
ATOM     59  C   UNL     1     -12.659  -2.311   0.000  0.00  0.00    +0.000 A 
ATOM     60  C   UNL     1     -13.373  -1.073   0.000  0.00  0.00    +0.000 A 
BRANCH  59  61
ATOM     61  N   UNL     1     -12.659  -3.135   0.000  0.00  0.00    +0.000 N 
ATOM     62  H   UNL     1     -12.216  -3.391   0.000  0.00  0.00    +0.000 HD
ATOM     63  H   UNL     1     -13.101  -3.391   0.000  0.00  0.00    +0.000 HD
ENDBRANCH  59  61
ENDBRANCH  51  52
BRANCH  48  64
ATOM     64  O   UNL     1     -11.159   2.082   0.000  0.00  0.00    +0.000 OA
BRANCH  64  65
ATOM     65  P   UNL     1     -10.605   2.694   0.000  0.00  0.00    +0.000 P 
ATOM     66  O   UNL     1     -11.218   3.247   0.000  0.00  0.00    +0.000 OA
ATOM     67  O   UNL     1     -10.052   3.306   0.000  0.00  0.00    +0.000 OA
ATOM     68  O   UNL     1      -9.993   2.141   0.000  0.00  0.00    +0.000 OA
ENDBRANCH  64  65
ENDBRANCH  48  64
ENDBRANCH  45  50
ENDBRANCH  44  45
ENDBRANCH  41  44
ENDBRANCH  40  41
ENDBRANCH  37  40
ENDBRANCH  36  37
ENDBRANCH  35  36
ENDBRANCH   1  35
TORSDOF 34
