REMARK  Name = 
REMARK  0 active torsions:
REMARK  status: ('A' for Active; 'I' for Inactive)
REMARK                            x       y       z     vdW  Elec       q    Type
REMARK                         _______ _______ _______ _____ _____    ______ ____
ROOT
ATOM      1  I   UNL     1      -0.715  -0.207   0.000  0.00  0.00    +0.000 I 
ATOM      2 ZN   UNL     1       0.000   0.207   0.000  0.00  0.00    +0.000 Zn
ATOM      3  I   UNL     1       0.715  -0.203   0.000  0.00  0.00    +0.000 I 
ENDROOT
TORSDOF 0
