REMARK  Name = 
REMARK  0 active torsions:
REMARK  status: ('A' for Active; 'I' for Inactive)
REMARK                            x       y       z     vdW  Elec       q    Type
REMARK                         _______ _______ _______ _____ _____    ______ ____
ROOT
ATOM      1  F   UNL     1      -1.708  -1.238   0.000  0.00  0.00    +0.000 F 
ATOM      2  C   UNL     1      -0.994  -0.825   0.000  0.00  0.00    +0.000 A 
ATOM      3  N   UNL     1      -0.277  -1.238   0.000  0.00  0.00    +0.000 NA
ATOM      4  C   UNL     1       0.437  -0.825   0.000  0.00  0.00    +0.000 A 
ATOM      5  C   UNL     1       0.437  -0.002   0.000  0.00  0.00    +0.000 A 
ATOM      6  N   UNL     1       1.223   0.255   0.000  0.00  0.00    +0.000 NA
ATOM      7  C   UNL     1       1.708  -0.412   0.000  0.00  0.00    +0.000 A 
ATOM      8  N   UNL     1       1.223  -1.078   0.000  0.00  0.00    +0.000 NA
ATOM      9  C   UNL     1      -0.277   0.412   0.000  0.00  0.00    +0.000 A 
ATOM     10 CL   UNL     1      -0.277   1.238   0.000  0.00  0.00    +0.000 Cl
ATOM     11  N   UNL     1      -0.994  -0.002   0.000  0.00  0.00    +0.000 NA
ENDROOT
TORSDOF 0
