REMARK  Name = 
REMARK  4 active torsions:
REMARK  status: ('A' for Active; 'I' for Inactive)
REMARK    1  A    between atoms: C_6  and  C_7
REMARK    2  A    between atoms: C_7  and  C_8
REMARK    3  A    between atoms: C_7  and  C_10
REMARK    4  A    between atoms: C_13  and  N_17
REMARK                            x       y       z     vdW  Elec       q    Type
REMARK                         _______ _______ _______ _____ _____    ______ ____
ROOT
ATOM      1  C   UNL     1      -1.429  -2.475   0.000  0.00  0.00    +0.000 A 
ATOM      2  C   UNL     1      -2.143  -2.888   0.000  0.00  0.00    +0.000 A 
ATOM      3  C   UNL     1      -2.858  -2.475   0.000  0.00  0.00    +0.000 A 
ATOM      4  C   UNL     1      -2.858  -1.650   0.000  0.00  0.00    +0.000 A 
ATOM      5  C   UNL     1      -2.143  -1.238   0.000  0.00  0.00    +0.000 A 
ATOM      6  C   UNL     1      -1.429  -1.650   0.000  0.00  0.00    +0.000 A 
ATOM      7 CL   UNL     1      -0.715  -1.238   0.000  0.00  0.00    +0.000 Cl
ATOM      8 CL   UNL     1      -2.143  -3.712   0.000  0.00  0.00    +0.000 Cl
ENDROOT
BRANCH   4   9
ATOM      9  N   UNL     1      -3.572  -1.238   0.000  0.00  0.00    +0.000 N 
ATOM     10  C   UNL     1      -4.287  -1.650   0.000  0.00  0.00    +0.000 A 
ATOM     11  O   UNL     1      -4.287  -2.475   0.000  0.00  0.00    +0.000 OA
ATOM     12  N   UNL     1      -5.001  -1.238   0.000  0.00  0.00    +0.000 NA
ATOM     13  C   UNL     1      -5.001  -0.412   0.000  0.00  0.00    +0.000 A 
ATOM     14  O   UNL     1      -5.716   0.000   0.000  0.00  0.00    +0.000 OA
ATOM     15  C   UNL     1      -4.287   0.000   0.000  0.00  0.00    +0.000 A 
ATOM     16  N   UNL     1      -3.572  -0.412   0.000  0.00  0.00    +0.000 NA
ENDBRANCH   4   9
BRANCH   1  17
ATOM     17  C   UNL     1      -0.715  -2.888   0.000  0.00  0.00    +0.000 C 
BRANCH  17  23
ATOM     18  C   UNL     1       0.000  -4.125   0.000  0.00  0.00    +0.000 A 
ATOM     19  C   UNL     1       0.000  -4.950   0.000  0.00  0.00    +0.000 A 
ATOM     20  C   UNL     1      -0.715  -5.362   0.000  0.00  0.00    +0.000 A 
ATOM     21  C   UNL     1      -1.429  -4.950   0.000  0.00  0.00    +0.000 A 
ATOM     22  C   UNL     1      -1.429  -4.125   0.000  0.00  0.00    +0.000 A 
ATOM     23  C   UNL     1      -0.715  -3.712   0.000  0.00  0.00    +0.000 A 
ATOM     24  F   UNL     1      -0.715  -6.188   0.000  0.00  0.00    +0.000 F 
ENDBRANCH  17  23
BRANCH  17  25
ATOM     25  C   UNL     1       0.000  -2.475   0.000  0.00  0.00    +0.000 C 
ATOM     26  N   UNL     1       0.715  -2.062   0.000  0.00  0.00    +0.000 NA
ENDBRANCH  17  25
ENDBRANCH   1  17
TORSDOF 4
