REMARK  Name = 
REMARK  4 active torsions:
REMARK  status: ('A' for Active; 'I' for Inactive)
REMARK    1  A    between atoms: N_1  and  C_11
REMARK    2  A    between atoms: C_3  and  C_14
REMARK    3  A    between atoms: C_10  and  C_11
REMARK    4  A    between atoms: C_14  and  C_16
REMARK                            x       y       z     vdW  Elec       q    Type
REMARK                         _______ _______ _______ _____ _____    ______ ____
ROOT
ATOM      1  N   UNL     1      -1.008   1.282   0.000  0.00  0.00    +0.000 N 
ATOM      2  C   UNL     1      -0.523   0.615   0.000  0.00  0.00    +0.000 A 
ATOM      3  C   UNL     1      -1.008  -0.053   0.000  0.00  0.00    +0.000 A 
ATOM      4  C   UNL     1      -1.792   0.202   0.000  0.00  0.00    +0.000 A 
ATOM      5  C   UNL     1      -2.507  -0.210   0.000  0.00  0.00    +0.000 A 
ATOM      6  C   UNL     1      -3.221   0.202   0.000  0.00  0.00    +0.000 A 
ATOM      7  C   UNL     1      -3.221   1.027   0.000  0.00  0.00    +0.000 A 
ATOM      8  C   UNL     1      -2.507   1.440   0.000  0.00  0.00    +0.000 A 
ATOM      9  C   UNL     1      -1.792   1.027   0.000  0.00  0.00    +0.000 A 
ENDROOT
BRANCH   1  10
ATOM     10  C   UNL     1      -0.753   2.067   0.000  0.00  0.00    +0.000 C 
BRANCH  10  11
ATOM     11  C   UNL     1       0.054   2.238   0.000  0.00  0.00    +0.000 C 
ATOM     12  O   UNL     1       0.638   1.655   0.000  0.00  0.00    +0.000 OA
ATOM     13  O   UNL     1       0.268   3.035   0.000  0.00  0.00    +0.000 OA
ENDBRANCH  10  11
ENDBRANCH   1  10
BRANCH   3  14
ATOM     14  C   UNL     1      -0.753  -0.837   0.000  0.00  0.00    +0.000 C 
BRANCH  14  16
ATOM     15  S   UNL     1       0.667  -0.457   0.000  0.00  0.00    +0.000 S 
ATOM     16  C   UNL     1       0.054  -1.009   0.000  0.00  0.00    +0.000 A 
ATOM     17  N   UNL     1       0.390  -1.762   0.000  0.00  0.00    +0.000 NA
ATOM     18  C   UNL     1       1.210  -1.676   0.000  0.00  0.00    +0.000 A 
ATOM     19  C   UNL     1       1.382  -0.869   0.000  0.00  0.00    +0.000 A 
ATOM     20  C   UNL     1       1.823  -2.228   0.000  0.00  0.00    +0.000 A 
ATOM     21  C   UNL     1       2.608  -1.973   0.000  0.00  0.00    +0.000 A 
ATOM     22  C   UNL     1       2.780  -1.166   0.000  0.00  0.00    +0.000 A 
ATOM     23  C   UNL     1       2.166  -0.614   0.000  0.00  0.00    +0.000 A 
ATOM     24  F   UNL     1       2.338   0.193   0.000  0.00  0.00    +0.000 F 
ATOM     25  F   UNL     1       3.221  -2.525   0.000  0.00  0.00    +0.000 F 
ATOM     26  F   UNL     1       1.652  -3.035   0.000  0.00  0.00    +0.000 F 
ENDBRANCH  14  16
ENDBRANCH   3  14
TORSDOF 4
