REMARK  Name = 
REMARK  8 active torsions:
REMARK  status: ('A' for Active; 'I' for Inactive)
REMARK    1  A    between atoms: C_20  and  C_24
REMARK    2  A    between atoms: C_24  and  C_27
REMARK    3  A    between atoms: C_27  and  O_28
REMARK    4  A    between atoms: O_28  and  C_29
REMARK    5  A    between atoms: C_29  and  C_31
REMARK    6  A    between atoms: C_31  and  C_32
REMARK    7  A    between atoms: C_32  and  C_33
REMARK    8  A    between atoms: C_33  and  C_34
REMARK                            x       y       z     vdW  Elec       q    Type
REMARK                         _______ _______ _______ _____ _____    ______ ____
ROOT
ATOM      1 CL   UNL     1       3.489  -0.318   0.000  0.00  0.00    +0.000 Cl
ATOM      2  C   UNL     1       2.577  -0.658   0.000  0.00  0.00    +0.000 C 
ATOM      3  C   UNL     1       3.129  -1.273   0.000  0.00  0.00    +0.000 C 
ATOM      4  C   UNL     1       2.832   0.127   0.000  0.00  0.00    +0.000 C 
ATOM      5  C   UNL     1       1.771  -0.827   0.000  0.00  0.00    +0.000 C 
ATOM      6  C   UNL     1       2.874  -2.058   0.000  0.00  0.00    +0.000 C 
ATOM      7  C   UNL     1       3.935  -1.103   0.000  0.00  0.00    +0.000 C 
ATOM      8  C   UNL     1       3.426  -0.636   0.000  0.00  0.00    +0.000 C 
ATOM      9  O   UNL     1       3.638   0.297   0.000  0.00  0.00    +0.000 OA
ATOM     10  C   UNL     1       2.280   0.742   0.000  0.00  0.00    +0.000 C 
ATOM     11  C   UNL     1       1.220  -0.212   0.000  0.00  0.00    +0.000 C 
ATOM     12  C   UNL     1       1.517  -1.612   0.000  0.00  0.00    +0.000 C 
ATOM     13  C   UNL     1       3.426  -2.673   0.000  0.00  0.00    +0.000 C 
ATOM     14  C   UNL     1       2.068  -2.227   0.000  0.00  0.00    +0.000 C 
ATOM     15  C   UNL     1       4.487  -1.718   0.000  0.00  0.00    +0.000 C 
ATOM     16  C   UNL     1       1.474   0.573   0.000  0.00  0.00    +0.000 C 
ATOM     17  C   UNL     1       0.392  -0.212   0.000  0.00  0.00    +0.000 C 
ATOM     18  C   UNL     1       4.232  -2.503   0.000  0.00  0.00    +0.000 C 
ATOM     19  F   UNL     1       1.814  -3.012   0.000  0.00  0.00    +0.000 F 
ATOM     20  C   UNL     1       0.817   1.061   0.000  0.00  0.00    +0.000 C 
ATOM     21  C   UNL     1       1.644   1.379   0.000  0.00  0.00    +0.000 C 
ATOM     22  C   UNL     1       0.138   0.573   0.000  0.00  0.00    +0.000 C 
ATOM     23  O   UNL     1       4.783  -3.118   0.000  0.00  0.00    +0.000 OA
ATOM     24  C   UNL     1      -0.647   0.827   0.000  0.00  0.00    +0.000 C 
ENDROOT
BRANCH  20  25
ATOM     25  C   UNL     1       0.817   1.888   0.000  0.00  0.00    +0.000 C 
ATOM     26  O   UNL     1       1.517   2.291   0.000  0.00  0.00    +0.000 OA
BRANCH  25  27
ATOM     27  C   UNL     1       0.117   2.291   0.000  0.00  0.00    +0.000 C 
BRANCH  27  28
ATOM     28  O   UNL     1      -0.583   1.888   0.000  0.00  0.00    +0.000 OA
BRANCH  28  29
ATOM     29  C   UNL     1      -1.283   2.291   0.000  0.00  0.00    +0.000 C 
ATOM     30  O   UNL     1      -1.283   3.118   0.000  0.00  0.00    +0.000 OA
BRANCH  29  31
ATOM     31  C   UNL     1      -1.983   1.888   0.000  0.00  0.00    +0.000 C 
BRANCH  31  32
ATOM     32  C   UNL     1      -2.683   2.291   0.000  0.00  0.00    +0.000 C 
BRANCH  32  33
ATOM     33  C   UNL     1      -3.383   1.888   0.000  0.00  0.00    +0.000 C 
BRANCH  33  34
ATOM     34  C   UNL     1      -4.083   2.291   0.000  0.00  0.00    +0.000 C 
ATOM     35  C   UNL     1      -4.783   1.888   0.000  0.00  0.00    +0.000 C 
ENDBRANCH  33  34
ENDBRANCH  32  33
ENDBRANCH  31  32
ENDBRANCH  29  31
ENDBRANCH  28  29
ENDBRANCH  27  28
ENDBRANCH  25  27
ENDBRANCH  20  25
TORSDOF 8
