REMARK  Name = 
REMARK  4 active torsions:
REMARK  status: ('A' for Active; 'I' for Inactive)
REMARK    1  A    between atoms: C_1  and  O_3
REMARK    2  A    between atoms: C_2  and  O_6
REMARK    3  A    between atoms: O_3  and  C_7
REMARK    4  A    between atoms: C_7  and  C_11
REMARK                            x       y       z     vdW  Elec       q    Type
REMARK                         _______ _______ _______ _____ _____    ______ ____
ROOT
ATOM      1  C   UNL     1      -1.401  -0.437   0.000  0.00  0.00    +0.000 A 
ATOM      2  C   UNL     1      -1.401   0.366   0.000  0.00  0.00    +0.000 A 
ATOM      3  C   UNL     1      -2.114  -0.863   0.000  0.00  0.00    +0.000 A 
ATOM      4  C   UNL     1      -2.139   0.770   0.000  0.00  0.00    +0.000 A 
ATOM      5  C   UNL     1      -2.852  -0.456   0.000  0.00  0.00    +0.000 A 
ATOM      6  C   UNL     1      -2.852   0.374   0.000  0.00  0.00    +0.000 A 
ENDROOT
BRANCH   2   7
ATOM      7  O   UNL     1      -0.688   0.784   0.000  0.00  0.00    +0.000 OA
ATOM      8  C   UNL     1      -0.688   1.606   0.000  0.00  0.00    +0.000 C 
ENDBRANCH   2   7
BRANCH   1   9
ATOM      9  O   UNL     1      -0.672  -0.852   0.000  0.00  0.00    +0.000 OA
BRANCH   9  10
ATOM     10  C   UNL     1       0.041  -0.437   0.000  0.00  0.00    +0.000 C 
BRANCH  10  11
ATOM     11  C   UNL     1       0.713  -0.833   0.000  0.00  0.00    +0.000 C 
ATOM     12  C   UNL     1       0.994  -1.606   0.000  0.00  0.00    +0.000 C 
ATOM     13  O   UNL     1       1.399  -0.339   0.000  0.00  0.00    +0.000 OA
ATOM     14  N   UNL     1       1.806  -1.606   0.000  0.00  0.00    +0.000 NA
ATOM     15  C   UNL     1       2.073  -0.833   0.000  0.00  0.00    +0.000 C 
ATOM     16  O   UNL     1       2.852  -0.585   0.000  0.00  0.00    +0.000 OA
ENDBRANCH  10  11
ENDBRANCH   9  10
ENDBRANCH   1   9
TORSDOF 4
