REMARK  Name = 
REMARK  4 active torsions:
REMARK  status: ('A' for Active; 'I' for Inactive)
REMARK    1  A    between atoms: O_2  and  C_9
REMARK    2  A    between atoms: O_4  and  C_16
REMARK    3  A    between atoms: N_6  and  C_8
REMARK    4  A    between atoms: C_13  and  C_15
REMARK                            x       y       z     vdW  Elec       q    Type
REMARK                         _______ _______ _______ _____ _____    ______ ____
ROOT
ATOM      1  O   UNL     1      -0.357   0.619   0.000  0.00  0.00    +0.000 OA
ATOM      2  N   UNL     1       1.072   0.619   0.000  0.00  0.00    +0.000 NA
ATOM      3  C   UNL     1       0.357   0.206   0.000  0.00  0.00    +0.000 C 
ENDROOT
BRANCH   3   6
ATOM      4 CL   UNL     1       1.786  -2.269   0.000  0.00  0.00    +0.000 Cl
ATOM      5  N   UNL     1       0.357  -3.094   0.000  0.00  0.00    +0.000 NA
ATOM      6  C   UNL     1       0.357  -0.619   0.000  0.00  0.00    +0.000 A 
ATOM      7  C   UNL     1      -0.357  -1.031   0.000  0.00  0.00    +0.000 A 
ATOM      8  C   UNL     1       1.072  -1.031   0.000  0.00  0.00    +0.000 A 
ATOM      9  C   UNL     1      -0.357  -1.856   0.000  0.00  0.00    +0.000 A 
ATOM     10  C   UNL     1       1.072  -1.856   0.000  0.00  0.00    +0.000 A 
ATOM     11  C   UNL     1       0.357  -2.269   0.000  0.00  0.00    +0.000 A 
BRANCH   7  12
ATOM     12  O   UNL     1      -1.072  -0.619   0.000  0.00  0.00    +0.000 OA
ATOM     13  C   UNL     1      -1.786  -1.031   0.000  0.00  0.00    +0.000 C 
ENDBRANCH   7  12
ENDBRANCH   3   6
BRANCH   2  15
ATOM     14  N   UNL     1       1.072   3.094   0.000  0.00  0.00    +0.000 NA
ATOM     15  C   UNL     1       1.072   1.444   0.000  0.00  0.00    +0.000 C 
ATOM     16  C   UNL     1       0.357   1.856   0.000  0.00  0.00    +0.000 C 
ATOM     17  C   UNL     1       1.786   1.856   0.000  0.00  0.00    +0.000 C 
ATOM     18  C   UNL     1       0.357   2.681   0.000  0.00  0.00    +0.000 C 
ATOM     19  C   UNL     1       1.786   2.681   0.000  0.00  0.00    +0.000 C 
BRANCH  16  20
ATOM     20  O   UNL     1      -0.357   1.444   0.000  0.00  0.00    +0.000 OA
ATOM     21  C   UNL     1      -1.072   1.856   0.000  0.00  0.00    +0.000 C 
ENDBRANCH  16  20
ENDBRANCH   2  15
TORSDOF 4
