REMARK  Name = 
REMARK  2 active torsions:
REMARK  status: ('A' for Active; 'I' for Inactive)
REMARK    1  A    between atoms: N_9  and  C_12
REMARK    2  A    between atoms: C_12  and  C_13
REMARK                            x       y       z     vdW  Elec       q    Type
REMARK                         _______ _______ _______ _____ _____    ______ ____
ROOT
ATOM      1  N   UNL     1       1.948   0.053   0.000  0.00  0.00    +0.000 N 
ATOM      2  C   UNL     1       1.948  -0.759   0.000  0.00  0.00    +0.000 A 
ATOM      3  N   UNL     1       1.257  -1.165   0.000  0.00  0.00    +0.000 N 
ATOM      4  C   UNL     1       0.526  -0.759   0.000  0.00  0.00    +0.000 A 
ATOM      5  C   UNL     1       0.526   0.053   0.000  0.00  0.00    +0.000 A 
ATOM      6  C   UNL     1       1.257   0.460   0.000  0.00  0.00    +0.000 A 
ATOM      7  N   UNL     1      -0.246  -1.003   0.000  0.00  0.00    +0.000 NA
ATOM      8  C   UNL     1      -0.693  -0.353   0.000  0.00  0.00    +0.000 A 
ATOM      9  N   UNL     1      -0.246   0.297   0.000  0.00  0.00    +0.000 N 
ATOM     10  O   UNL     1       1.257   1.272   0.000  0.00  0.00    +0.000 OA
ATOM     11  O   UNL     1       2.638  -1.165   0.000  0.00  0.00    +0.000 OA
ATOM     12  C   UNL     1       1.226  -1.972   0.000  0.00  0.00    +0.000 C 
ATOM     13  C   UNL     1       2.653   0.457   0.000  0.00  0.00    +0.000 C 
ENDROOT
BRANCH   9  14
ATOM     14  C   UNL     1      -0.510   1.065   0.000  0.00  0.00    +0.000 C 
BRANCH  14  15
ATOM     15  C   UNL     1      -1.328   1.224   0.000  0.00  0.00    +0.000 C 
ATOM     16  O   UNL     1      -1.676   1.972   0.000  0.00  0.00    +0.000 OA
ATOM     17  C   UNL     1      -2.495   1.872   0.000  0.00  0.00    +0.000 C 
ATOM     18  C   UNL     1      -2.653   1.062   0.000  0.00  0.00    +0.000 C 
ATOM     19  O   UNL     1      -1.931   0.662   0.000  0.00  0.00    +0.000 OA
ENDBRANCH  14  15
ENDBRANCH   9  14
TORSDOF 2
