REMARK  Name = 
REMARK  9 active torsions:
REMARK  status: ('A' for Active; 'I' for Inactive)
REMARK    1  A    between atoms: C_2  and  C_4
REMARK    2  A    between atoms: C_2  and  N_15
REMARK    3  A    between atoms: C_4  and  C_5
REMARK    4  A    between atoms: N_15  and  C_16
REMARK    5  A    between atoms: C_16  and  C_17
REMARK    6  A    between atoms: C_17  and  C_18
REMARK    7  A    between atoms: C_18  and  O_19
REMARK    8  A    between atoms: O_19  and  C_20
REMARK    9  A    between atoms: C_25  and  C_26
REMARK                            x       y       z     vdW  Elec       q    Type
REMARK                         _______ _______ _______ _____ _____    ______ ____
ROOT
ATOM      1  N   UNL     1       0.000  -3.300   0.000  0.00  0.00    +0.000 NA
ENDROOT
BRANCH   1   3
ATOM      2  C   UNL     1      -0.825  -2.475   0.000  0.00  0.00    +0.000 C 
ATOM      3  C   UNL     1       0.000  -2.475   0.000  0.00  0.00    +0.000 C 
ATOM      4  C   UNL     1       0.825  -2.475   0.000  0.00  0.00    +0.000 C 
BRANCH   3   5
ATOM      5  C   UNL     1       0.000  -1.650   0.000  0.00  0.00    +0.000 C 
BRANCH   5   6
ATOM      6  C   UNL     1       0.715  -1.238   0.000  0.00  0.00    +0.000 A 
ATOM      7  C   UNL     1       0.715  -0.412   0.000  0.00  0.00    +0.000 A 
ATOM      8  C   UNL     1       1.429   0.000   0.000  0.00  0.00    +0.000 A 
ATOM      9  C   UNL     1       2.143  -0.412   0.000  0.00  0.00    +0.000 A 
ATOM     10  C   UNL     1       2.858   0.000   0.000  0.00  0.00    +0.000 A 
ATOM     11  C   UNL     1       3.572  -0.412   0.000  0.00  0.00    +0.000 A 
ATOM     12  C   UNL     1       3.572  -1.238   0.000  0.00  0.00    +0.000 A 
ATOM     13  C   UNL     1       2.858  -1.650   0.000  0.00  0.00    +0.000 A 
ATOM     14  C   UNL     1       2.143  -1.238   0.000  0.00  0.00    +0.000 A 
ATOM     15  C   UNL     1       1.429  -1.650   0.000  0.00  0.00    +0.000 A 
ENDBRANCH   5   6
ENDBRANCH   3   5
ENDBRANCH   1   3
BRANCH   1  16
ATOM     16  C   UNL     1      -0.715  -3.712   0.000  0.00  0.00    +0.000 C 
BRANCH  16  17
ATOM     17  C   UNL     1      -0.715  -4.537   0.000  0.00  0.00    +0.000 C 
ATOM     18  O   UNL     1       0.000  -4.950   0.000  0.00  0.00    +0.000 OA
BRANCH  17  19
ATOM     19  C   UNL     1      -1.429  -4.950   0.000  0.00  0.00    +0.000 C 
BRANCH  19  20
ATOM     20  O   UNL     1      -1.429  -5.775   0.000  0.00  0.00    +0.000 OA
BRANCH  20  21
ATOM     21  C   UNL     1      -2.143  -6.188   0.000  0.00  0.00    +0.000 A 
ATOM     22  C   UNL     1      -2.143  -7.013   0.000  0.00  0.00    +0.000 A 
ATOM     23  C   UNL     1      -2.858  -7.425   0.000  0.00  0.00    +0.000 A 
ATOM     24  C   UNL     1      -3.572  -7.013   0.000  0.00  0.00    +0.000 A 
ATOM     25  C   UNL     1      -3.572  -6.188   0.000  0.00  0.00    +0.000 A 
ATOM     26  C   UNL     1      -2.858  -5.775   0.000  0.00  0.00    +0.000 A 
ATOM     27 CL   UNL     1      -4.287  -5.775   0.000  0.00  0.00    +0.000 Cl
BRANCH  26  28
ATOM     28  C   UNL     1      -2.858  -4.950   0.000  0.00  0.00    +0.000 C 
ATOM     29  N   UNL     1      -2.858  -4.125   0.000  0.00  0.00    +0.000 NA
ENDBRANCH  26  28
ENDBRANCH  20  21
ENDBRANCH  19  20
ENDBRANCH  17  19
ENDBRANCH  16  17
ENDBRANCH   1  16
TORSDOF 9
