REMARK  Name = 
REMARK  6 active torsions:
REMARK  status: ('A' for Active; 'I' for Inactive)
REMARK    1  A    between atoms: C_3  and  C_11
REMARK    2  A    between atoms: C_4  and  C_19
REMARK    3  A    between atoms: C_6  and  O_16
REMARK    4  A    between atoms: O_16  and  C_17
REMARK    5  A    between atoms: C_20  and  O_25
REMARK    6  A    between atoms: C_22  and  C_27
REMARK                            x       y       z     vdW  Elec       q    Type
REMARK                         _______ _______ _______ _____ _____    ______ ____
ROOT
ATOM      1  N   UNL     1       0.000   2.722   0.000  0.00  0.00    +0.000 NA
ATOM      2  C   UNL     1       0.715   2.310   0.000  0.00  0.00    +0.000 C 
ATOM      3  C   UNL     1       0.715   1.485   0.000  0.00  0.00    +0.000 C 
ATOM      4  C   UNL     1       0.000   1.072   0.000  0.00  0.00    +0.000 C 
ATOM      5  C   UNL     1      -0.714   1.485   0.000  0.00  0.00    +0.000 A 
ATOM      6  C   UNL     1      -1.429   1.072   0.000  0.00  0.00    +0.000 A 
ATOM      7  N   UNL     1      -2.143   1.485   0.000  0.00  0.00    +0.000 NA
ATOM      8  C   UNL     1      -2.143   2.310   0.000  0.00  0.00    +0.000 A 
ATOM      9  C   UNL     1      -1.429   2.722   0.000  0.00  0.00    +0.000 A 
ATOM     10  C   UNL     1      -0.714   2.310   0.000  0.00  0.00    +0.000 A 
ATOM     11  C   UNL     1      -1.429   3.547   0.000  0.00  0.00    +0.000 C 
ATOM     12  C   UNL     1       1.429   2.722   0.000  0.00  0.00    +0.000 C 
ENDROOT
BRANCH   4  13
ATOM     13  C   UNL     1       0.000  -0.247   0.000  0.00  0.00    +0.000 A 
ATOM     14  C   UNL     1       0.715  -0.660   0.000  0.00  0.00    +0.000 A 
ATOM     15  C   UNL     1       0.715  -1.485   0.000  0.00  0.00    +0.000 A 
ATOM     16  C   UNL     1       0.000  -1.897   0.000  0.00  0.00    +0.000 A 
ATOM     17  C   UNL     1      -0.714  -1.485   0.000  0.00  0.00    +0.000 A 
ATOM     18  C   UNL     1      -0.714  -0.660   0.000  0.00  0.00    +0.000 A 
BRANCH  14  19
ATOM     19  O   UNL     1       1.429  -0.247   0.000  0.00  0.00    +0.000 OA
ATOM     20  C   UNL     1       2.143  -0.660   0.000  0.00  0.00    +0.000 C 
ENDBRANCH  14  19
BRANCH  16  21
ATOM     21  C   UNL     1       0.000  -2.722   0.000  0.00  0.00    +0.000 C 
ATOM     22  N   UNL     1       0.000  -3.547   0.000  0.00  0.00    +0.000 NA
ENDBRANCH  16  21
ENDBRANCH   4  13
BRANCH   3  23
ATOM     23  C   UNL     1       1.429   1.072   0.000  0.00  0.00    +0.000 C 
ATOM     24  O   UNL     1       1.429   0.247   0.000  0.00  0.00    +0.000 OA
ATOM     25  N   UNL     1       2.143   1.485   0.000  0.00  0.00    +0.000 NA
ENDBRANCH   3  23
BRANCH   6  26
ATOM     26  O   UNL     1      -1.429   0.247   0.000  0.00  0.00    +0.000 OA
BRANCH  26  27
ATOM     27  C   UNL     1      -2.143  -0.165   0.000  0.00  0.00    +0.000 C 
ATOM     28  C   UNL     1      -2.143  -0.990   0.000  0.00  0.00    +0.000 C 
ENDBRANCH  26  27
ENDBRANCH   6  26
TORSDOF 6
