REMARK  Name = 
REMARK  2 active torsions:
REMARK  status: ('A' for Active; 'I' for Inactive)
REMARK    1  A    between atoms: C_17  and  N_28
REMARK    2  A    between atoms: N_28  and  S_29
REMARK                            x       y       z     vdW  Elec       q    Type
REMARK                         _______ _______ _______ _____ _____    ______ ____
ROOT
ATOM      1  C   UNL     1       9.680   4.912   0.000  0.00  0.00    +0.000 C 
ATOM      2  C   UNL     1       8.956   4.518   0.000  0.00  0.00    +0.000 C 
ATOM      3  C   UNL     1       8.252   4.948   0.000  0.00  0.00    +0.000 C 
ATOM      4  C   UNL     1       7.527   4.554   0.000  0.00  0.00    +0.000 C 
ATOM      5  C   UNL     1       7.506   3.729   0.000  0.00  0.00    +0.000 C 
ATOM      6  C   UNL     1       6.715   3.495   0.000  0.00  0.00    +0.000 C 
ATOM      7  C   UNL     1       6.247   4.175   0.000  0.00  0.00    +0.000 C 
ATOM      8  O   UNL     1       6.749   4.829   0.000  0.00  0.00    +0.000 OA
ATOM      9  C   UNL     1       5.870   3.441   0.000  0.00  0.00    +0.000 C 
ATOM     10  C   UNL     1       5.062   3.278   0.000  0.00  0.00    +0.000 C 
ATOM     11  C   UNL     1       4.430   3.809   0.000  0.00  0.00    +0.000 C 
ATOM     12  C   UNL     1       3.639   3.574   0.000  0.00  0.00    +0.000 C 
ATOM     13  C   UNL     1       3.284   2.829   0.000  0.00  0.00    +0.000 C 
ATOM     14  C   UNL     1       2.462   2.764   0.000  0.00  0.00    +0.000 C 
ATOM     15  C   UNL     1       1.994   3.444   0.000  0.00  0.00    +0.000 C 
ATOM     16  C   UNL     1       1.172   3.379   0.000  0.00  0.00    +0.000 C 
ATOM     17  C   UNL     1       0.704   4.058   0.000  0.00  0.00    +0.000 C 
ATOM     18  C   UNL     1       1.059   4.803   0.000  0.00  0.00    +0.000 C 
ATOM     19  C   UNL     1       1.881   4.868   0.000  0.00  0.00    +0.000 C 
ATOM     20  C   UNL     1       2.349   4.189   0.000  0.00  0.00    +0.000 C 
ATOM     21  C   UNL     1       3.171   4.254   0.000  0.00  0.00    +0.000 C 
ATOM     22  C   UNL     1       3.674   4.908   0.000  0.00  0.00    +0.000 C 
ATOM     23  C   UNL     1       4.451   4.633   0.000  0.00  0.00    +0.000 C 
ATOM     24  C   UNL     1       5.109   5.131   0.000  0.00  0.00    +0.000 C 
ATOM     25  C   UNL     1       5.909   4.927   0.000  0.00  0.00    +0.000 C 
ATOM     26  C   UNL     1       4.947   5.940   0.000  0.00  0.00    +0.000 C 
ATOM     27  C   UNL     1       2.704   4.933   0.000  0.00  0.00    +0.000 C 
ATOM     28  C   UNL     1       6.440   2.717   0.000  0.00  0.00    +0.000 C 
ATOM     29  N   UNL     1       8.210   3.299   0.000  0.00  0.00    +0.000 NA
ATOM     30  C   UNL     1       8.934   3.693   0.000  0.00  0.00    +0.000 C 
ENDROOT
BRANCH  17  31
ATOM     31  N   UNL     1      -0.118   3.993   0.000  0.00  0.00    +0.000 NA
BRANCH  31  32
ATOM     32  S   UNL     1      -0.473   3.248   0.000  0.00  0.00    +0.000 S 
ATOM     33  O   UNL     1      -0.828   2.504   0.000  0.00  0.00    +0.000 OA
ATOM     34  O   UNL     1      -1.218   3.603   0.000  0.00  0.00    +0.000 OA
ATOM     35  C   UNL     1       0.272   2.894   0.000  0.00  0.00    +0.000 C 
ENDBRANCH  31  32
ENDBRANCH  17  31
TORSDOF 2
