REMARK  Name = 
REMARK  15 active torsions:
REMARK  status: ('A' for Active; 'I' for Inactive)
REMARK    1  A    between atoms: C_4  and  C_7
REMARK    2  A    between atoms: C_7  and  C_8
REMARK    3  A    between atoms: C_8  and  C_9
REMARK    4  A    between atoms: C_8  and  N_21
REMARK    5  A    between atoms: N_11  and  C_12
REMARK    6  A    between atoms: C_12  and  C_18
REMARK    7  A    between atoms: C_22  and  C_24
REMARK    8  A    between atoms: C_24  and  C_25
REMARK    9  A    between atoms: C_24  and  N_35
REMARK   10  A    between atoms: C_25  and  C_26
REMARK   11  A    between atoms: C_36  and  C_38
REMARK   12  A    between atoms: C_38  and  C_39
REMARK   13  A    between atoms: C_38  and  N_49
REMARK   14  A    between atoms: C_39  and  C_40
REMARK   15  A    between atoms: C_50  and  C_52
REMARK                            x       y       z     vdW  Elec       q    Type
REMARK                         _______ _______ _______ _____ _____    ______ ____
ROOT
ATOM      1  C   UNL     1      -3.525  -1.632   0.000  0.00  0.00    +0.000 C 
ENDROOT
BRANCH   1   3
ATOM      2  N   UNL     1      -4.928  -1.362   0.000  0.00  0.00    +0.000 NA
ATOM      3  C   UNL     1      -4.305  -1.902   0.000  0.00  0.00    +0.000 C 
ATOM      4  O   UNL     1      -4.460  -2.712   0.000  0.00  0.00    +0.000 OA
BRANCH   2   5
ATOM      5  C   UNL     1      -5.708  -1.632   0.000  0.00  0.00    +0.000 C 
BRANCH   5   6
ATOM      6  C   UNL     1      -6.332  -1.092   0.000  0.00  0.00    +0.000 C 
ATOM      7  O   UNL     1      -6.176  -0.282   0.000  0.00  0.00    +0.000 OA
ATOM      8  N   UNL     1      -7.111  -1.362   0.000  0.00  0.00    +0.000 NA
BRANCH   8   9
ATOM      9  C   UNL     1      -7.735  -0.822   0.000  0.00  0.00    +0.000 C 
ATOM     10  C   UNL     1      -8.136  -0.101   0.000  0.00  0.00    +0.000 C 
ATOM     11  C   UNL     1      -8.961  -0.088   0.000  0.00  0.00    +0.000 C 
ATOM     12  N   UNL     1      -9.384  -0.796   0.000  0.00  0.00    +0.000 NA
ATOM     13  C   UNL     1      -8.983  -1.517   0.000  0.00  0.00    +0.000 C 
ATOM     14  C   UNL     1      -8.158  -1.530   0.000  0.00  0.00    +0.000 C 
BRANCH   9  15
ATOM     15  C   UNL     1      -7.095  -0.302   0.000  0.00  0.00    +0.000 C 
ATOM     16  O   UNL     1      -7.225   0.513   0.000  0.00  0.00    +0.000 OA
ATOM     17  N   UNL     1      -6.403   0.149   0.000  0.00  0.00    +0.000 NA
ENDBRANCH   9  15
ENDBRANCH   8   9
ENDBRANCH   5   6
BRANCH   5  18
ATOM     18  C   UNL     1      -5.864  -2.442   0.000  0.00  0.00    +0.000 C 
BRANCH  18  22
ATOM     19  C   UNL     1      -8.202  -3.252   0.000  0.00  0.00    +0.000 A 
ATOM     20  C   UNL     1      -8.046  -2.442   0.000  0.00  0.00    +0.000 A 
ATOM     21  C   UNL     1      -7.267  -2.172   0.000  0.00  0.00    +0.000 A 
ATOM     22  C   UNL     1      -6.643  -2.712   0.000  0.00  0.00    +0.000 A 
ATOM     23  C   UNL     1      -6.799  -3.522   0.000  0.00  0.00    +0.000 A 
ATOM     24  C   UNL     1      -7.579  -3.793   0.000  0.00  0.00    +0.000 A 
ENDBRANCH  18  22
ENDBRANCH   5  18
ENDBRANCH   2   5
ENDBRANCH   1   3
BRANCH   1  25
ATOM     25  N   UNL     1      -2.901  -2.172   0.000  0.00  0.00    +0.000 NA
ATOM     26  C   UNL     1      -2.122  -1.902   0.000  0.00  0.00    +0.000 C 
ATOM     27  O   UNL     1      -1.966  -1.092   0.000  0.00  0.00    +0.000 OA
BRANCH  26  28
ATOM     28  C   UNL     1      -1.498  -2.442   0.000  0.00  0.00    +0.000 C 
BRANCH  28  29
ATOM     29  N   UNL     1      -0.719  -2.172   0.000  0.00  0.00    +0.000 NA
ATOM     30  C   UNL     1      -0.563  -1.362   0.000  0.00  0.00    +0.000 C 
ATOM     31  O   UNL     1      -1.186  -0.822   0.000  0.00  0.00    +0.000 OA
BRANCH  30  32
ATOM     32  C   UNL     1       0.217  -1.092   0.000  0.00  0.00    +0.000 C 
ATOM     33  C   UNL     1       0.373  -0.282   0.000  0.00  0.00    +0.000 C 
ATOM     34  C   UNL     1       1.152  -0.012   0.000  0.00  0.00    +0.000 C 
ATOM     35  N   UNL     1       1.776  -0.552   0.000  0.00  0.00    +0.000 NA
ATOM     36  C   UNL     1       1.620  -1.362   0.000  0.00  0.00    +0.000 C 
ATOM     37  C   UNL     1       0.840  -1.632   0.000  0.00  0.00    +0.000 C 
ENDBRANCH  30  32
ENDBRANCH  28  29
BRANCH  28  38
ATOM     38  C   UNL     1      -1.654  -3.252   0.000  0.00  0.00    +0.000 C 
BRANCH  38  39
ATOM     39  C   UNL     1      -1.030  -3.793   0.000  0.00  0.00    +0.000 A 
ATOM     40  C   UNL     1      -1.101  -4.614   0.000  0.00  0.00    +0.000 A 
ATOM     41  S   UNL     1      -0.341  -4.936   0.000  0.00  0.00    +0.000 S 
ATOM     42  C   UNL     1       0.199  -4.312   0.000  0.00  0.00    +0.000 A 
ATOM     43  C   UNL     1      -0.227  -3.606   0.000  0.00  0.00    +0.000 A 
ATOM     44  C   UNL     1       0.172  -2.883   0.000  0.00  0.00    +0.000 A 
ATOM     45  C   UNL     1       0.997  -2.867   0.000  0.00  0.00    +0.000 A 
ATOM     46  C   UNL     1       1.423  -3.574   0.000  0.00  0.00    +0.000 A 
ATOM     47  C   UNL     1       1.024  -4.296   0.000  0.00  0.00    +0.000 A 
ENDBRANCH  38  39
ENDBRANCH  28  38
ENDBRANCH  26  28
ENDBRANCH   1  25
BRANCH   1  48
ATOM     48  C   UNL     1      -3.369  -0.822   0.000  0.00  0.00    +0.000 C 
BRANCH  48  49
ATOM     49  C   UNL     1      -3.993  -0.282   0.000  0.00  0.00    +0.000 A 
ATOM     50  C   UNL     1      -4.796  -0.469   0.000  0.00  0.00    +0.000 A 
ATOM     51  N   UNL     1      -5.223   0.237   0.000  0.00  0.00    +0.000 NA
ATOM     52  C   UNL     1      -4.683   0.861   0.000  0.00  0.00    +0.000 A 
ATOM     53  C   UNL     1      -3.922   0.540   0.000  0.00  0.00    +0.000 A 
ATOM     54  C   UNL     1      -3.264   1.038   0.000  0.00  0.00    +0.000 A 
ATOM     55  C   UNL     1      -3.367   1.856   0.000  0.00  0.00    +0.000 A 
ATOM     56  C   UNL     1      -4.127   2.177   0.000  0.00  0.00    +0.000 A 
ATOM     57  C   UNL     1      -4.785   1.680   0.000  0.00  0.00    +0.000 A 
ENDBRANCH  48  49
ENDBRANCH   1  48
TORSDOF 15
