REMARK  Name = 
REMARK  7 active torsions:
REMARK  status: ('A' for Active; 'I' for Inactive)
REMARK    1  A    between atoms: C_4  and  N_15
REMARK    2  A    between atoms: C_5  and  O_26
REMARK    3  A    between atoms: C_21  and  C_22
REMARK    4  A    between atoms: C_22  and  C_23
REMARK    5  A    between atoms: C_25  and  O_26
REMARK    6  A    between atoms: C_25  and  C_27
REMARK    7  A    between atoms: C_27  and  C_28
REMARK                            x       y       z     vdW  Elec       q    Type
REMARK                         _______ _______ _______ _____ _____    ______ ____
ROOT
ATOM      1  C   UNL     1      -1.978  -1.490   0.000  0.00  0.00    +0.000 C 
ATOM      2  O   UNL     1      -1.978  -0.665   0.000  0.00  0.00    +0.000 OA
ATOM      3  C   UNL     1      -1.194  -1.745   0.000  0.00  0.00    +0.000 C 
ATOM      4  C   UNL     1      -1.194  -0.410   0.000  0.00  0.00    +0.000 C 
ATOM      5  C   UNL     1      -0.709  -1.078   0.000  0.00  0.00    +0.000 C 
ATOM      6  O   UNL     1      -1.022  -2.552   0.000  0.00  0.00    +0.000 OA
ATOM      7  C   UNL     1      -2.591  -2.042   0.000  0.00  0.00    +0.000 C 
ATOM      8  O   UNL     1      -2.420  -2.849   0.000  0.00  0.00    +0.000 OA
ATOM      9  O   UNL     1      -1.635  -3.929   0.000  0.00  0.00    +0.000 OA
ATOM     10  P   UNL     1      -1.635  -3.104   0.000  0.00  0.00    +0.000 P 
ATOM     11  O   UNL     1      -0.921  -3.517   0.000  0.00  0.00    +0.000 OA
ENDROOT
BRANCH   4  18
ATOM     12  C   UNL     1      -0.154   1.454   0.000  0.00  0.00    +0.000 A 
ATOM     13  C   UNL     1      -0.154   0.629   0.000  0.00  0.00    +0.000 A 
ATOM     14  C   UNL     1       0.560   1.867   0.000  0.00  0.00    +0.000 A 
ATOM     15  N   UNL     1       0.560   0.217   0.000  0.00  0.00    +0.000 NA
ATOM     16  N   UNL     1       1.275   1.454   0.000  0.00  0.00    +0.000 NA
ATOM     17  C   UNL     1       1.275   0.629   0.000  0.00  0.00    +0.000 A 
ATOM     18  N   UNL     1      -0.939   0.374   0.000  0.00  0.00    +0.000 N 
ATOM     19  C   UNL     1      -1.423   1.042   0.000  0.00  0.00    +0.000 A 
ATOM     20  N   UNL     1      -0.939   1.709   0.000  0.00  0.00    +0.000 NA
ATOM     21  C   UNL     1      -0.154   3.104   0.000  0.00  0.00    +0.000 C 
ATOM     22  N   UNL     1       0.560   2.692   0.000  0.00  0.00    +0.000 NA
ATOM     23  O   UNL     1      -0.154   3.929   0.000  0.00  0.00    +0.000 OA
BRANCH  21  24
ATOM     24  C   UNL     1      -0.869   2.692   0.000  0.00  0.00    +0.000 C 
BRANCH  24  25
ATOM     25  C   UNL     1      -1.583   3.104   0.000  0.00  0.00    +0.000 C 
ATOM     26  C   UNL     1      -2.297   2.692   0.000  0.00  0.00    +0.000 C 
ENDBRANCH  24  25
ENDBRANCH  21  24
ENDBRANCH   4  18
BRANCH   5  27
ATOM     27  O   UNL     1       0.116  -1.078   0.000  0.00  0.00    +0.000 OA
BRANCH  27  28
ATOM     28  C   UNL     1       0.529  -1.792   0.000  0.00  0.00    +0.000 C 
ATOM     29  O   UNL     1       0.116  -2.507   0.000  0.00  0.00    +0.000 OA
BRANCH  28  30
ATOM     30  C   UNL     1       1.354  -1.792   0.000  0.00  0.00    +0.000 C 
BRANCH  30  31
ATOM     31  C   UNL     1       1.766  -2.507   0.000  0.00  0.00    +0.000 C 
ATOM     32  C   UNL     1       2.591  -2.507   0.000  0.00  0.00    +0.000 C 
ENDBRANCH  30  31
ENDBRANCH  28  30
ENDBRANCH  27  28
ENDBRANCH   5  27
TORSDOF 7
