REMARK  Name = 
REMARK  4 active torsions:
REMARK  status: ('A' for Active; 'I' for Inactive)
REMARK    1  A    between atoms: O_1  and  C_2
REMARK    2  A    between atoms: O_1  and  C_24
REMARK    3  A    between atoms: C_2  and  C_3
REMARK    4  A    between atoms: O_15  and  C_16
REMARK                            x       y       z     vdW  Elec       q    Type
REMARK                         _______ _______ _______ _____ _____    ______ ____
ROOT
ATOM      1  O   UNL     1       0.523  -0.208   0.000  0.00  0.00    +0.000 OA
ATOM      2  C   UNL     1      -0.191   0.313   0.000  0.00  0.00    +0.000 C 
ATOM      3  C   UNL     1       0.046   0.920   0.000  0.00  0.00    +0.000 C 
ATOM      4  C   UNL     1       1.204   0.311   0.000  0.00  0.00    +0.000 A 
ATOM      5  C   UNL     1       2.045   0.373   0.000  0.00  0.00    +0.000 A 
ATOM      6  C   UNL     1       2.421   1.118   0.000  0.00  0.00    +0.000 A 
ATOM      7  C   UNL     1       1.942   1.819   0.000  0.00  0.00    +0.000 A 
ATOM      8  C   UNL     1       1.073   1.863   0.000  0.00  0.00    +0.000 A 
ATOM      9  C   UNL     1       0.282   2.376   0.000  0.00  0.00    +0.000 C 
ATOM     10  C   UNL     1      -0.611   1.927   0.000  0.00  0.00    +0.000 C 
ATOM     11  C   UNL     1      -0.168   1.760   0.000  0.00  0.00    +0.000 C 
ATOM     12  C   UNL     1      -0.967   2.206   0.000  0.00  0.00    +0.000 C 
ATOM     13  C   UNL     1      -1.013   0.756   0.000  0.00  0.00    +0.000 C 
ATOM     14  C   UNL     1      -1.506   1.634   0.000  0.00  0.00    +0.000 C 
ATOM     15  C   UNL     1       0.834   1.065   0.000  0.00  0.00    +0.000 A 
ATOM     16  C   UNL     1      -0.674   0.228   0.000  0.00  0.00    +0.000 C 
ATOM     17  N   UNL     1      -1.294   1.259   0.000  0.00  0.00    +0.000 NA
ATOM     18  C   UNL     1      -1.465   0.455   0.000  0.00  0.00    +0.000 C 
ATOM     19  C   UNL     1      -2.017   1.657   0.000  0.00  0.00    +0.000 C 
ENDROOT
BRANCH   5  21
ATOM     20  C   UNL     1       3.326  -0.260   0.000  0.00  0.00    +0.000 C 
ATOM     21  O   UNL     1       2.503  -0.313   0.000  0.00  0.00    +0.000 OA
ENDBRANCH   5  21
BRANCH  13  22
ATOM     22  O   UNL     1      -1.591   0.168   0.000  0.00  0.00    +0.000 OA
BRANCH  22  23
ATOM     23  C   UNL     1      -1.371  -0.627   0.000  0.00  0.00    +0.000 C 
ATOM     24  O   UNL     1      -0.572  -0.834   0.000  0.00  0.00    +0.000 OA
BRANCH  23  25
ATOM     25  C   UNL     1      -1.949  -1.215   0.000  0.00  0.00    +0.000 A 
ATOM     26  C   UNL     1      -2.748  -1.009   0.000  0.00  0.00    +0.000 A 
ATOM     27  C   UNL     1      -3.326  -1.597   0.000  0.00  0.00    +0.000 A 
ATOM     28  C   UNL     1      -3.106  -2.392   0.000  0.00  0.00    +0.000 A 
ATOM     29  C   UNL     1      -2.307  -2.599   0.000  0.00  0.00    +0.000 A 
ATOM     30  C   UNL     1      -1.729  -2.010   0.000  0.00  0.00    +0.000 A 
ENDBRANCH  23  25
ENDBRANCH  22  23
ENDBRANCH  13  22
TORSDOF 4
