REMARK  Name = 
REMARK  15 active torsions:
REMARK  status: ('A' for Active; 'I' for Inactive)
REMARK    1  A    between atoms: P_1  and  O_9
REMARK    2  A    between atoms: P_1  and  O_12
REMARK    3  A    between atoms: P_2  and  O_7
REMARK    4  A    between atoms: P_3  and  O_10
REMARK    5  A    between atoms: P_3  and  O_12
REMARK    6  A    between atoms: P_4  and  O_11
REMARK    7  A    between atoms: O_7  and  C_32
REMARK    8  A    between atoms: O_9  and  C_36
REMARK    9  A    between atoms: O_10  and  C_40
REMARK   10  A    between atoms: O_11  and  C_41
REMARK   11  A    between atoms: N_25  and  C_35
REMARK   12  A    between atoms: N_26  and  C_39
REMARK   13  A    between atoms: N_31  and  C_47
REMARK   14  A    between atoms: C_34  and  C_40
REMARK   15  A    between atoms: C_37  and  C_41
REMARK                            x       y       z     vdW  Elec       q    Type
REMARK                         _______ _______ _______ _____ _____    ______ ____
ROOT
ATOM      1  P   UNL     1      -0.192   0.277   0.000  0.00  0.00    +0.000 P 
ATOM      2  O   UNL     1       0.292  -0.391   0.000  0.00  0.00    +0.000 OA
ATOM      3  O   UNL     1      -0.676   0.945   0.000  0.00  0.00    +0.000 OA
ENDROOT
BRANCH   1   4
ATOM      4  O   UNL     1       0.476   0.761   0.000  0.00  0.00    +0.000 OA
BRANCH   4   5
ATOM      5  P   UNL     1       1.229   0.424   0.000  0.00  0.00    +0.000 P 
ATOM      6  O   UNL     1       1.566   1.177   0.000  0.00  0.00    +0.000 OA
ATOM      7  O   UNL     1       0.892  -0.329   0.000  0.00  0.00    +0.000 OA
BRANCH   5   8
ATOM      8  O   UNL     1       1.982   0.087   0.000  0.00  0.00    +0.000 OA
BRANCH   8  10
ATOM      9  O   UNL     1       3.921   0.981   0.000  0.00  0.00    +0.000 OA
ATOM     10  C   UNL     1       2.651   0.571   0.000  0.00  0.00    +0.000 C 
ATOM     11  C   UNL     1       3.435   0.314   0.000  0.00  0.00    +0.000 C 
ATOM     12  C   UNL     1       2.652   1.396   0.000  0.00  0.00    +0.000 C 
ATOM     13  C   UNL     1       3.437   1.649   0.000  0.00  0.00    +0.000 C 
BRANCH  13  16
ATOM     14  O   UNL     1       5.052   1.990   0.000  0.00  0.00    +0.000 OA
ATOM     15  O   UNL     1       4.462   4.786   0.000  0.00  0.00    +0.000 OA
ATOM     16  N   UNL     1       3.693   2.433   0.000  0.00  0.00    +0.000 N 
ATOM     17  N   UNL     1       4.757   3.388   0.000  0.00  0.00    +0.000 N 
ATOM     18  C   UNL     1       4.501   2.603   0.000  0.00  0.00    +0.000 A 
ATOM     19  C   UNL     1       3.142   3.047   0.000  0.00  0.00    +0.000 A 
ATOM     20  C   UNL     1       3.399   3.832   0.000  0.00  0.00    +0.000 A 
ATOM     21  C   UNL     1       4.206   4.002   0.000  0.00  0.00    +0.000 A 
ATOM     22  H   UNL     1       5.257   3.493   0.000  0.00  0.00    +0.000 HD
ENDBRANCH  13  16
BRANCH  11  23
ATOM     23  C   UNL     1       3.688  -0.470   0.000  0.00  0.00    +0.000 C 
BRANCH  23  24
ATOM     24  O   UNL     1       4.495  -0.643   0.000  0.00  0.00    +0.000 OA
BRANCH  24  25
ATOM     25  P   UNL     1       4.749  -1.429   0.000  0.00  0.00    +0.000 P 
ATOM     26  O   UNL     1       5.002  -2.213   0.000  0.00  0.00    +0.000 OA
ATOM     27  O   UNL     1       5.534  -1.175   0.000  0.00  0.00    +0.000 OA
ATOM     28  O   UNL     1       3.964  -1.682   0.000  0.00  0.00    +0.000 OA
ENDBRANCH  24  25
ENDBRANCH  23  24
ENDBRANCH  11  23
ENDBRANCH   8  10
ENDBRANCH   5   8
ENDBRANCH   4   5
ENDBRANCH   1   4
BRANCH   1  29
ATOM     29  O   UNL     1      -0.860  -0.207   0.000  0.00  0.00    +0.000 OA
BRANCH  29  30
ATOM     30  C   UNL     1      -1.613   0.130   0.000  0.00  0.00    +0.000 C 
BRANCH  30  35
ATOM     31  O   UNL     1      -2.283  -1.179   0.000  0.00  0.00    +0.000 OA
ATOM     32  O   UNL     1      -4.377  -0.762   0.000  0.00  0.00    +0.000 OA
ATOM     33  C   UNL     1      -3.066  -0.097   0.000  0.00  0.00    +0.000 C 
ATOM     34  C   UNL     1      -3.552  -0.764   0.000  0.00  0.00    +0.000 C 
ATOM     35  C   UNL     1      -2.281  -0.354   0.000  0.00  0.00    +0.000 C 
ATOM     36  C   UNL     1      -3.068  -1.432   0.000  0.00  0.00    +0.000 C 
BRANCH  36  37
ATOM     37  N   UNL     1      -3.324  -2.216   0.000  0.00  0.00    +0.000 N 
ATOM     38  N   UNL     1      -3.324  -3.544   0.000  0.00  0.00    +0.000 NA
ATOM     39  N   UNL     1      -4.819  -2.055   0.000  0.00  0.00    +0.000 NA
ATOM     40  N   UNL     1      -5.534  -3.293   0.000  0.00  0.00    +0.000 NA
ATOM     41  C   UNL     1      -4.105  -2.468   0.000  0.00  0.00    +0.000 A 
ATOM     42  C   UNL     1      -2.843  -2.880   0.000  0.00  0.00    +0.000 A 
ATOM     43  C   UNL     1      -4.105  -3.293   0.000  0.00  0.00    +0.000 A 
ATOM     44  C   UNL     1      -4.819  -3.705   0.000  0.00  0.00    +0.000 A 
ATOM     45  C   UNL     1      -5.534  -2.468   0.000  0.00  0.00    +0.000 A 
BRANCH  44  46
ATOM     46  N   UNL     1      -4.819  -4.530   0.000  0.00  0.00    +0.000 N 
ATOM     47  H   UNL     1      -4.376  -4.786   0.000  0.00  0.00    +0.000 HD
ATOM     48  H   UNL     1      -5.262  -4.786   0.000  0.00  0.00    +0.000 HD
ENDBRANCH  44  46
ENDBRANCH  36  37
BRANCH  33  49
ATOM     49  O   UNL     1      -3.319   0.688   0.000  0.00  0.00    +0.000 OA
BRANCH  49  50
ATOM     50  P   UNL     1      -2.766   1.300   0.000  0.00  0.00    +0.000 P 
ATOM     51  O   UNL     1      -2.213   1.912   0.000  0.00  0.00    +0.000 OA
ATOM     52  O   UNL     1      -3.378   1.853   0.000  0.00  0.00    +0.000 OA
ATOM     53  O   UNL     1      -2.154   0.747   0.000  0.00  0.00    +0.000 OA
ENDBRANCH  49  50
ENDBRANCH  33  49
ENDBRANCH  30  35
ENDBRANCH  29  30
ENDBRANCH   1  29
TORSDOF 15
