REMARK  Name = 
REMARK  8 active torsions:
REMARK  status: ('A' for Active; 'I' for Inactive)
REMARK    1  A    between atoms: C_2  and  N_4
REMARK    2  A    between atoms: N_4  and  C_5
REMARK    3  A    between atoms: C_5  and  C_6
REMARK    4  A    between atoms: C_6  and  C_7
REMARK    5  A    between atoms: C_7  and  O_8
REMARK    6  A    between atoms: O_8  and  C_9
REMARK    7  A    between atoms: C_12  and  C_15
REMARK    8  A    between atoms: C_15  and  C_16
REMARK                            x       y       z     vdW  Elec       q    Type
REMARK                         _______ _______ _______ _____ _____    ______ ____
ROOT
ATOM      1  C   UNL     1       5.716  -4.125   0.000  0.00  0.00    +0.000 A 
ATOM      2  C   UNL     1       6.430  -3.712   0.000  0.00  0.00    +0.000 A 
ATOM      3  C   UNL     1       7.145  -4.125   0.000  0.00  0.00    +0.000 A 
ATOM      4  C   UNL     1       7.145  -4.950   0.000  0.00  0.00    +0.000 A 
ATOM      5  C   UNL     1       6.430  -5.362   0.000  0.00  0.00    +0.000 A 
ATOM      6  C   UNL     1       5.716  -4.950   0.000  0.00  0.00    +0.000 A 
ENDROOT
BRANCH   1   7
ATOM      7  O   UNL     1       5.001  -3.712   0.000  0.00  0.00    +0.000 OA
BRANCH   7   8
ATOM      8  C   UNL     1       4.287  -4.125   0.000  0.00  0.00    +0.000 C 
BRANCH   8   9
ATOM      9  C   UNL     1       3.572  -3.712   0.000  0.00  0.00    +0.000 C 
ATOM     10  O   UNL     1       3.572  -2.888   0.000  0.00  0.00    +0.000 OA
BRANCH   9  11
ATOM     11  C   UNL     1       2.858  -4.125   0.000  0.00  0.00    +0.000 C 
BRANCH  11  12
ATOM     12  N   UNL     1       2.143  -3.712   0.000  0.00  0.00    +0.000 NA
BRANCH  12  14
ATOM     13  C   UNL     1       0.715  -3.712   0.000  0.00  0.00    +0.000 C 
ATOM     14  C   UNL     1       1.429  -4.125   0.000  0.00  0.00    +0.000 C 
ATOM     15  C   UNL     1       1.429  -4.950   0.000  0.00  0.00    +0.000 C 
ENDBRANCH  12  14
ENDBRANCH  11  12
ENDBRANCH   9  11
ENDBRANCH   8   9
ENDBRANCH   7   8
ENDBRANCH   1   7
BRANCH   4  16
ATOM     16  C   UNL     1       7.859  -5.362   0.000  0.00  0.00    +0.000 C 
BRANCH  16  17
ATOM     17  C   UNL     1       7.859  -6.188   0.000  0.00  0.00    +0.000 C 
ATOM     18  O   UNL     1       8.574  -6.600   0.000  0.00  0.00    +0.000 OA
ATOM     19  N   UNL     1       7.145  -6.600   0.000  0.00  0.00    +0.000 NA
ENDBRANCH  16  17
ENDBRANCH   4  16
TORSDOF 8
