REMARK  Name = 
REMARK  4 active torsions:
REMARK  status: ('A' for Active; 'I' for Inactive)
REMARK    1  A    between atoms: C_1  and  O_4
REMARK    2  A    between atoms: C_1  and  C_8
REMARK    3  A    between atoms: O_4  and  C_7
REMARK    4  A    between atoms: C_7  and  C_13
REMARK                            x       y       z     vdW  Elec       q    Type
REMARK                         _______ _______ _______ _____ _____    ______ ____
ROOT
ATOM      1  C   UNL     1       0.402  -0.170   0.000  0.00  0.00    +0.000 C 
ATOM      2  C   UNL     1       1.124   0.247   0.000  0.00  0.00    +0.000 C 
ATOM      3  C   UNL     1      -0.310   0.247   0.000  0.00  0.00    +0.000 C 
ATOM      4  N   UNL     1       0.412   1.483   0.000  0.00  0.00    +0.000 NA
ATOM      5  C   UNL     1       1.124   1.066   0.000  0.00  0.00    +0.000 C 
ATOM      6  C   UNL     1      -0.310   1.066   0.000  0.00  0.00    +0.000 C 
ATOM      7  C   UNL     1       1.826  -0.170   0.000  0.00  0.00    +0.000 C 
ATOM      8  C   UNL     1       0.412   2.311   0.000  0.00  0.00    +0.000 C 
ENDROOT
BRANCH   1   9
ATOM      9  C   UNL     1       0.824  -0.882   0.000  0.00  0.00    +0.000 A 
ATOM     10  C   UNL     1       0.402  -1.599   0.000  0.00  0.00    +0.000 A 
ATOM     11  C   UNL     1       1.647  -0.882   0.000  0.00  0.00    +0.000 A 
ATOM     12  C   UNL     1       0.824  -2.311   0.000  0.00  0.00    +0.000 A 
ATOM     13  C   UNL     1       2.059  -1.599   0.000  0.00  0.00    +0.000 A 
ATOM     14  C   UNL     1       1.647  -2.311   0.000  0.00  0.00    +0.000 A 
ENDBRANCH   1   9
BRANCH   1  15
ATOM     15  O   UNL     1      -0.005  -0.882   0.000  0.00  0.00    +0.000 OA
BRANCH  15  16
ATOM     16  C   UNL     1      -0.824  -0.882   0.000  0.00  0.00    +0.000 C 
ATOM     17  O   UNL     1      -1.231  -0.160   0.000  0.00  0.00    +0.000 OA
BRANCH  16  18
ATOM     18  C   UNL     1      -1.240  -1.594   0.000  0.00  0.00    +0.000 C 
ATOM     19  C   UNL     1      -2.059  -1.594   0.000  0.00  0.00    +0.000 C 
ENDBRANCH  16  18
ENDBRANCH  15  16
ENDBRANCH   1  15
TORSDOF 4
