REMARK  Name = 
REMARK  2 active torsions:
REMARK  status: ('A' for Active; 'I' for Inactive)
REMARK    1  A    between atoms: FE_1  and  O_3
REMARK    2  A    between atoms: FE_2  and  O_3
REMARK                            x       y       z     vdW  Elec       q    Type
REMARK                         _______ _______ _______ _____ _____    ______ ____
ROOT
ATOM      1  O   UNL     1       0.000  -0.206   0.000  0.00  0.00    +0.000 OA
ENDROOT
BRANCH   1   2
ATOM      2 FE   UNL     1      -0.715   0.206   0.000  0.00  0.00    +0.000 Fe
ATOM      3  O   UNL     1      -1.429  -0.206   0.000  0.00  0.00    +0.000 OA
ENDBRANCH   1   2
BRANCH   1   4
ATOM      4 FE   UNL     1       0.715   0.206   0.000  0.00  0.00    +0.000 Fe
ATOM      5  O   UNL     1       1.429  -0.206   0.000  0.00  0.00    +0.000 OA
ENDBRANCH   1   4
TORSDOF 2
