REMARK  Name = 
REMARK  9 active torsions:
REMARK  status: ('A' for Active; 'I' for Inactive)
REMARK    1  A    between atoms: C_1  and  C_2
REMARK    2  A    between atoms: C_3  and  C_4
REMARK    3  A    between atoms: C_4  and  C_5
REMARK    4  A    between atoms: C_7  and  C_8
REMARK    5  A    between atoms: C_10  and  C_11
REMARK    6  A    between atoms: C_14  and  O_27
REMARK    7  A    between atoms: C_15  and  O_26
REMARK    8  A    between atoms: C_18  and  O_22
REMARK    9  A    between atoms: C_19  and  O_24
REMARK                            x       y       z     vdW  Elec       q    Type
REMARK                         _______ _______ _______ _____ _____    ______ ____
ROOT
ATOM      1  C   UNL     1      -0.000   0.409   0.000  0.00  0.00    +0.000 C 
ATOM      2  C   UNL     1       0.714   0.822   0.000  0.00  0.00    +0.000 C 
ATOM      3  O   UNL     1       0.714   1.647   0.000  0.00  0.00    +0.000 OA
ENDROOT
BRANCH   1   4
ATOM      4  C   UNL     1      -0.715   0.822   0.000  0.00  0.00    +0.000 C 
ATOM      5  O   UNL     1      -0.715   1.647   0.000  0.00  0.00    +0.000 OA
BRANCH   4   7
ATOM      6  C   UNL     1      -2.144   0.822   0.000  0.00  0.00    +0.000 C 
ATOM      7  C   UNL     1      -1.429   0.409   0.000  0.00  0.00    +0.000 C 
BRANCH   6   8
ATOM      8  C   UNL     1      -2.858   0.409   0.000  0.00  0.00    +0.000 A 
ATOM      9  C   UNL     1      -3.572   0.825   0.000  0.00  0.00    +0.000 A 
ATOM     10  C   UNL     1      -4.286   0.413   0.000  0.00  0.00    +0.000 A 
ATOM     11  C   UNL     1      -4.287  -0.413   0.000  0.00  0.00    +0.000 A 
ATOM     12  C   UNL     1      -3.567  -0.825   0.000  0.00  0.00    +0.000 A 
ATOM     13  C   UNL     1      -2.856  -0.411   0.000  0.00  0.00    +0.000 A 
BRANCH  10  14
ATOM     14  O   UNL     1      -5.001   0.826   0.000  0.00  0.00    +0.000 OA
ATOM     15  C   UNL     1      -5.000   1.651   0.000  0.00  0.00    +0.000 C 
ENDBRANCH  10  14
BRANCH  11  16
ATOM     16  O   UNL     1      -5.001  -0.826   0.000  0.00  0.00    +0.000 OA
ATOM     17  C   UNL     1      -5.000  -1.651   0.000  0.00  0.00    +0.000 C 
ENDBRANCH  11  16
ENDBRANCH   6   8
ENDBRANCH   4   7
ENDBRANCH   1   4
BRANCH   2  18
ATOM     18  C   UNL     1       1.428   0.409   0.000  0.00  0.00    +0.000 C 
ATOM     19  C   UNL     1       2.143   0.822   0.000  0.00  0.00    +0.000 C 
BRANCH  19  20
ATOM     20  C   UNL     1       2.857   0.409   0.000  0.00  0.00    +0.000 A 
ATOM     21  C   UNL     1       2.855  -0.416   0.000  0.00  0.00    +0.000 A 
ATOM     22  C   UNL     1       3.569  -0.829   0.000  0.00  0.00    +0.000 A 
ATOM     23  C   UNL     1       4.285  -0.416   0.000  0.00  0.00    +0.000 A 
ATOM     24  C   UNL     1       4.282   0.413   0.000  0.00  0.00    +0.000 A 
ATOM     25  C   UNL     1       3.568   0.822   0.000  0.00  0.00    +0.000 A 
BRANCH  24  26
ATOM     26  O   UNL     1       4.995   0.828   0.000  0.00  0.00    +0.000 OA
ATOM     27  C   UNL     1       4.992   1.653   0.000  0.00  0.00    +0.000 C 
ENDBRANCH  24  26
BRANCH  23  28
ATOM     28  O   UNL     1       5.000  -0.828   0.000  0.00  0.00    +0.000 OA
ATOM     29  C   UNL     1       5.001  -1.653   0.000  0.00  0.00    +0.000 C 
ENDBRANCH  23  28
ENDBRANCH  19  20
ENDBRANCH   2  18
TORSDOF 9
