REMARK  Name = 
REMARK  5 active torsions:
REMARK  status: ('A' for Active; 'I' for Inactive)
REMARK    1  A    between atoms: P_1  and  C_16
REMARK    2  A    between atoms: N_11  and  C_12
REMARK    3  A    between atoms: C_13  and  C_17
REMARK    4  A    between atoms: C_17  and  C_18
REMARK    5  A    between atoms: C_18  and  C_19
REMARK                            x       y       z     vdW  Elec       q    Type
REMARK                         _______ _______ _______ _____ _____    ______ ____
ROOT
ATOM      1  O   UNL     1       1.293   0.502   0.000  0.00  0.00    +0.000 OA
ATOM      2  O   UNL     1      -0.850   1.740   0.000  0.00  0.00    +0.000 OA
ATOM      3  C   UNL     1      -0.136   0.502   0.000  0.00  0.00    +0.000 C 
ATOM      4  C   UNL     1       0.579   0.089   0.000  0.00  0.00    +0.000 C 
ATOM      5  C   UNL     1      -0.136   1.327   0.000  0.00  0.00    +0.000 C 
ATOM      6  C   UNL     1       0.579   1.740   0.000  0.00  0.00    +0.000 C 
ATOM      7  C   UNL     1       1.293   1.327   0.000  0.00  0.00    +0.000 C 
ENDROOT
BRANCH   7   8
ATOM      8  P   UNL     1       2.008   1.740   0.000  0.00  0.00    +0.000 P 
ATOM      9  O   UNL     1       2.722   2.152   0.000  0.00  0.00    +0.000 OA
ATOM     10  O   UNL     1       1.595   2.454   0.000  0.00  0.00    +0.000 OA
ATOM     11  O   UNL     1       2.420   1.025   0.000  0.00  0.00    +0.000 OA
ENDBRANCH   7   8
BRANCH   3  13
ATOM     12  O   UNL     1      -1.565   1.327   0.000  0.00  0.00    +0.000 OA
ATOM     13  N   UNL     1      -0.850   0.089   0.000  0.00  0.00    +0.000 NA
ATOM     14  C   UNL     1      -1.565   0.502   0.000  0.00  0.00    +0.000 C 
ATOM     15  C   UNL     1      -2.279   0.089   0.000  0.00  0.00    +0.000 C 
ENDBRANCH   3  13
BRANCH   4  17
ATOM     16  O   UNL     1      -0.136  -1.148   0.000  0.00  0.00    +0.000 OA
ATOM     17  C   UNL     1       0.579  -0.736   0.000  0.00  0.00    +0.000 C 
BRANCH  17  19
ATOM     18  O   UNL     1       2.008  -0.736   0.000  0.00  0.00    +0.000 OA
ATOM     19  C   UNL     1       1.293  -1.148   0.000  0.00  0.00    +0.000 C 
BRANCH  19  21
ATOM     20  O   UNL     1       2.008  -2.385   0.000  0.00  0.00    +0.000 OA
ATOM     21  C   UNL     1       1.293  -1.973   0.000  0.00  0.00    +0.000 C 
ENDBRANCH  19  21
ENDBRANCH  17  19
ENDBRANCH   4  17
TORSDOF 5
