REMARK  Name = 
REMARK  0 active torsions:
REMARK  status: ('A' for Active; 'I' for Inactive)
REMARK                            x       y       z     vdW  Elec       q    Type
REMARK                         _______ _______ _______ _____ _____    ______ ____
ROOT
ATOM      1  S   UNL     1       0.011   0.007   0.000  0.00  0.00    +0.000 S 
ATOM      2 CU   UNL     1       0.649  -0.190   0.000  0.00  0.00    +0.000 Cu
ATOM      3 CU   UNL     1       0.196   0.657   0.000  0.00  0.00    +0.000 Cu
ATOM      4 CU   UNL     1      -0.187  -0.657   0.000  0.00  0.00    +0.000 Cu
ATOM      5 CU   UNL     1      -0.649   0.189   0.000  0.00  0.00    +0.000 Cu
ENDROOT
TORSDOF 0
