REMARK  Name = 
REMARK  9 active torsions:
REMARK  status: ('A' for Active; 'I' for Inactive)
REMARK    1  A    between atoms: C_2  and  C_3
REMARK    2  A    between atoms: C_3  and  C_4
REMARK    3  A    between atoms: C_3  and  C_6
REMARK    4  A    between atoms: C_6  and  C_7
REMARK    5  A    between atoms: C_7  and  C_13
REMARK    6  A    between atoms: N_15  and  C_16
REMARK    7  A    between atoms: C_21  and  S_22
REMARK    8  A    between atoms: S_22  and  C_23
REMARK    9  A    between atoms: C_23  and  C_25
REMARK                            x       y       z     vdW  Elec       q    Type
REMARK                         _______ _______ _______ _____ _____    ______ ____
ROOT
ATOM      1  C   UNL     1       1.061  -1.650   0.000  0.00  0.00    +0.000 C 
ATOM      2  O   UNL     1       0.778  -0.875   0.000  0.00  0.00    +0.000 OA
ATOM      3  N   UNL     1       1.873  -1.793   0.000  0.00  0.00    +0.000 NA
ENDROOT
BRANCH   3   4
ATOM      4  C   UNL     1       2.403  -1.161   0.000  0.00  0.00    +0.000 A 
ATOM      5  C   UNL     1       2.121  -0.386   0.000  0.00  0.00    +0.000 A 
ATOM      6  C   UNL     1       2.651   0.246   0.000  0.00  0.00    +0.000 A 
ATOM      7  C   UNL     1       3.464   0.103   0.000  0.00  0.00    +0.000 A 
ATOM      8  C   UNL     1       3.746  -0.672   0.000  0.00  0.00    +0.000 A 
ATOM      9  C   UNL     1       3.216  -1.304   0.000  0.00  0.00    +0.000 A 
BRANCH   9  10
ATOM     10  S   UNL     1       3.498  -2.080   0.000  0.00  0.00    +0.000 S 
BRANCH  10  11
ATOM     11  C   UNL     1       4.311  -2.223   0.000  0.00  0.00    +0.000 C 
ATOM     12  O   UNL     1       4.841  -1.591   0.000  0.00  0.00    +0.000 OA
BRANCH  11  13
ATOM     13  C   UNL     1       4.593  -2.998   0.000  0.00  0.00    +0.000 C 
ATOM     14  C   UNL     1       5.405  -3.142   0.000  0.00  0.00    +0.000 C 
ATOM     15  C   UNL     1       4.062  -3.630   0.000  0.00  0.00    +0.000 C 
ENDBRANCH  11  13
ENDBRANCH  10  11
ENDBRANCH   9  10
ENDBRANCH   3   4
BRANCH   1  16
ATOM     16  C   UNL     1       0.530  -2.282   0.000  0.00  0.00    +0.000 C 
ATOM     17  C   UNL     1       1.245  -2.695   0.000  0.00  0.00    +0.000 C 
ATOM     18  C   UNL     1       1.245  -3.519   0.000  0.00  0.00    +0.000 C 
ATOM     19  C   UNL     1       0.530  -3.932   0.000  0.00  0.00    +0.000 C 
ATOM     20  C   UNL     1      -0.184  -3.519   0.000  0.00  0.00    +0.000 C 
ATOM     21  C   UNL     1      -0.184  -2.695   0.000  0.00  0.00    +0.000 C 
BRANCH  16  22
ATOM     22  C   UNL     1       0.000  -1.650   0.000  0.00  0.00    +0.000 C 
BRANCH  22  23
ATOM     23  C   UNL     1      -0.812  -1.793   0.000  0.00  0.00    +0.000 C 
BRANCH  23  25
ATOM     24  C   UNL     1      -1.907  -2.712   0.000  0.00  0.00    +0.000 C 
ATOM     25  C   UNL     1      -1.095  -2.568   0.000  0.00  0.00    +0.000 C 
ENDBRANCH  23  25
BRANCH  23  26
ATOM     26  C   UNL     1      -1.343  -1.161   0.000  0.00  0.00    +0.000 C 
ATOM     27  C   UNL     1      -1.061  -0.386   0.000  0.00  0.00    +0.000 C 
ENDBRANCH  23  26
ENDBRANCH  22  23
ENDBRANCH  16  22
ENDBRANCH   1  16
TORSDOF 9
