REMARK  Name = 
REMARK  10 active torsions:
REMARK  status: ('A' for Active; 'I' for Inactive)
REMARK    1  A    between atoms: C_11  and  O_14
REMARK    2  A    between atoms: N_20  and  C_21
REMARK    3  A    between atoms: C_21  and  C_22
REMARK    4  A    between atoms: C_22  and  C_23
REMARK    5  A    between atoms: C_23  and  C_24
REMARK    6  A    between atoms: C_24  and  C_25
REMARK    7  A    between atoms: C_25  and  C_26
REMARK    8  A    between atoms: C_26  and  C_27
REMARK    9  A    between atoms: C_27  and  C_28
REMARK   10  A    between atoms: C_28  and  N_31
REMARK                            x       y       z     vdW  Elec       q    Type
REMARK                         _______ _______ _______ _____ _____    ______ ____
ROOT
ATOM      1  C   UNL     1      -3.335   3.811   0.000  0.00  0.00    +0.000 C 
ATOM      2  C   UNL     1      -4.044   3.405   0.000  0.00  0.00    +0.000 C 
ATOM      3  C   UNL     1      -2.614   2.579   0.000  0.00  0.00    +0.000 C 
ATOM      4  C   UNL     1      -2.614   3.405   0.000  0.00  0.00    +0.000 C 
ATOM      5  O   UNL     1      -3.335   4.636   0.000  0.00  0.00    +0.000 OA
ATOM      6  C   UNL     1      -4.044   2.579   0.000  0.00  0.00    +0.000 C 
ATOM      7  O   UNL     1      -4.659   2.033   0.000  0.00  0.00    +0.000 OA
ATOM      8  C   UNL     1      -3.335   2.161   0.000  0.00  0.00    +0.000 C 
ATOM      9  C   UNL     1      -4.322   1.278   0.000  0.00  0.00    +0.000 A 
ATOM     10  C   UNL     1      -3.509   1.359   0.000  0.00  0.00    +0.000 A 
ATOM     11  C   UNL     1      -4.659   0.523   0.000  0.00  0.00    +0.000 A 
ATOM     12  C   UNL     1      -4.171  -0.139   0.000  0.00  0.00    +0.000 A 
ATOM     13  C   UNL     1      -3.358  -0.058   0.000  0.00  0.00    +0.000 A 
ATOM     14  C   UNL     1      -3.021   0.697   0.000  0.00  0.00    +0.000 A 
ATOM     15  C   UNL     1      -2.196   0.697   0.000  0.00  0.00    +0.000 C 
ATOM     16  C   UNL     1      -2.533   1.952   0.000  0.00  0.00    +0.000 C 
ATOM     17  C   UNL     1      -1.743   2.161   0.000  0.00  0.00    +0.000 C 
ATOM     18  N   UNL     1      -1.534   1.371   0.000  0.00  0.00    +0.000 N 
ENDROOT
BRANCH  11  19
ATOM     19  O   UNL     1      -5.473   0.442   0.000  0.00  0.00    +0.000 OA
ATOM     20  C   UNL     1      -5.810  -0.314   0.000  0.00  0.00    +0.000 C 
ENDBRANCH  11  19
BRANCH  18  21
ATOM     21  C   UNL     1      -0.732   1.162   0.000  0.00  0.00    +0.000 C 
BRANCH  21  22
ATOM     22  C   UNL     1      -0.523   0.372   0.000  0.00  0.00    +0.000 C 
BRANCH  22  23
ATOM     23  C   UNL     1       0.279   0.163   0.000  0.00  0.00    +0.000 C 
BRANCH  23  24
ATOM     24  C   UNL     1       0.488  -0.639   0.000  0.00  0.00    +0.000 C 
BRANCH  24  25
ATOM     25  C   UNL     1       1.290  -0.848   0.000  0.00  0.00    +0.000 C 
BRANCH  25  26
ATOM     26  C   UNL     1       1.499  -1.638   0.000  0.00  0.00    +0.000 C 
BRANCH  26  27
ATOM     27  C   UNL     1       2.301  -1.847   0.000  0.00  0.00    +0.000 C 
BRANCH  27  28
ATOM     28  C   UNL     1       2.510  -2.649   0.000  0.00  0.00    +0.000 C 
BRANCH  28  31
ATOM     29  C   UNL     1       4.078  -2.545   0.000  0.00  0.00    +0.000 C 
ATOM     30  C   UNL     1       3.370  -3.683   0.000  0.00  0.00    +0.000 C 
ATOM     31  N   UNL     1       3.312  -2.858   0.000  0.00  0.00    +0.000 N 
ATOM     32  O   UNL     1       4.276  -1.754   0.000  0.00  0.00    +0.000 OA
ATOM     33  O   UNL     1       2.731  -4.206   0.000  0.00  0.00    +0.000 OA
ATOM     34  C   UNL     1       4.160  -3.881   0.000  0.00  0.00    +0.000 A 
ATOM     35  C   UNL     1       4.601  -3.184   0.000  0.00  0.00    +0.000 A 
ATOM     36  C   UNL     1       4.555  -4.601   0.000  0.00  0.00    +0.000 A 
ATOM     37  C   UNL     1       5.368  -4.636   0.000  0.00  0.00    +0.000 A 
ATOM     38  C   UNL     1       5.810  -3.939   0.000  0.00  0.00    +0.000 A 
ATOM     39  C   UNL     1       5.426  -3.207   0.000  0.00  0.00    +0.000 A 
ENDBRANCH  28  31
ENDBRANCH  27  28
ENDBRANCH  26  27
ENDBRANCH  25  26
ENDBRANCH  24  25
ENDBRANCH  23  24
ENDBRANCH  22  23
ENDBRANCH  21  22
ENDBRANCH  18  21
TORSDOF 10
