REMARK  Name = 
REMARK  12 active torsions:
REMARK  status: ('A' for Active; 'I' for Inactive)
REMARK    1  A    between atoms: C_2  and  O_3
REMARK    2  A    between atoms: O_3  and  C_4
REMARK    3  A    between atoms: C_4  and  C_5
REMARK    4  A    between atoms: C_4  and  C_17
REMARK    5  A    between atoms: C_5  and  O_6
REMARK    6  A    between atoms: O_6  and  C_7
REMARK    7  A    between atoms: C_10  and  C_13
REMARK    8  A    between atoms: C_17  and  S_18
REMARK    9  A    between atoms: S_18  and  C_19
REMARK   10  A    between atoms: C_22  and  O_26
REMARK   11  A    between atoms: O_26  and  C_27
REMARK   12  A    between atoms: C_27  and  C_28
REMARK                            x       y       z     vdW  Elec       q    Type
REMARK                         _______ _______ _______ _____ _____    ______ ____
ROOT
ATOM      1  C   UNL     1       3.572  -3.712   0.000  0.00  0.00    +0.000 C 
ENDROOT
BRANCH   1   2
ATOM      2  C   UNL     1       2.858  -4.125   0.000  0.00  0.00    +0.000 C 
BRANCH   2   3
ATOM      3  O   UNL     1       2.143  -3.712   0.000  0.00  0.00    +0.000 OA
BRANCH   3   4
ATOM      4  C   UNL     1       1.429  -4.125   0.000  0.00  0.00    +0.000 A 
ATOM      5  C   UNL     1       1.429  -4.950   0.000  0.00  0.00    +0.000 A 
ATOM      6  C   UNL     1       0.715  -5.362   0.000  0.00  0.00    +0.000 A 
ATOM      7  C   UNL     1       0.000  -4.950   0.000  0.00  0.00    +0.000 A 
ATOM      8  C   UNL     1       0.000  -4.125   0.000  0.00  0.00    +0.000 A 
ATOM      9  C   UNL     1       0.715  -3.712   0.000  0.00  0.00    +0.000 A 
BRANCH   7  10
ATOM     10  C   UNL     1      -0.715  -5.362   0.000  0.00  0.00    +0.000 C 
ATOM     11  F   UNL     1      -1.429  -5.775   0.000  0.00  0.00    +0.000 F 
ATOM     12  F   UNL     1      -0.302  -6.077   0.000  0.00  0.00    +0.000 F 
ATOM     13  F   UNL     1      -1.127  -4.648   0.000  0.00  0.00    +0.000 F 
ENDBRANCH   7  10
ENDBRANCH   3   4
ENDBRANCH   2   3
ENDBRANCH   1   2
BRANCH   1  14
ATOM     14  C   UNL     1       4.287  -4.125   0.000  0.00  0.00    +0.000 C 
BRANCH  14  15
ATOM     15  S   UNL     1       5.001  -3.712   0.000  0.00  0.00    +0.000 S 
BRANCH  15  16
ATOM     16  C   UNL     1       5.716  -4.125   0.000  0.00  0.00    +0.000 A 
ATOM     17  C   UNL     1       6.430  -3.712   0.000  0.00  0.00    +0.000 A 
ATOM     18  C   UNL     1       7.145  -4.125   0.000  0.00  0.00    +0.000 A 
ATOM     19  C   UNL     1       7.145  -4.950   0.000  0.00  0.00    +0.000 A 
ATOM     20  C   UNL     1       6.430  -5.362   0.000  0.00  0.00    +0.000 A 
ATOM     21  C   UNL     1       5.716  -4.950   0.000  0.00  0.00    +0.000 A 
ATOM     22  C   UNL     1       6.430  -6.188   0.000  0.00  0.00    +0.000 C 
BRANCH  19  23
ATOM     23  O   UNL     1       7.859  -5.362   0.000  0.00  0.00    +0.000 OA
BRANCH  23  24
ATOM     24  C   UNL     1       8.574  -4.950   0.000  0.00  0.00    +0.000 C 
BRANCH  24  25
ATOM     25  C   UNL     1       9.288  -5.362   0.000  0.00  0.00    +0.000 C 
ATOM     26  O   UNL     1      10.003  -4.950   0.000  0.00  0.00    +0.000 OA
ATOM     27  O   UNL     1       9.288  -6.188   0.000  0.00  0.00    +0.000 OA
ENDBRANCH  24  25
ENDBRANCH  23  24
ENDBRANCH  19  23
ENDBRANCH  15  16
ENDBRANCH  14  15
ENDBRANCH   1  14
BRANCH   1  28
ATOM     28  O   UNL     1       3.572  -2.888   0.000  0.00  0.00    +0.000 OA
BRANCH  28  30
ATOM     29  C   UNL     1       2.858  -1.650   0.000  0.00  0.00    +0.000 C 
ATOM     30  C   UNL     1       2.858  -2.475   0.000  0.00  0.00    +0.000 C 
ENDBRANCH  28  30
ENDBRANCH   1  28
TORSDOF 12
