REMARK  Name = 
REMARK  14 active torsions:
REMARK  status: ('A' for Active; 'I' for Inactive)
REMARK    1  A    between atoms: C_5  and  C_7
REMARK    2  A    between atoms: N_9  and  C_10
REMARK    3  A    between atoms: C_10  and  C_11
REMARK    4  A    between atoms: C_10  and  C_14
REMARK    5  A    between atoms: C_11  and  O_12
REMARK    6  A    between atoms: N_16  and  C_17
REMARK    7  A    between atoms: C_17  and  C_18
REMARK    8  A    between atoms: C_17  and  C_21
REMARK    9  A    between atoms: C_18  and  O_19
REMARK   10  A    between atoms: N_23  and  C_24
REMARK   11  A    between atoms: C_24  and  C_25
REMARK   12  A    between atoms: C_24  and  C_32
REMARK   13  A    between atoms: C_25  and  C_26
REMARK   14  A    between atoms: C_32  and  C_34
REMARK                            x       y       z     vdW  Elec       q    Type
REMARK                         _______ _______ _______ _____ _____    ______ ____
ROOT
ATOM      1  C   UNL     1       5.236  -4.264   0.000  0.00  0.00    +0.000 C 
ENDROOT
BRANCH   1   2
ATOM      2  C   UNL     1       5.830  -4.836   0.000  0.00  0.00    +0.000 C 
ATOM      3  O   UNL     1       5.632  -5.636   0.000  0.00  0.00    +0.000 OA
ATOM      4  N   UNL     1       6.623  -4.607   0.000  0.00  0.00    +0.000 NA
BRANCH   4   5
ATOM      5  C   UNL     1       7.217  -5.179   0.000  0.00  0.00    +0.000 C 
BRANCH   5   6
ATOM      6  C   UNL     1       8.010  -4.950   0.000  0.00  0.00    +0.000 C 
ATOM      7  O   UNL     1       8.604  -5.522   0.000  0.00  0.00    +0.000 OA
BRANCH   6   8
ATOM      8  C   UNL     1       8.208  -4.149   0.000  0.00  0.00    +0.000 C 
ATOM      9  C   UNL     1       8.668  -3.464   0.000  0.00  0.00    +0.000 C 
ATOM     10  O   UNL     1       9.031  -4.205   0.000  0.00  0.00    +0.000 OA
ATOM     11  C   UNL     1       7.454  -3.815   0.000  0.00  0.00    +0.000 C 
ENDBRANCH   6   8
ENDBRANCH   5   6
BRANCH   5  12
ATOM     12  C   UNL     1       7.019  -5.980   0.000  0.00  0.00    +0.000 C 
BRANCH  12  13
ATOM     13  C   UNL     1       7.614  -6.552   0.000  0.00  0.00    +0.000 A 
ATOM     14  C   UNL     1       8.406  -6.323   0.000  0.00  0.00    +0.000 A 
ATOM     15  C   UNL     1       9.001  -6.895   0.000  0.00  0.00    +0.000 A 
ATOM     16  C   UNL     1       8.803  -7.696   0.000  0.00  0.00    +0.000 A 
ATOM     17  C   UNL     1       8.010  -7.925   0.000  0.00  0.00    +0.000 A 
ATOM     18  C   UNL     1       7.415  -7.353   0.000  0.00  0.00    +0.000 A 
ENDBRANCH  12  13
ENDBRANCH   5  12
ENDBRANCH   4   5
ENDBRANCH   1   2
BRANCH   1  21
ATOM     19  C   UNL     1       3.849  -3.920   0.000  0.00  0.00    +0.000 C 
ATOM     20  O   UNL     1       4.047  -3.119   0.000  0.00  0.00    +0.000 OA
ATOM     21  N   UNL     1       4.443  -4.492   0.000  0.00  0.00    +0.000 NA
BRANCH  19  22
ATOM     22  C   UNL     1       3.056  -4.149   0.000  0.00  0.00    +0.000 C 
BRANCH  22  25
ATOM     23  C   UNL     1       1.669  -3.806   0.000  0.00  0.00    +0.000 C 
ATOM     24  O   UNL     1       1.471  -4.607   0.000  0.00  0.00    +0.000 OA
ATOM     25  N   UNL     1       2.462  -3.577   0.000  0.00  0.00    +0.000 NA
BRANCH  23  30
ATOM     26  C   UNL     1      -0.944  -2.538   0.000  0.00  0.00    +0.000 C 
ATOM     27  C   UNL     1      -0.126  -2.651   0.000  0.00  0.00    +0.000 A 
ATOM     28  N   UNL     1       0.446  -2.056   0.000  0.00  0.00    +0.000 NA
ATOM     29  C   UNL     1       1.188  -2.417   0.000  0.00  0.00    +0.000 A 
ATOM     30  C   UNL     1       1.075  -3.234   0.000  0.00  0.00    +0.000 A 
ATOM     31  S   UNL     1       0.262  -3.379   0.000  0.00  0.00    +0.000 S 
ENDBRANCH  23  30
ENDBRANCH  22  25
BRANCH  22  32
ATOM     32  C   UNL     1       2.858  -4.950   0.000  0.00  0.00    +0.000 C 
BRANCH  32  33
ATOM     33  O   UNL     1       3.452  -5.522   0.000  0.00  0.00    +0.000 OA
ATOM     34  C   UNL     1       3.254  -6.323   0.000  0.00  0.00    +0.000 C 
ENDBRANCH  32  33
ENDBRANCH  22  32
ENDBRANCH  19  22
ENDBRANCH   1  21
BRANCH   1  35
ATOM     35  C   UNL     1       5.434  -3.463   0.000  0.00  0.00    +0.000 C 
BRANCH  35  36
ATOM     36  O   UNL     1       4.840  -2.891   0.000  0.00  0.00    +0.000 OA
ATOM     37  C   UNL     1       5.038  -2.090   0.000  0.00  0.00    +0.000 C 
ENDBRANCH  35  36
ENDBRANCH   1  35
TORSDOF 14
