REMARK  Name = 
REMARK  8 active torsions:
REMARK  status: ('A' for Active; 'I' for Inactive)
REMARK    1  A    between atoms: C_2  and  C_3
REMARK    2  A    between atoms: C_4  and  N_34
REMARK    3  A    between atoms: C_7  and  C_9
REMARK    4  A    between atoms: N_12  and  C_13
REMARK    5  A    between atoms: C_16  and  N_21
REMARK    6  A    between atoms: C_17  and  O_19
REMARK    7  A    between atoms: C_24  and  N_27
REMARK    8  A    between atoms: N_34  and  C_35
REMARK                            x       y       z     vdW  Elec       q    Type
REMARK                         _______ _______ _______ _____ _____    ______ ____
ROOT
ATOM      1  C   UNL     1       2.858  -4.125   0.000  0.00  0.00    +0.000 A 
ATOM      2  C   UNL     1       3.572  -3.712   0.000  0.00  0.00    +0.000 A 
ATOM      3  C   UNL     1       4.287  -4.125   0.000  0.00  0.00    +0.000 A 
ATOM      4  C   UNL     1       4.287  -4.950   0.000  0.00  0.00    +0.000 A 
ATOM      5  C   UNL     1       3.572  -5.362   0.000  0.00  0.00    +0.000 A 
ATOM      6  C   UNL     1       2.858  -4.950   0.000  0.00  0.00    +0.000 A 
ENDROOT
BRANCH   1  13
ATOM      7  C   UNL     1       2.143  -1.238   0.000  0.00  0.00    +0.000 A 
ATOM      8  C   UNL     1       2.858  -1.650   0.000  0.00  0.00    +0.000 A 
ATOM      9  N   UNL     1       2.858  -2.475   0.000  0.00  0.00    +0.000 NA
ATOM     10  C   UNL     1       2.143  -2.888   0.000  0.00  0.00    +0.000 A 
ATOM     11  C   UNL     1       1.429  -2.475   0.000  0.00  0.00    +0.000 A 
ATOM     12  N   UNL     1       1.429  -1.650   0.000  0.00  0.00    +0.000 NA
ATOM     13  N   UNL     1       2.143  -3.712   0.000  0.00  0.00    +0.000 NA
BRANCH  11  14
ATOM     14  C   UNL     1       0.715  -2.888   0.000  0.00  0.00    +0.000 C 
ATOM     15  O   UNL     1       0.000  -2.475   0.000  0.00  0.00    +0.000 OA
ATOM     16  N   UNL     1       0.715  -3.712   0.000  0.00  0.00    +0.000 NA
ENDBRANCH  11  14
BRANCH   7  18
ATOM     17  C   UNL     1       2.858   0.000   0.000  0.00  0.00    +0.000 C 
ATOM     18  C   UNL     1       2.143  -0.412   0.000  0.00  0.00    +0.000 C 
ENDBRANCH   7  18
BRANCH   8  19
ATOM     19  N   UNL     1       3.572  -1.238   0.000  0.00  0.00    +0.000 NA
BRANCH  19  20
ATOM     20  C   UNL     1       4.287  -1.650   0.000  0.00  0.00    +0.000 C 
ATOM     21  C   UNL     1       5.001  -1.238   0.000  0.00  0.00    +0.000 C 
ATOM     22  C   UNL     1       5.716  -1.650   0.000  0.00  0.00    +0.000 C 
ATOM     23  O   UNL     1       5.716  -2.475   0.000  0.00  0.00    +0.000 OA
ATOM     24  C   UNL     1       5.001  -2.888   0.000  0.00  0.00    +0.000 C 
ATOM     25  C   UNL     1       4.287  -2.475   0.000  0.00  0.00    +0.000 C 
ENDBRANCH  19  20
ENDBRANCH   8  19
ENDBRANCH   1  13
BRANCH   4  26
ATOM     26  N   UNL     1       5.001  -5.362   0.000  0.00  0.00    +0.000 N 
ATOM     27  C   UNL     1       5.716  -4.950   0.000  0.00  0.00    +0.000 C 
ATOM     28  C   UNL     1       6.430  -5.362   0.000  0.00  0.00    +0.000 C 
ATOM     29  C   UNL     1       6.430  -6.188   0.000  0.00  0.00    +0.000 C 
ATOM     30  C   UNL     1       5.716  -6.600   0.000  0.00  0.00    +0.000 C 
ATOM     31  C   UNL     1       5.001  -6.188   0.000  0.00  0.00    +0.000 C 
BRANCH  29  32
ATOM     32  N   UNL     1       7.145  -6.600   0.000  0.00  0.00    +0.000 NA
ATOM     33  C   UNL     1       7.859  -6.188   0.000  0.00  0.00    +0.000 C 
ATOM     34  C   UNL     1       8.574  -6.600   0.000  0.00  0.00    +0.000 C 
ATOM     35  N   UNL     1       8.574  -7.425   0.000  0.00  0.00    +0.000 NA
ATOM     36  C   UNL     1       7.859  -7.838   0.000  0.00  0.00    +0.000 C 
ATOM     37  C   UNL     1       7.145  -7.425   0.000  0.00  0.00    +0.000 C 
ATOM     38  C   UNL     1       9.288  -7.838   0.000  0.00  0.00    +0.000 C 
ENDBRANCH  29  32
ENDBRANCH   4  26
BRANCH   5  39
ATOM     39  O   UNL     1       3.572  -6.188   0.000  0.00  0.00    +0.000 OA
ATOM     40  C   UNL     1       2.858  -6.600   0.000  0.00  0.00    +0.000 C 
ENDBRANCH   5  39
TORSDOF 8
