REMARK  Name = 
REMARK  3 active torsions:
REMARK  status: ('A' for Active; 'I' for Inactive)
REMARK    1  A    between atoms: C_2  and  C_3
REMARK    2  A    between atoms: N_18  and  C_19
REMARK    3  A    between atoms: C_19  and  C_20
REMARK                            x       y       z     vdW  Elec       q    Type
REMARK                         _______ _______ _______ _____ _____    ______ ____
ROOT
ATOM      1  C   UNL     1       0.662   0.557   0.000  0.00  0.00    +0.000 A 
ATOM      2  C   UNL     1      -0.159   0.475   0.000  0.00  0.00    +0.000 A 
ATOM      3  C   UNL     1      -0.707   1.086   0.000  0.00  0.00    +0.000 C 
ATOM      4  C   UNL     1      -0.331  -0.335   0.000  0.00  0.00    +0.000 A 
ATOM      5  C   UNL     1       0.389  -0.749   0.000  0.00  0.00    +0.000 A 
ATOM      6  C   UNL     1       0.389  -1.570   0.000  0.00  0.00    +0.000 A 
ATOM      7  C   UNL     1      -0.331  -1.984   0.000  0.00  0.00    +0.000 A 
ATOM      8  C   UNL     1      -1.045  -1.570   0.000  0.00  0.00    +0.000 A 
ATOM      9  C   UNL     1      -1.045  -0.749   0.000  0.00  0.00    +0.000 A 
ATOM     10  C   UNL     1      -1.758  -0.335   0.000  0.00  0.00    +0.000 A 
ATOM     11 CL   UNL     1      -1.758   0.487   0.000  0.00  0.00    +0.000 Cl
ATOM     12  C   UNL     1      -2.472  -0.749   0.000  0.00  0.00    +0.000 A 
ATOM     13  C   UNL     1      -2.472  -1.570   0.000  0.00  0.00    +0.000 A 
ATOM     14  O   UNL     1      -3.185  -1.984   0.000  0.00  0.00    +0.000 OA
ATOM     15  N   UNL     1      -1.758  -1.984   0.000  0.00  0.00    +0.000 NA
ATOM     16  N   UNL     1       1.000  -0.194   0.000  0.00  0.00    +0.000 N 
ENDROOT
BRANCH   1  18
ATOM     17  C   UNL     1       0.662   1.984   0.000  0.00  0.00    +0.000 C 
ATOM     18  C   UNL     1       1.077   1.271   0.000  0.00  0.00    +0.000 C 
ENDBRANCH   1  18
BRANCH  16  19
ATOM     19  C   UNL     1       1.803  -0.366   0.000  0.00  0.00    +0.000 C 
BRANCH  19  20
ATOM     20  C   UNL     1       2.389   0.213   0.000  0.00  0.00    +0.000 C 
ATOM     21  F   UNL     1       2.969   0.799   0.000  0.00  0.00    +0.000 F 
ATOM     22  F   UNL     1       2.172   1.010   0.000  0.00  0.00    +0.000 F 
ATOM     23  F   UNL     1       3.185   0.003   0.000  0.00  0.00    +0.000 F 
ENDBRANCH  19  20
ENDBRANCH  16  19
TORSDOF 3
