REMARK  Name = 
REMARK  4 active torsions:
REMARK  status: ('A' for Active; 'I' for Inactive)
REMARK    1  A    between atoms: N_7  and  C_16
REMARK    2  A    between atoms: C_16  and  C_17
REMARK    3  A    between atoms: C_17  and  C_18
REMARK    4  A    between atoms: C_18  and  N_19
REMARK                            x       y       z     vdW  Elec       q    Type
REMARK                         _______ _______ _______ _____ _____    ______ ____
ROOT
ATOM      1  C   UNL     1      -2.018  -1.389   0.000  0.00  0.00    +0.000 A 
ATOM      2  C   UNL     1      -1.770  -2.175   0.000  0.00  0.00    +0.000 A 
ATOM      3  C   UNL     1      -0.960  -2.352   0.000  0.00  0.00    +0.000 A 
ATOM      4  C   UNL     1      -1.459  -0.779   0.000  0.00  0.00    +0.000 A 
ATOM      5  C   UNL     1      -0.657  -0.955   0.000  0.00  0.00    +0.000 A 
ATOM      6  C   UNL     1      -0.404  -1.744   0.000  0.00  0.00    +0.000 A 
ATOM      7  N   UNL     1       0.016  -0.478   0.000  0.00  0.00    +0.000 N 
ATOM      8  C   UNL     1       0.679  -0.971   0.000  0.00  0.00    +0.000 A 
ATOM      9  C   UNL     1       0.418  -1.749   0.000  0.00  0.00    +0.000 A 
ATOM     10  C   UNL     1       0.969  -2.364   0.000  0.00  0.00    +0.000 A 
ATOM     11  C   UNL     1       1.779  -2.203   0.000  0.00  0.00    +0.000 A 
ATOM     12  C   UNL     1       2.040  -1.422   0.000  0.00  0.00    +0.000 A 
ATOM     13  C   UNL     1       1.488  -0.807   0.000  0.00  0.00    +0.000 A 
ATOM     14 BR   UNL     1      -2.329  -2.793   0.000  0.00  0.00    +0.000 Br
ATOM     15 BR   UNL     1       2.329  -2.818   0.000  0.00  0.00    +0.000 Br
ENDROOT
BRANCH   7  16
ATOM     16  C   UNL     1       0.020   0.350   0.000  0.00  0.00    +0.000 C 
BRANCH  16  17
ATOM     17  C   UNL     1       0.737   0.761   0.000  0.00  0.00    +0.000 C 
ATOM     18  O   UNL     1       1.448   0.343   0.000  0.00  0.00    +0.000 OA
BRANCH  17  19
ATOM     19  C   UNL     1       0.743   1.585   0.000  0.00  0.00    +0.000 C 
BRANCH  19  20
ATOM     20  N   UNL     1       1.455   1.994   0.000  0.00  0.00    +0.000 NA
ATOM     21  C   UNL     1       1.461   2.818   0.000  0.00  0.00    +0.000 C 
ATOM     22  C   UNL     1       2.171   1.578   0.000  0.00  0.00    +0.000 C 
ENDBRANCH  19  20
ENDBRANCH  17  19
ENDBRANCH  16  17
ENDBRANCH   7  16
TORSDOF 4
