REMARK  Name = 
REMARK  2 active torsions:
REMARK  status: ('A' for Active; 'I' for Inactive)
REMARK    1  A    between atoms: C_1  and  C_2
REMARK    2  A    between atoms: C_1  and  C_11
REMARK                            x       y       z     vdW  Elec       q    Type
REMARK                         _______ _______ _______ _____ _____    ______ ____
ROOT
ATOM      1  C   UNL     1       0.884  -2.150   0.000  0.00  0.00    +0.000 C 
ENDROOT
BRANCH   1   2
ATOM      2  C   UNL     1       0.077  -2.321   0.000  0.00  0.00    +0.000 A 
ATOM      3  C   UNL     1      -0.259  -3.075   0.000  0.00  0.00    +0.000 A 
ATOM      4  N   UNL     1      -1.079  -2.989   0.000  0.00  0.00    +0.000 NA
ATOM      5  C   UNL     1      -1.251  -2.182   0.000  0.00  0.00    +0.000 A 
ATOM      6  C   UNL     1      -1.965  -1.770   0.000  0.00  0.00    +0.000 A 
ATOM      7  C   UNL     1      -1.965  -0.945   0.000  0.00  0.00    +0.000 A 
ATOM      8  C   UNL     1      -1.251  -0.532   0.000  0.00  0.00    +0.000 A 
ATOM      9  C   UNL     1      -0.536  -0.945   0.000  0.00  0.00    +0.000 A 
ATOM     10  C   UNL     1      -0.536  -1.770   0.000  0.00  0.00    +0.000 A 
ENDBRANCH   1   2
BRANCH   1  11
ATOM     11  C   UNL     1       1.139  -1.365   0.000  0.00  0.00    +0.000 A 
ATOM     12  C   UNL     1       0.654  -0.698   0.000  0.00  0.00    +0.000 A 
ATOM     13  N   UNL     1       1.139  -0.030   0.000  0.00  0.00    +0.000 NA
ATOM     14  C   UNL     1       1.923  -0.285   0.000  0.00  0.00    +0.000 A 
ATOM     15  C   UNL     1       2.638   0.127   0.000  0.00  0.00    +0.000 A 
ATOM     16  C   UNL     1       3.352  -0.285   0.000  0.00  0.00    +0.000 A 
ATOM     17  C   UNL     1       3.352  -1.110   0.000  0.00  0.00    +0.000 A 
ATOM     18  C   UNL     1       2.638  -1.523   0.000  0.00  0.00    +0.000 A 
ATOM     19  C   UNL     1       1.923  -1.110   0.000  0.00  0.00    +0.000 A 
ENDBRANCH   1  11
TORSDOF 2
