REMARK  Name = 
REMARK  8 active torsions:
REMARK  status: ('A' for Active; 'I' for Inactive)
REMARK    1  A    between atoms: O_2  and  C_13
REMARK    2  A    between atoms: O_2  and  B_23
REMARK    3  A    between atoms: N_8  and  C_10
REMARK    4  A    between atoms: C_10  and  C_11
REMARK    5  A    between atoms: C_10  and  B_23
REMARK    6  A    between atoms: C_11  and  C_12
REMARK    7  A    between atoms: C_13  and  C_14
REMARK    8  A    between atoms: C_14  and  C_22
REMARK                            x       y       z     vdW  Elec       q    Type
REMARK                         _______ _______ _______ _____ _____    ______ ____
ROOT
ATOM      1  C   UNK     1      -0.221  -0.334   0.000  0.00  0.00    +0.000 C 
ENDROOT
BRANCH   1   3
ATOM      2  O   UNK     1       1.207   0.491   0.000  0.00  0.00    +0.000 OA
ATOM      3  N   UNK     1       0.493  -0.747   0.000  0.00  0.00    +0.000 NA
ATOM      4  C   UNK     1       1.207  -0.334   0.000  0.00  0.00    +0.000 C 
ATOM      5  C   UNK     1       1.922  -0.747   0.000  0.00  0.00    +0.000 C 
ENDBRANCH   1   3
BRANCH   1   8
ATOM      6  O   UNK     1       0.604   0.491   0.000  0.00  0.00    +0.000 OA
ATOM      7  O   UNK     1      -1.046   0.491   0.000  0.00  0.00    +0.000 OA
ATOM      8  B   UNK     1      -0.221   0.491   0.000  0.00  0.00    +0.000 B 
BRANCH   8   9
ATOM      9  O   UNK     1      -0.221   1.316   0.000  0.00  0.00    +0.000 OA
BRANCH   9  10
ATOM     10  C   UNK     1      -0.936   1.728   0.000  0.00  0.00    +0.000 C 
BRANCH  10  12
ATOM     11  N   UNK     1      -0.221   2.966   0.000  0.00  0.00    +0.000 NA
ATOM     12  C   UNK     1      -0.936   2.553   0.000  0.00  0.00    +0.000 C 
BRANCH  12  15
ATOM     13  O   UNK     1      -1.650   3.791   0.000  0.00  0.00    +0.000 OA
ATOM     14  O   UNK     1      -2.365   2.553   0.000  0.00  0.00    +0.000 OA
ATOM     15  C   UNK     1      -1.650   2.966   0.000  0.00  0.00    +0.000 C 
ENDBRANCH  12  15
ENDBRANCH  10  12
ENDBRANCH   9  10
ENDBRANCH   8   9
ENDBRANCH   1   8
BRANCH   1  16
ATOM     16  C   UNK     1      -0.936  -0.747   0.000  0.00  0.00    +0.000 C 
BRANCH  16  18
ATOM     17 CL   UNK     1      -0.936  -4.047   0.000  0.00  0.00    +0.000 Cl
ATOM     18  C   UNK     1      -0.936  -1.572   0.000  0.00  0.00    +0.000 A 
ATOM     19  C   UNK     1      -0.221  -1.984   0.000  0.00  0.00    +0.000 A 
ATOM     20  C   UNK     1      -1.650  -1.984   0.000  0.00  0.00    +0.000 A 
ATOM     21  C   UNK     1      -0.221  -2.809   0.000  0.00  0.00    +0.000 A 
ATOM     22  C   UNK     1      -1.650  -2.809   0.000  0.00  0.00    +0.000 A 
ATOM     23  C   UNK     1      -0.936  -3.222   0.000  0.00  0.00    +0.000 A 
ENDBRANCH  16  18
ENDBRANCH   1  16
TORSDOF 8
