REMARK  Name = 
REMARK  6 active torsions:
REMARK  status: ('A' for Active; 'I' for Inactive)
REMARK    1  A    between atoms: O_2  and  C_3
REMARK    2  A    between atoms: C_3  and  C_5
REMARK    3  A    between atoms: C_6  and  C_16
REMARK    4  A    between atoms: C_12  and  O_13
REMARK    5  A    between atoms: C_17  and  C_18
REMARK    6  A    between atoms: C_21  and  O_22
REMARK                            x       y       z     vdW  Elec       q    Type
REMARK                         _______ _______ _______ _____ _____    ______ ____
ROOT
ATOM      1  C   UNL     1       3.993   2.475   0.000  0.00  0.00    +0.000 A 
ATOM      2  C   UNL     1       3.279   2.062   0.000  0.00  0.00    +0.000 A 
ATOM      3  C   UNL     1       2.564   2.475   0.000  0.00  0.00    +0.000 A 
ATOM      4  C   UNL     1       2.564   3.300   0.000  0.00  0.00    +0.000 A 
ATOM      5  O   UNL     1       1.780   3.555   0.000  0.00  0.00    +0.000 OA
ATOM      6  C   UNL     1       1.295   2.888   0.000  0.00  0.00    +0.000 C 
ATOM      7  O   UNL     1       1.780   2.220   0.000  0.00  0.00    +0.000 OA
ATOM      8  C   UNL     1       3.279   3.712   0.000  0.00  0.00    +0.000 A 
ATOM      9  C   UNL     1       3.993   3.300   0.000  0.00  0.00    +0.000 A 
ENDROOT
BRANCH   2  10
ATOM     10  C   UNL     1       3.279   1.238   0.000  0.00  0.00    +0.000 A 
ATOM     11  C   UNL     1       3.993   0.825   0.000  0.00  0.00    +0.000 A 
ATOM     12  C   UNL     1       3.993   0.000   0.000  0.00  0.00    +0.000 A 
ATOM     13  C   UNL     1       3.279  -0.412   0.000  0.00  0.00    +0.000 A 
ATOM     14  C   UNL     1       2.564   0.000   0.000  0.00  0.00    +0.000 A 
ATOM     15  C   UNL     1       2.564   0.825   0.000  0.00  0.00    +0.000 A 
ATOM     16  O   UNL     1       1.780   1.080   0.000  0.00  0.00    +0.000 OA
ATOM     17  C   UNL     1       1.295   0.412   0.000  0.00  0.00    +0.000 C 
ATOM     18  O   UNL     1       1.780  -0.255   0.000  0.00  0.00    +0.000 OA
BRANCH  11  19
ATOM     19  C   UNL     1       4.708   1.238   0.000  0.00  0.00    +0.000 C 
ATOM     20  O   UNL     1       5.422   0.825   0.000  0.00  0.00    +0.000 OA
ENDBRANCH  11  19
BRANCH  13  21
ATOM     21  O   UNL     1       3.279  -1.238   0.000  0.00  0.00    +0.000 OA
ATOM     22  C   UNL     1       3.993  -1.650   0.000  0.00  0.00    +0.000 C 
ENDBRANCH  13  21
ENDBRANCH   2  10
BRANCH   1  23
ATOM     23  C   UNL     1       4.708   2.062   0.000  0.00  0.00    +0.000 C 
ATOM     24  O   UNL     1       5.193   1.395   0.000  0.00  0.00    +0.000 OA
BRANCH  23  26
ATOM     25  C   UNL     1       6.137   2.062   0.000  0.00  0.00    +0.000 C 
ATOM     26  O   UNL     1       5.422   2.475   0.000  0.00  0.00    +0.000 OA
ENDBRANCH  23  26
ENDBRANCH   1  23
BRANCH   8  27
ATOM     27  O   UNL     1       3.279   4.537   0.000  0.00  0.00    +0.000 OA
ATOM     28  C   UNL     1       3.993   4.950   0.000  0.00  0.00    +0.000 C 
ENDBRANCH   8  27
TORSDOF 6
