REMARK  Name = 
REMARK  5 active torsions:
REMARK  status: ('A' for Active; 'I' for Inactive)
REMARK    1  A    between atoms: N_4  and  C_25
REMARK    2  A    between atoms: N_8  and  N_9
REMARK    3  A    between atoms: N_9  and  C_10
REMARK    4  A    between atoms: C_13  and  C_17
REMARK    5  A    between atoms: C_20  and  C_22
REMARK                            x       y       z     vdW  Elec       q    Type
REMARK                         _______ _______ _______ _____ _____    ______ ____
ROOT
ATOM      1  C   UNL     1      -2.126  -1.841   0.000  0.00  0.00    +0.000 C 
ATOM      2  C   UNL     1      -1.306  -1.927   0.000  0.00  0.00    +0.000 C 
ATOM      3  N   UNL     1      -0.754  -1.314   0.000  0.00  0.00    +0.000 NA
ATOM      4  N   UNL     1       0.000  -1.650   0.000  0.00  0.00    +0.000 N 
ATOM      5  C   UNL     1      -0.086  -2.470   0.000  0.00  0.00    +0.000 C 
ATOM      6  O   UNL     1       0.527  -3.022   0.000  0.00  0.00    +0.000 OA
ATOM      7  C   UNL     1      -0.893  -2.642   0.000  0.00  0.00    +0.000 C 
ATOM      8  N   UNL     1      -1.229  -3.396   0.000  0.00  0.00    +0.000 NA
ENDROOT
BRANCH   4   9
ATOM      9  C   UNL     1       0.715  -1.238   0.000  0.00  0.00    +0.000 A 
ATOM     10  C   UNL     1       0.715  -0.412   0.000  0.00  0.00    +0.000 A 
ATOM     11  C   UNL     1       1.429   0.000   0.000  0.00  0.00    +0.000 A 
ATOM     12  C   UNL     1       2.143  -0.412   0.000  0.00  0.00    +0.000 A 
ATOM     13  C   UNL     1       2.858   0.000   0.000  0.00  0.00    +0.000 C 
ATOM     14  C   UNL     1       3.572  -0.412   0.000  0.00  0.00    +0.000 C 
ATOM     15  C   UNL     1       3.572  -1.238   0.000  0.00  0.00    +0.000 C 
ATOM     16  C   UNL     1       2.858  -1.650   0.000  0.00  0.00    +0.000 C 
ATOM     17  C   UNL     1       2.143  -1.238   0.000  0.00  0.00    +0.000 A 
ATOM     18  C   UNL     1       1.429  -1.650   0.000  0.00  0.00    +0.000 A 
ENDBRANCH   4   9
BRANCH   8  19
ATOM     19  N   UNL     1      -0.744  -4.063   0.000  0.00  0.00    +0.000 NA
BRANCH  19  20
ATOM     20  C   UNL     1      -1.079  -4.817   0.000  0.00  0.00    +0.000 A 
ATOM     21  C   UNL     1      -0.595  -5.484   0.000  0.00  0.00    +0.000 A 
ATOM     22  O   UNL     1       0.226  -5.398   0.000  0.00  0.00    +0.000 OA
ATOM     23  C   UNL     1      -0.930  -6.238   0.000  0.00  0.00    +0.000 A 
ATOM     24  C   UNL     1      -1.750  -6.324   0.000  0.00  0.00    +0.000 A 
ATOM     25  C   UNL     1      -2.235  -5.657   0.000  0.00  0.00    +0.000 A 
ATOM     26  C   UNL     1      -1.900  -4.903   0.000  0.00  0.00    +0.000 A 
BRANCH  23  27
ATOM     27  C   UNL     1      -0.445  -6.905   0.000  0.00  0.00    +0.000 A 
ATOM     28  C   UNL     1       0.380  -6.905   0.000  0.00  0.00    +0.000 A 
ATOM     29  C   UNL     1       0.635  -7.690   0.000  0.00  0.00    +0.000 A 
ATOM     30  C   UNL     1      -0.033  -8.175   0.000  0.00  0.00    +0.000 A 
ATOM     31  O   UNL     1      -0.700  -7.690   0.000  0.00  0.00    +0.000 OA
BRANCH  30  32
ATOM     32  C   UNL     1      -0.033  -9.000   0.000  0.00  0.00    +0.000 C 
ATOM     33  O   UNL     1       0.682  -9.412   0.000  0.00  0.00    +0.000 OA
ATOM     34  O   UNL     1      -0.747  -9.412   0.000  0.00  0.00    +0.000 OA
ENDBRANCH  30  32
ENDBRANCH  23  27
ENDBRANCH  19  20
ENDBRANCH   8  19
TORSDOF 5
