REMARK  Name = 
REMARK  4 active torsions:
REMARK  status: ('A' for Active; 'I' for Inactive)
REMARK    1  A    between atoms: C_7  and  C_8
REMARK    2  A    between atoms: C_8  and  C_9
REMARK    3  A    between atoms: C_9  and  C_10
REMARK    4  A    between atoms: C_10  and  C_13
REMARK                            x       y       z     vdW  Elec       q    Type
REMARK                         _______ _______ _______ _____ _____    ______ ____
ROOT
ATOM      1  C   UNL     1       0.715   2.062   0.000  0.00  0.00    +0.000 C 
ATOM      2  C   UNL     1       0.715   1.238   0.000  0.00  0.00    +0.000 C 
ATOM      3  C   UNL     1       1.429   0.825   0.000  0.00  0.00    +0.000 C 
ATOM      4  C   UNL     1       2.143   1.238   0.000  0.00  0.00    +0.000 C 
ATOM      5  C   UNL     1       1.429   0.000   0.000  0.00  0.00    +0.000 C 
ATOM      6  O   UNL     1       2.143  -0.412   0.000  0.00  0.00    +0.000 OA
ATOM      7  C   UNL     1       0.715  -0.412   0.000  0.00  0.00    +0.000 C 
ATOM      8  C   UNL     1       0.000   0.000   0.000  0.00  0.00    +0.000 C 
ATOM      9  C   UNL     1      -0.715  -0.412   0.000  0.00  0.00    +0.000 C 
ATOM     10  C   UNL     1       0.000   0.825   0.000  0.00  0.00    +0.000 C 
ATOM     11  O   UNL     1      -0.715   1.238   0.000  0.00  0.00    +0.000 OA
ENDROOT
BRANCH   7  12
ATOM     12  C   UNL     1       0.715  -1.238   0.000  0.00  0.00    +0.000 C 
BRANCH  12  13
ATOM     13  C   UNL     1       1.429  -1.650   0.000  0.00  0.00    +0.000 C 
BRANCH  13  14
ATOM     14  C   UNL     1       1.429  -2.475   0.000  0.00  0.00    +0.000 C 
ATOM     15  C   UNL     1       0.604  -2.475   0.000  0.00  0.00    +0.000 C 
ATOM     16  O   UNL     1       2.254  -2.475   0.000  0.00  0.00    +0.000 OA
BRANCH  14  17
ATOM     17  C   UNL     1       1.429  -3.300   0.000  0.00  0.00    +0.000 C 
ATOM     18  N   UNL     1       2.143  -3.712   0.000  0.00  0.00    +0.000 NA
ATOM     19  O   UNL     1       0.715  -3.712   0.000  0.00  0.00    +0.000 OA
ENDBRANCH  14  17
ENDBRANCH  13  14
ENDBRANCH  12  13
ENDBRANCH   7  12
TORSDOF 4
