REMARK  Name = 
REMARK  5 active torsions:
REMARK  status: ('A' for Active; 'I' for Inactive)
REMARK    1  A    between atoms: O_1  and  C_2
REMARK    2  A    between atoms: O_1  and  P_12
REMARK    3  A    between atoms: C_2  and  C_4
REMARK    4  A    between atoms: C_3  and  C_4
REMARK    5  A    between atoms: C_3  and  C_5
REMARK                            x       y       z     vdW  Elec       q    Type
REMARK                         _______ _______ _______ _____ _____    ______ ____
ROOT
ATOM      1  C   UNL     1      -0.357  -0.206   0.000  0.00  0.00    +0.000 C 
ENDROOT
BRANCH   1   2
ATOM      2  C   UNL     1       0.357   0.206   0.000  0.00  0.00    +0.000 C 
ATOM      3  O   UNL     1       0.357   1.031   0.000  0.00  0.00    +0.000 OA
BRANCH   2   4
ATOM      4  C   UNL     1       1.072  -0.206   0.000  0.00  0.00    +0.000 C 
ATOM      5  O   UNL     1       1.072  -1.031   0.000  0.00  0.00    +0.000 OA
BRANCH   4   6
ATOM      6  C   UNL     1       1.786   0.206   0.000  0.00  0.00    +0.000 C 
ATOM      7  O   UNL     1       1.786   1.031   0.000  0.00  0.00    +0.000 OA
ENDBRANCH   4   6
ENDBRANCH   2   4
ENDBRANCH   1   2
BRANCH   1   8
ATOM      8  O   UNL     1      -1.072   0.206   0.000  0.00  0.00    +0.000 OA
BRANCH   8  11
ATOM      9  O   UNL     1      -1.786  -1.031   0.000  0.00  0.00    +0.000 OA
ATOM     10  O   UNL     1      -2.501   0.206   0.000  0.00  0.00    +0.000 OA
ATOM     11  P   UNL     1      -1.786  -0.206   0.000  0.00  0.00    +0.000 P 
ATOM     12  O   UNL     1      -1.786   0.619   0.000  0.00  0.00    +0.000 OA
ENDBRANCH   8  11
ENDBRANCH   1   8
TORSDOF 5
