REMARK  Name = 
REMARK  9 active torsions:
REMARK  status: ('A' for Active; 'I' for Inactive)
REMARK    1  A    between atoms: C_2  and  C_3
REMARK    2  A    between atoms: N_5  and  S_6
REMARK    3  A    between atoms: S_6  and  C_9
REMARK    4  A    between atoms: C_13  and  N_14
REMARK    5  A    between atoms: C_15  and  C_17
REMARK    6  A    between atoms: C_17  and  C_18
REMARK    7  A    between atoms: C_23  and  O_24
REMARK    8  A    between atoms: O_24  and  C_25
REMARK    9  A    between atoms: C_27  and  C_32
REMARK                            x       y       z     vdW  Elec       q    Type
REMARK                         _______ _______ _______ _____ _____    ______ ____
ROOT
ATOM      1  C   UNL     1       7.145  -4.950   0.000  0.00  0.00    +0.000 C 
ENDROOT
BRANCH   1   2
ATOM      2  C   UNL     1       7.859  -5.362   0.000  0.00  0.00    +0.000 A 
ATOM      3  C   UNL     1       8.574  -4.950   0.000  0.00  0.00    +0.000 A 
ATOM      4  C   UNL     1       9.288  -5.362   0.000  0.00  0.00    +0.000 A 
ATOM      5  C   UNL     1       9.288  -6.188   0.000  0.00  0.00    +0.000 A 
ATOM      6 BR   UNL     1      10.003  -6.600   0.000  0.00  0.00    +0.000 Br
ATOM      7  C   UNL     1       8.574  -6.600   0.000  0.00  0.00    +0.000 A 
ATOM      8  C   UNL     1       7.859  -6.188   0.000  0.00  0.00    +0.000 A 
ATOM      9  F   UNL     1       7.145  -6.600   0.000  0.00  0.00    +0.000 F 
BRANCH   7  10
ATOM     10  O   UNL     1       8.574  -7.425   0.000  0.00  0.00    +0.000 OA
BRANCH  10  11
ATOM     11  C   UNL     1       7.859  -7.838   0.000  0.00  0.00    +0.000 A 
ATOM     12  C   UNL     1       7.859  -8.662   0.000  0.00  0.00    +0.000 A 
ATOM     13  C   UNL     1       7.145  -9.075   0.000  0.00  0.00    +0.000 A 
ATOM     14  C   UNL     1       6.430  -8.662   0.000  0.00  0.00    +0.000 A 
ATOM     15  C   UNL     1       6.430  -7.838   0.000  0.00  0.00    +0.000 A 
ATOM     16 CL   UNL     1       5.716  -7.425   0.000  0.00  0.00    +0.000 Cl
ATOM     17  C   UNL     1       7.145  -7.425   0.000  0.00  0.00    +0.000 A 
BRANCH  13  18
ATOM     18  C   UNL     1       7.145  -9.900   0.000  0.00  0.00    +0.000 C 
ATOM     19  N   UNL     1       7.145 -10.725   0.000  0.00  0.00    +0.000 NA
ENDBRANCH  13  18
ENDBRANCH  10  11
ENDBRANCH   7  10
ENDBRANCH   1   2
BRANCH   1  21
ATOM     20  N   UNL     1       6.430  -3.712   0.000  0.00  0.00    +0.000 NA
ATOM     21  C   UNL     1       7.145  -4.125   0.000  0.00  0.00    +0.000 C 
ATOM     22  O   UNL     1       7.859  -3.712   0.000  0.00  0.00    +0.000 OA
BRANCH  20  27
ATOM     23  C   UNL     1       6.430  -1.238   0.000  0.00  0.00    +0.000 A 
ATOM     24  C   UNL     1       7.145  -1.650   0.000  0.00  0.00    +0.000 A 
ATOM     25  C   UNL     1       7.145  -2.475   0.000  0.00  0.00    +0.000 A 
ATOM     26 CL   UNL     1       7.859  -2.888   0.000  0.00  0.00    +0.000 Cl
ATOM     27  C   UNL     1       6.430  -2.888   0.000  0.00  0.00    +0.000 A 
ATOM     28  C   UNL     1       5.716  -2.475   0.000  0.00  0.00    +0.000 A 
ATOM     29  C   UNL     1       5.716  -1.650   0.000  0.00  0.00    +0.000 A 
BRANCH  23  30
ATOM     30  S   UNL     1       6.430  -0.412   0.000  0.00  0.00    +0.000 S 
ATOM     31  O   UNL     1       5.605  -0.412   0.000  0.00  0.00    +0.000 OA
ATOM     32  O   UNL     1       7.255  -0.412   0.000  0.00  0.00    +0.000 OA
BRANCH  30  35
ATOM     33  C   UNL     1       5.716   0.825   0.000  0.00  0.00    +0.000 C 
ATOM     34  O   UNL     1       5.001   0.412   0.000  0.00  0.00    +0.000 OA
ATOM     35  N   UNL     1       6.430   0.412   0.000  0.00  0.00    +0.000 NA
BRANCH  33  37
ATOM     36  C   UNL     1       5.001   2.062   0.000  0.00  0.00    +0.000 C 
ATOM     37  C   UNL     1       5.716   1.650   0.000  0.00  0.00    +0.000 C 
ENDBRANCH  33  37
ENDBRANCH  30  35
ENDBRANCH  23  30
ENDBRANCH  20  27
ENDBRANCH   1  21
TORSDOF 9
