REMARK  Name = 
REMARK  40 active torsions:
REMARK  status: ('A' for Active; 'I' for Inactive)
REMARK    1  A    between atoms: C_1  and  C_2
REMARK    2  A    between atoms: C_1  and  C_4
REMARK    3  A    between atoms: C_1  and  O_16
REMARK    4  A    between atoms: C_2  and  O_3
REMARK    5  A    between atoms: O_3  and  C_19
REMARK    6  A    between atoms: C_4  and  O_5
REMARK    7  A    between atoms: O_5  and  P_10
REMARK    8  A    between atoms: O_6  and  C_7
REMARK    9  A    between atoms: O_6  and  P_10
REMARK   10  A    between atoms: C_7  and  C_8
REMARK   11  A    between atoms: C_8  and  N_9
REMARK   12  A    between atoms: O_16  and  C_38
REMARK   13  A    between atoms: C_17  and  C_18
REMARK   14  A    between atoms: C_18  and  C_25
REMARK   15  A    between atoms: C_19  and  C_20
REMARK   16  A    between atoms: C_20  and  C_21
REMARK   17  A    between atoms: C_21  and  C_22
REMARK   18  A    between atoms: C_22  and  C_23
REMARK   19  A    between atoms: C_23  and  C_24
REMARK   20  A    between atoms: C_24  and  C_25
REMARK   21  A    between atoms: C_27  and  C_28
REMARK   22  A    between atoms: C_28  and  C_29
REMARK   23  A    between atoms: C_30  and  C_31
REMARK   24  A    between atoms: C_31  and  C_32
REMARK   25  A    between atoms: C_32  and  C_33
REMARK   26  A    between atoms: C_33  and  C_34
REMARK   27  A    between atoms: C_36  and  C_37
REMARK   28  A    between atoms: C_37  and  C_44
REMARK   29  A    between atoms: C_38  and  C_39
REMARK   30  A    between atoms: C_39  and  C_40
REMARK   31  A    between atoms: C_40  and  C_41
REMARK   32  A    between atoms: C_41  and  C_42
REMARK   33  A    between atoms: C_42  and  C_43
REMARK   34  A    between atoms: C_43  and  C_44
REMARK   35  A    between atoms: C_46  and  C_47
REMARK   36  A    between atoms: C_47  and  C_48
REMARK   37  A    between atoms: C_49  and  C_50
REMARK   38  A    between atoms: C_50  and  C_51
REMARK   39  A    between atoms: C_51  and  C_52
REMARK   40  A    between atoms: C_52  and  C_53
REMARK                            x       y       z     vdW  Elec       q    Type
REMARK                         _______ _______ _______ _____ _____    ______ ____
ROOT
ATOM      1  C   UNL     1       0.714   0.412   0.000  0.00  0.00    +0.000 C 
ENDROOT
BRANCH   1   2
ATOM      2  O   UNL     1       0.715  -0.412   0.000  0.00  0.00    +0.000 OA
BRANCH   2   3
ATOM      3  C   UNL     1       1.429  -0.825   0.000  0.00  0.00    +0.000 C 
ATOM      4  O   UNL     1       1.429  -1.650   0.000  0.00  0.00    +0.000 OA
BRANCH   3   5
ATOM      5  C   UNL     1       2.143  -0.412   0.000  0.00  0.00    +0.000 C 
BRANCH   5   6
ATOM      6  C   UNL     1       2.858  -0.825   0.000  0.00  0.00    +0.000 C 
BRANCH   6   7
ATOM      7  C   UNL     1       3.573  -0.412   0.000  0.00  0.00    +0.000 C 
BRANCH   7   8
ATOM      8  C   UNL     1       4.287  -0.825   0.000  0.00  0.00    +0.000 C 
BRANCH   8   9
ATOM      9  C   UNL     1       5.002  -0.412   0.000  0.00  0.00    +0.000 C 
BRANCH   9  10
ATOM     10  C   UNL     1       5.716  -0.825   0.000  0.00  0.00    +0.000 C 
BRANCH  10  11
ATOM     11  C   UNL     1       6.431  -0.412   0.000  0.00  0.00    +0.000 C 
BRANCH  11  12
ATOM     12  C   UNL     1       7.145  -0.825   0.000  0.00  0.00    +0.000 C 
ATOM     13  C   UNL     1       7.145  -1.650   0.000  0.00  0.00    +0.000 C 
BRANCH  13  14
ATOM     14  C   UNL     1       6.431  -2.062   0.000  0.00  0.00    +0.000 C 
BRANCH  14  15
ATOM     15  C   UNL     1       6.431  -2.888   0.000  0.00  0.00    +0.000 C 
ATOM     16  C   UNL     1       5.716  -3.300   0.000  0.00  0.00    +0.000 C 
BRANCH  16  17
ATOM     17  C   UNL     1       5.002  -2.888   0.000  0.00  0.00    +0.000 C 
BRANCH  17  18
ATOM     18  C   UNL     1       4.287  -3.300   0.000  0.00  0.00    +0.000 C 
BRANCH  18  19
ATOM     19  C   UNL     1       3.573  -2.888   0.000  0.00  0.00    +0.000 C 
BRANCH  19  20
ATOM     20  C   UNL     1       2.858  -3.300   0.000  0.00  0.00    +0.000 C 
ATOM     21  C   UNL     1       2.144  -2.888   0.000  0.00  0.00    +0.000 C 
ENDBRANCH  19  20
ENDBRANCH  18  19
ENDBRANCH  17  18
ENDBRANCH  16  17
ENDBRANCH  14  15
ENDBRANCH  13  14
ENDBRANCH  11  12
ENDBRANCH  10  11
ENDBRANCH   9  10
ENDBRANCH   8   9
ENDBRANCH   7   8
ENDBRANCH   6   7
ENDBRANCH   5   6
ENDBRANCH   3   5
ENDBRANCH   2   3
ENDBRANCH   1   2
BRANCH   1  22
ATOM     22  C   UNL     1       1.428   0.825   0.000  0.00  0.00    +0.000 C 
BRANCH  22  23
ATOM     23  O   UNL     1       2.143   0.412   0.000  0.00  0.00    +0.000 OA
BRANCH  23  24
ATOM     24  P   UNL     1       2.857   0.825   0.000  0.00  0.00    +0.000 P 
ATOM     25  O   UNL     1       2.857   1.650   0.000  0.00  0.00    +0.000 OA
ATOM     26  O   UNL     1       3.070   0.028   0.000  0.00  0.00    +0.000 OA
BRANCH  24  27
ATOM     27  O   UNL     1       3.571   0.413   0.000  0.00  0.00    +0.000 OA
BRANCH  27  28
ATOM     28  C   UNL     1       4.286   0.825   0.000  0.00  0.00    +0.000 C 
BRANCH  28  29
ATOM     29  C   UNL     1       5.000   0.413   0.000  0.00  0.00    +0.000 C 
BRANCH  29  30
ATOM     30  N   UNL     1       5.715   0.825   0.000  0.00  0.00    +0.000 N 
ATOM     31  C   UNL     1       5.715   1.650   0.000  0.00  0.00    +0.000 C 
ATOM     32  C   UNL     1       6.430   1.238   0.000  0.00  0.00    +0.000 C 
ATOM     33  C   UNL     1       6.430   0.413   0.000  0.00  0.00    +0.000 C 
ENDBRANCH  29  30
ENDBRANCH  28  29
ENDBRANCH  27  28
ENDBRANCH  24  27
ENDBRANCH  23  24
ENDBRANCH  22  23
ENDBRANCH   1  22
BRANCH   1  34
ATOM     34  C   UNL     1      -0.000   0.824   0.000  0.00  0.00    +0.000 C 
BRANCH  34  35
ATOM     35  O   UNL     1      -0.715   0.412   0.000  0.00  0.00    +0.000 OA
BRANCH  35  36
ATOM     36  C   UNL     1      -1.429   0.825   0.000  0.00  0.00    +0.000 C 
ATOM     37  O   UNL     1      -1.429   1.650   0.000  0.00  0.00    +0.000 OA
BRANCH  36  38
ATOM     38  C   UNL     1      -2.143   0.412   0.000  0.00  0.00    +0.000 C 
BRANCH  38  39
ATOM     39  C   UNL     1      -2.858   0.825   0.000  0.00  0.00    +0.000 C 
BRANCH  39  40
ATOM     40  C   UNL     1      -3.573   0.412   0.000  0.00  0.00    +0.000 C 
BRANCH  40  41
ATOM     41  C   UNL     1      -4.287   0.825   0.000  0.00  0.00    +0.000 C 
BRANCH  41  42
ATOM     42  C   UNL     1      -5.002   0.412   0.000  0.00  0.00    +0.000 C 
BRANCH  42  43
ATOM     43  C   UNL     1      -5.716   0.825   0.000  0.00  0.00    +0.000 C 
BRANCH  43  44
ATOM     44  C   UNL     1      -6.431   0.412   0.000  0.00  0.00    +0.000 C 
BRANCH  44  45
ATOM     45  C   UNL     1      -7.145   0.825   0.000  0.00  0.00    +0.000 C 
ATOM     46  C   UNL     1      -7.145   1.650   0.000  0.00  0.00    +0.000 C 
BRANCH  46  47
ATOM     47  C   UNL     1      -6.431   2.063   0.000  0.00  0.00    +0.000 C 
BRANCH  47  48
ATOM     48  C   UNL     1      -6.431   2.888   0.000  0.00  0.00    +0.000 C 
ATOM     49  C   UNL     1      -5.716   3.300   0.000  0.00  0.00    +0.000 C 
BRANCH  49  50
ATOM     50  C   UNL     1      -5.002   2.888   0.000  0.00  0.00    +0.000 C 
BRANCH  50  51
ATOM     51  C   UNL     1      -4.287   3.300   0.000  0.00  0.00    +0.000 C 
BRANCH  51  52
ATOM     52  C   UNL     1      -3.573   2.888   0.000  0.00  0.00    +0.000 C 
BRANCH  52  53
ATOM     53  C   UNL     1      -2.858   3.300   0.000  0.00  0.00    +0.000 C 
ATOM     54  C   UNL     1      -2.144   2.888   0.000  0.00  0.00    +0.000 C 
ENDBRANCH  52  53
ENDBRANCH  51  52
ENDBRANCH  50  51
ENDBRANCH  49  50
ENDBRANCH  47  48
ENDBRANCH  46  47
ENDBRANCH  44  45
ENDBRANCH  43  44
ENDBRANCH  42  43
ENDBRANCH  41  42
ENDBRANCH  40  41
ENDBRANCH  39  40
ENDBRANCH  38  39
ENDBRANCH  36  38
ENDBRANCH  35  36
ENDBRANCH  34  35
ENDBRANCH   1  34
TORSDOF 40
