REMARK  Name = 
REMARK  6 active torsions:
REMARK  status: ('A' for Active; 'I' for Inactive)
REMARK    1  A    between atoms: C_1  and  C_2
REMARK    2  A    between atoms: C_2  and  C_5
REMARK    3  A    between atoms: C_2  and  O_6
REMARK    4  A    between atoms: C_5  and  N_10
REMARK    5  A    between atoms: O_6  and  C_11
REMARK    6  A    between atoms: C_11  and  C_15
REMARK                            x       y       z     vdW  Elec       q    Type
REMARK                         _______ _______ _______ _____ _____    ______ ____
ROOT
ATOM      1  C   UNL     1       1.453   0.393   0.000  0.00  0.00    +0.000 C 
ENDROOT
BRANCH   1   2
ATOM      2  C   UNL     1       1.453  -0.431   0.000  0.00  0.00    +0.000 A 
ATOM      3  C   UNL     1       0.739  -0.844   0.000  0.00  0.00    +0.000 A 
ATOM      4  C   UNL     1       2.172  -0.844   0.000  0.00  0.00    +0.000 A 
ATOM      5  C   UNL     1       0.739  -1.668   0.000  0.00  0.00    +0.000 A 
ATOM      6 CL   UNL     1       0.017  -0.431   0.000  0.00  0.00    +0.000 Cl
ATOM      7  C   UNL     1       2.172  -1.668   0.000  0.00  0.00    +0.000 A 
ATOM      8  C   UNL     1       1.453  -2.084   0.000  0.00  0.00    +0.000 A 
ATOM      9 CL   UNL     1       1.446  -2.906   0.000  0.00  0.00    +0.000 Cl
ENDBRANCH   1   2
BRANCH   1  10
ATOM     10  C   UNL     1       2.168   0.809   0.000  0.00  0.00    +0.000 C 
BRANCH  10  11
ATOM     11  N   UNL     1       2.166   1.634   0.000  0.00  0.00    +0.000 N 
ATOM     12  C   UNL     1       2.832   2.122   0.000  0.00  0.00    +0.000 A 
ATOM     13  C   UNL     1       1.496   2.117   0.000  0.00  0.00    +0.000 A 
ATOM     14  C   UNL     1       2.574   2.906   0.000  0.00  0.00    +0.000 A 
ATOM     15  N   UNL     1       1.749   2.903   0.000  0.00  0.00    +0.000 NA
ENDBRANCH  10  11
ENDBRANCH   1  10
BRANCH   1  16
ATOM     16  O   UNL     1       0.742   0.809   0.000  0.00  0.00    +0.000 OA
BRANCH  16  17
ATOM     17  C   UNL     1       0.028   0.393   0.000  0.00  0.00    +0.000 C 
BRANCH  17  18
ATOM     18  C   UNL     1      -0.684   0.809   0.000  0.00  0.00    +0.000 A 
ATOM     19  C   UNL     1      -1.395   0.393   0.000  0.00  0.00    +0.000 A 
ATOM     20  C   UNL     1      -0.684   1.634   0.000  0.00  0.00    +0.000 A 
ATOM     21  C   UNL     1      -2.113   0.809   0.000  0.00  0.00    +0.000 A 
ATOM     22  C   UNL     1      -1.395   2.046   0.000  0.00  0.00    +0.000 A 
ATOM     23  C   UNL     1      -2.113   1.634   0.000  0.00  0.00    +0.000 A 
ATOM     24 CL   UNL     1      -2.832   2.046   0.000  0.00  0.00    +0.000 Cl
ENDBRANCH  17  18
ENDBRANCH  16  17
ENDBRANCH   1  16
TORSDOF 6
