REMARK  Name = 
REMARK  4 active torsions:
REMARK  status: ('A' for Active; 'I' for Inactive)
REMARK    1  A    between atoms: C_1  and  C_4
REMARK    2  A    between atoms: C_7  and  C_8
REMARK    3  A    between atoms: C_9  and  C_10
REMARK    4  A    between atoms: C_22  and  C_30
REMARK                            x       y       z     vdW  Elec       q    Type
REMARK                         _______ _______ _______ _____ _____    ______ ____
ROOT
ATOM      1  C   UNL     1       2.468   0.547   0.000  0.00  0.00    +0.000 C 
ATOM      2  O   UNL     1       3.275   0.719   0.000  0.00  0.00    +0.000 OA
ATOM      3  O   UNL     1       1.703  -3.141   0.000  0.00  0.00    +0.000 OA
ATOM      4  C   UNL     1       2.188  -2.474   0.000  0.00  0.00    +0.000 C 
ATOM      5  C   UNL     1       1.703  -1.806   0.000  0.00  0.00    +0.000 C 
ATOM      6  C   UNL     1       0.918  -2.061   0.000  0.00  0.00    +0.000 A 
ATOM      7  C   UNL     1       0.918  -2.886   0.000  0.00  0.00    +0.000 A 
ATOM      8  C   UNL     1       0.204  -1.649   0.000  0.00  0.00    +0.000 A 
ATOM      9  C   UNL     1      -0.510  -2.061   0.000  0.00  0.00    +0.000 A 
ATOM     10  C   UNL     1      -0.510  -2.886   0.000  0.00  0.00    +0.000 A 
ATOM     11  C   UNL     1       0.204  -3.299   0.000  0.00  0.00    +0.000 A 
ATOM     12  N   UNL     1       2.213  -0.237   0.000  0.00  0.00    +0.000 N 
ATOM     13  C   UNL     1       1.406  -0.409   0.000  0.00  0.00    +0.000 C 
ATOM     14  C   UNL     1       1.151  -1.193   0.000  0.00  0.00    +0.000 C 
ATOM     15  C   UNL     1       2.510  -1.635   0.000  0.00  0.00    +0.000 C 
ATOM     16  C   UNL     1       2.765  -0.850   0.000  0.00  0.00    +0.000 C 
ENDROOT
BRANCH   1  18
ATOM     17  O   UNL     1       1.095   1.074   0.000  0.00  0.00    +0.000 OA
ATOM     18  C   UNL     1       1.916   1.161   0.000  0.00  0.00    +0.000 A 
ATOM     19  C   UNL     1       2.087   1.968   0.000  0.00  0.00    +0.000 A 
ATOM     20  C   UNL     1       1.373   2.380   0.000  0.00  0.00    +0.000 A 
ATOM     21  C   UNL     1       0.760   1.828   0.000  0.00  0.00    +0.000 A 
BRANCH  21  22
ATOM     22  C   UNL     1      -0.047   2.000   0.000  0.00  0.00    +0.000 C 
ATOM     23  C   UNL     1      -0.854   2.171   0.000  0.00  0.00    +0.000 C 
BRANCH  23  24
ATOM     24  C   UNL     1      -1.661   2.343   0.000  0.00  0.00    +0.000 A 
ATOM     25  C   UNL     1      -2.213   1.730   0.000  0.00  0.00    +0.000 A 
ATOM     26  C   UNL     1      -3.020   1.901   0.000  0.00  0.00    +0.000 A 
ATOM     27  C   UNL     1      -3.275   2.686   0.000  0.00  0.00    +0.000 A 
ATOM     28  C   UNL     1      -2.723   3.299   0.000  0.00  0.00    +0.000 A 
ATOM     29  C   UNL     1      -1.916   3.127   0.000  0.00  0.00    +0.000 A 
ENDBRANCH  23  24
ENDBRANCH  21  22
ENDBRANCH   1  18
BRANCH   9  30
ATOM     30  C   UNL     1      -1.225  -1.649   0.000  0.00  0.00    +0.000 C 
ATOM     31  N   UNL     1      -1.939  -2.061   0.000  0.00  0.00    +0.000 NA
ENDBRANCH   9  30
TORSDOF 4
