REMARK  Name = 
REMARK  1 active torsions:
REMARK  status: ('A' for Active; 'I' for Inactive)
REMARK    1  A    between atoms: C_4  and  C_7
REMARK                            x       y       z     vdW  Elec       q    Type
REMARK                         _______ _______ _______ _____ _____    ______ ____
ROOT
ATOM      1  O   UNL     1      -0.360   0.219   0.000  0.00  0.00    +0.000 OA
ATOM      2  C   UNL     1      -1.073  -0.202   0.000  0.00  0.00    +0.000 A 
ATOM      3  C   UNL     1      -1.081  -1.027   0.000  0.00  0.00    +0.000 A 
ATOM      4  C   UNL     1       0.356  -0.202   0.000  0.00  0.00    +0.000 C 
ATOM      5  C   UNL     1      -0.360  -1.444   0.000  0.00  0.00    +0.000 C 
ATOM      6  C   UNL     1      -1.794  -1.444   0.000  0.00  0.00    +0.000 A 
ATOM      7  C   UNL     1       0.356  -1.031   0.000  0.00  0.00    +0.000 C 
ATOM      8  C   UNL     1      -1.794   0.210   0.000  0.00  0.00    +0.000 A 
ATOM      9  C   UNL     1      -2.506  -1.031   0.000  0.00  0.00    +0.000 A 
ATOM     10  C   UNL     1      -2.506  -0.202   0.000  0.00  0.00    +0.000 A 
ATOM     11  O   UNL     1      -1.785  -2.269   0.000  0.00  0.00    +0.000 OA
ATOM     12  O   UNL     1       1.069  -1.444   0.000  0.00  0.00    +0.000 OA
ATOM     13  O   UNL     1      -3.219   0.206   0.000  0.00  0.00    +0.000 OA
ENDROOT
BRANCH   4  14
ATOM     14  C   UNL     1       1.069   0.206   0.000  0.00  0.00    +0.000 A 
ATOM     15  C   UNL     1       1.069   1.031   0.000  0.00  0.00    +0.000 A 
ATOM     16  C   UNL     1       1.781   1.444   0.000  0.00  0.00    +0.000 A 
ATOM     17  C   UNL     1       2.502   1.031   0.000  0.00  0.00    +0.000 A 
ATOM     18  C   UNL     1       1.781  -0.206   0.000  0.00  0.00    +0.000 A 
ATOM     19  C   UNL     1       2.494   0.198   0.000  0.00  0.00    +0.000 A 
ATOM     20  O   UNL     1       1.781   2.269   0.000  0.00  0.00    +0.000 OA
ATOM     21  O   UNL     1       3.219   1.435   0.000  0.00  0.00    +0.000 OA
ENDBRANCH   4  14
TORSDOF 1
