REMARK  Name = 
REMARK  12 active torsions:
REMARK  status: ('A' for Active; 'I' for Inactive)
REMARK    1  A    between atoms: C_3  and  O_15
REMARK    2  A    between atoms: C_21  and  O_31
REMARK    3  A    between atoms: C_23  and  C_25
REMARK    4  A    between atoms: C_25  and  C_26
REMARK    5  A    between atoms: C_26  and  O_28
REMARK    6  A    between atoms: O_28  and  C_29
REMARK    7  A    between atoms: C_29  and  C_34
REMARK    8  A    between atoms: O_31  and  C_38
REMARK    9  A    between atoms: C_34  and  C_35
REMARK   10  A    between atoms: C_35  and  C_36
REMARK   11  A    between atoms: C_40  and  N_46
REMARK   12  A    between atoms: C_47  and  C_48
REMARK                            x       y       z     vdW  Elec       q    Type
REMARK                         _______ _______ _______ _____ _____    ______ ____
ROOT
ATOM      1  C   UNL     1      -5.714   2.239   0.000  0.00  0.00    +0.000 A 
ATOM      2  C   UNL     1      -5.715   1.411   0.000  0.00  0.00    +0.000 A 
ATOM      3  C   UNL     1      -4.999   0.996   0.000  0.00  0.00    +0.000 A 
ATOM      4  C   UNL     1      -5.001   2.650   0.000  0.00  0.00    +0.000 A 
ATOM      5  C   UNL     1      -4.284   2.243   0.000  0.00  0.00    +0.000 A 
ATOM      6  C   UNL     1      -4.281   1.414   0.000  0.00  0.00    +0.000 A 
ATOM      7  C   UNL     1      -3.565   1.002   0.000  0.00  0.00    +0.000 C 
ATOM      8  C   UNL     1      -3.571   2.660   0.000  0.00  0.00    +0.000 C 
ATOM      9  C   UNL     1      -2.851   2.248   0.000  0.00  0.00    +0.000 A 
ATOM     10  C   UNL     1      -2.848   1.423   0.000  0.00  0.00    +0.000 A 
ATOM     11  C   UNL     1      -2.137   1.013   0.000  0.00  0.00    +0.000 A 
ATOM     12  C   UNL     1      -2.146   2.661   0.000  0.00  0.00    +0.000 A 
ATOM     13  O   UNL     1      -3.576   3.486   0.000  0.00  0.00    +0.000 OA
ATOM     14  O   UNL     1      -3.560   0.177   0.000  0.00  0.00    +0.000 OA
ATOM     15  O   UNL     1      -2.152   3.487   0.000  0.00  0.00    +0.000 OA
ATOM     16  O   UNL     1      -2.134   0.187   0.000  0.00  0.00    +0.000 OA
ATOM     17  C   UNL     1      -1.431   2.258   0.000  0.00  0.00    +0.000 A 
ATOM     18  C   UNL     1      -1.427   1.435   0.000  0.00  0.00    +0.000 A 
ATOM     19  C   UNL     1      -0.715   1.026   0.000  0.00  0.00    +0.000 C 
ATOM     20  C   UNL     1      -0.002   1.441   0.000  0.00  0.00    +0.000 C 
ATOM     21  C   UNL     1      -0.006   2.264   0.000  0.00  0.00    +0.000 C 
ATOM     22  C   UNL     1      -0.722   2.674   0.000  0.00  0.00    +0.000 C 
ATOM     23  O   UNL     1       0.705   1.853   0.000  0.00  0.00    +0.000 OA
ENDROOT
BRANCH   3  24
ATOM     24  O   UNL     1      -4.993   0.171   0.000  0.00  0.00    +0.000 OA
ATOM     25  C   UNL     1      -4.277  -0.239   0.000  0.00  0.00    +0.000 C 
ENDBRANCH   3  24
BRANCH  21  26
ATOM     26  C   UNL     1       0.708   2.678   0.000  0.00  0.00    +0.000 C 
ATOM     27  O   UNL     1       0.706   3.504   0.000  0.00  0.00    +0.000 OA
BRANCH  26  28
ATOM     28  C   UNL     1       1.426   2.270   0.000  0.00  0.00    +0.000 C 
BRANCH  28  29
ATOM     29  O   UNL     1       2.139   2.685   0.000  0.00  0.00    +0.000 OA
BRANCH  29  30
ATOM     30  C   UNL     1       2.853   2.278   0.000  0.00  0.00    +0.000 C 
ATOM     31  O   UNL     1       2.857   1.452   0.000  0.00  0.00    +0.000 OA
BRANCH  30  32
ATOM     32  C   UNL     1       3.566   2.692   0.000  0.00  0.00    +0.000 C 
BRANCH  32  33
ATOM     33  C   UNL     1       4.284   2.286   0.000  0.00  0.00    +0.000 C 
BRANCH  33  34
ATOM     34  C   UNL     1       4.997   2.700   0.000  0.00  0.00    +0.000 C 
ATOM     35  C   UNL     1       5.715   2.293   0.000  0.00  0.00    +0.000 C 
ENDBRANCH  33  34
ENDBRANCH  32  33
ENDBRANCH  30  32
ENDBRANCH  29  30
ENDBRANCH  28  29
ENDBRANCH  26  28
ENDBRANCH  21  26
BRANCH  19  36
ATOM     36  O   UNL     1      -0.713   0.200   0.000  0.00  0.00    +0.000 OA
BRANCH  36  37
ATOM     37  C   UNL     1       0.004  -0.208   0.000  0.00  0.00    +0.000 C 
ATOM     38  C   UNL     1       0.000  -1.030   0.000  0.00  0.00    +0.000 C 
ATOM     39  C   UNL     1       0.713  -1.443   0.000  0.00  0.00    +0.000 C 
ATOM     40  C   UNL     1       1.430  -1.030   0.000  0.00  0.00    +0.000 C 
ATOM     41  C   UNL     1       1.429  -0.203   0.000  0.00  0.00    +0.000 C 
ATOM     42  O   UNL     1       0.712   0.210   0.000  0.00  0.00    +0.000 OA
ATOM     43  C   UNL     1       2.145   0.207   0.000  0.00  0.00    +0.000 C 
ATOM     44  O   UNL     1       2.145  -1.445   0.000  0.00  0.00    +0.000 OA
BRANCH  39  45
ATOM     45  N   UNL     1       0.712  -2.269   0.000  0.00  0.00    +0.000 NA
ATOM     46  C   UNL     1      -0.004  -2.679   0.000  0.00  0.00    +0.000 C 
ATOM     47  O   UNL     1      -0.004  -3.504   0.000  0.00  0.00    +0.000 OA
BRANCH  46  48
ATOM     48  C   UNL     1      -0.719  -2.268   0.000  0.00  0.00    +0.000 C 
ATOM     49  F   UNL     1      -0.718  -1.442   0.000  0.00  0.00    +0.000 F 
ATOM     50  F   UNL     1      -1.435  -2.678   0.000  0.00  0.00    +0.000 F 
ATOM     51  F   UNL     1      -1.439  -1.851   0.000  0.00  0.00    +0.000 F 
ENDBRANCH  46  48
ENDBRANCH  39  45
ENDBRANCH  36  37
ENDBRANCH  19  36
TORSDOF 12
