REMARK  Name = 
REMARK  10 active torsions:
REMARK  status: ('A' for Active; 'I' for Inactive)
REMARK    1  A    between atoms: O_2  and  C_17
REMARK    2  A    between atoms: O_2  and  C_18
REMARK    3  A    between atoms: O_4  and  C_28
REMARK    4  A    between atoms: O_5  and  C_30
REMARK    5  A    between atoms: N_6  and  C_19
REMARK    6  A    between atoms: N_6  and  C_22
REMARK    7  A    between atoms: C_11  and  C_16
REMARK    8  A    between atoms: C_16  and  C_17
REMARK    9  A    between atoms: C_18  and  C_19
REMARK   10  A    between atoms: C_22  and  C_25
REMARK                            x       y       z     vdW  Elec       q    Type
REMARK                         _______ _______ _______ _____ _____    ______ ____
ROOT
ATOM      1  O   UNL     1       2.682  -1.681   0.000  0.00  0.00    +0.000 OA
ATOM      2  N   UNL     1       4.296  -1.338   0.000  0.00  0.00    +0.000 N 
ATOM      3  C   UNL     1       3.744  -0.725   0.000  0.00  0.00    +0.000 C 
ATOM      4  C   UNL     1       4.041  -2.122   0.000  0.00  0.00    +0.000 C 
ATOM      5  C   UNL     1       2.937  -0.896   0.000  0.00  0.00    +0.000 C 
ATOM      6  C   UNL     1       3.234  -2.294   0.000  0.00  0.00    +0.000 C 
ENDROOT
BRANCH   2   7
ATOM      7  C   UNL     1       4.909  -0.786   0.000  0.00  0.00    +0.000 C 
BRANCH   7   8
ATOM      8  C   UNL     1       4.737   0.021   0.000  0.00  0.00    +0.000 C 
BRANCH   8   9
ATOM      9  O   UNL     1       5.351   0.573   0.000  0.00  0.00    +0.000 OA
BRANCH   9  10
ATOM     10  C   UNL     1       5.179   1.380   0.000  0.00  0.00    +0.000 C 
BRANCH  10  11
ATOM     11  C   UNL     1       5.792   1.933   0.000  0.00  0.00    +0.000 C 
BRANCH  11  16
ATOM     12  C   UNL     1       6.887   3.765   0.000  0.00  0.00    +0.000 C 
ATOM     13  C   UNL     1       8.399   3.566   0.000  0.00  0.00    +0.000 C 
ATOM     14  C   UNL     1       7.101   4.562   0.000  0.00  0.00    +0.000 C 
ATOM     15  C   UNL     1       6.493   5.373   0.000  0.00  0.00    +0.000 C 
ATOM     16  C   UNL     1       5.621   2.739   0.000  0.00  0.00    +0.000 C 
ATOM     17  C   UNL     1       4.953   3.896   0.000  0.00  0.00    +0.000 C 
ATOM     18  C   UNL     1       4.867   3.075   0.000  0.00  0.00    +0.000 C 
ATOM     19  C   UNL     1       9.113   3.979   0.000  0.00  0.00    +0.000 C 
ATOM     20  C   UNL     1       8.811   2.852   0.000  0.00  0.00    +0.000 C 
ENDBRANCH  11  16
ENDBRANCH  10  11
ENDBRANCH   9  10
ENDBRANCH   8   9
ENDBRANCH   7   8
ENDBRANCH   2   7
BRANCH   2  21
ATOM     21  C   UNL     1       5.081  -1.593   0.000  0.00  0.00    +0.000 C 
BRANCH  21  23
ATOM     22 BR   UNL     1       3.854  -2.697   0.000  0.00  0.00    +0.000 Br
ATOM     23  C   UNL     1       5.252  -2.400   0.000  0.00  0.00    +0.000 A 
ATOM     24  C   UNL     1       6.037  -2.655   0.000  0.00  0.00    +0.000 A 
ATOM     25  C   UNL     1       4.639  -2.952   0.000  0.00  0.00    +0.000 A 
ATOM     26  C   UNL     1       6.208  -3.462   0.000  0.00  0.00    +0.000 A 
ATOM     27  C   UNL     1       4.811  -3.759   0.000  0.00  0.00    +0.000 A 
ATOM     28  C   UNL     1       5.595  -4.014   0.000  0.00  0.00    +0.000 A 
BRANCH  26  29
ATOM     29  O   UNL     1       6.993  -3.716   0.000  0.00  0.00    +0.000 OA
ATOM     30  C   UNL     1       7.606  -3.164   0.000  0.00  0.00    +0.000 C 
ENDBRANCH  26  29
BRANCH  28  31
ATOM     31  O   UNL     1       5.767  -4.821   0.000  0.00  0.00    +0.000 OA
ATOM     32  C   UNL     1       5.154  -5.373   0.000  0.00  0.00    +0.000 C 
ENDBRANCH  28  31
ENDBRANCH  21  23
ENDBRANCH   2  21
TORSDOF 10
