REMARK  Name = 
REMARK  5 active torsions:
REMARK  status: ('A' for Active; 'I' for Inactive)
REMARK    1  A    between atoms: N_7  and  C_15
REMARK    2  A    between atoms: C_14  and  C_22
REMARK    3  A    between atoms: C_15  and  C_16
REMARK    4  A    between atoms: C_16  and  C_17
REMARK    5  A    between atoms: C_17  and  N_18
REMARK                            x       y       z     vdW  Elec       q    Type
REMARK                         _______ _______ _______ _____ _____    ______ ____
ROOT
ATOM      1  C   UNL     1      -2.143   0.825   0.000  0.00  0.00    +0.000 A 
ATOM      2  C   UNL     1      -2.858   1.237   0.000  0.00  0.00    +0.000 A 
ATOM      3  C   UNL     1      -2.858   2.062   0.000  0.00  0.00    +0.000 A 
ATOM      4  C   UNL     1      -2.143   2.475   0.000  0.00  0.00    +0.000 A 
ATOM      5  C   UNL     1      -1.429   2.062   0.000  0.00  0.00    +0.000 A 
ATOM      6  C   UNL     1      -1.429   1.237   0.000  0.00  0.00    +0.000 A 
ATOM      7  N   UNL     1      -0.714   0.825   0.000  0.00  0.00    +0.000 N 
ATOM      8  S   UNL     1      -0.714   2.475   0.000  0.00  0.00    +0.000 S 
ATOM      9  C   UNL     1       0.000   2.062   0.000  0.00  0.00    +0.000 A 
ATOM     10  C   UNL     1       0.000   1.237   0.000  0.00  0.00    +0.000 A 
ATOM     11  C   UNL     1       0.714   0.825   0.000  0.00  0.00    +0.000 A 
ATOM     12  C   UNL     1       0.714   2.475   0.000  0.00  0.00    +0.000 A 
ATOM     13  C   UNL     1       1.429   2.062   0.000  0.00  0.00    +0.000 A 
ATOM     14  C   UNL     1       1.429   1.238   0.000  0.00  0.00    +0.000 A 
ENDROOT
BRANCH  14  15
ATOM     15  C   UNL     1       2.143   0.825   0.000  0.00  0.00    +0.000 C 
ATOM     16  C   UNL     1       2.858   1.238   0.000  0.00  0.00    +0.000 C 
ENDBRANCH  14  15
BRANCH   7  17
ATOM     17  C   UNL     1      -0.714   0.000   0.000  0.00  0.00    +0.000 C 
BRANCH  17  18
ATOM     18  C   UNL     1       0.000  -0.412   0.000  0.00  0.00    +0.000 C 
ATOM     19  C   UNL     1       0.715   0.000   0.000  0.00  0.00    +0.000 C 
BRANCH  18  20
ATOM     20  C   UNL     1       0.000  -1.238   0.000  0.00  0.00    +0.000 C 
BRANCH  20  21
ATOM     21  N   UNL     1       0.715  -1.650   0.000  0.00  0.00    +0.000 NA
ATOM     22  C   UNL     1       0.715  -2.475   0.000  0.00  0.00    +0.000 C 
ATOM     23  C   UNL     1       1.429  -1.237   0.000  0.00  0.00    +0.000 C 
ENDBRANCH  20  21
ENDBRANCH  18  20
ENDBRANCH  17  18
ENDBRANCH   7  17
TORSDOF 5
