REMARK  Name = 
REMARK  20 active torsions:
REMARK  status: ('A' for Active; 'I' for Inactive)
REMARK    1  A    between atoms: C_2  and  O_37
REMARK    2  A    between atoms: C_7  and  C_8
REMARK    3  A    between atoms: C_7  and  N_24
REMARK    4  A    between atoms: C_8  and  N_25
REMARK    5  A    between atoms: C_9  and  C_16
REMARK    6  A    between atoms: C_9  and  C_17
REMARK    7  A    between atoms: C_10  and  C_17
REMARK    8  A    between atoms: C_10  and  N_24
REMARK    9  A    between atoms: C_11  and  C_19
REMARK   10  A    between atoms: C_11  and  N_24
REMARK   11  A    between atoms: C_12  and  C_20
REMARK   12  A    between atoms: C_12  and  N_25
REMARK   13  A    between atoms: C_13  and  C_21
REMARK   14  A    between atoms: C_13  and  N_25
REMARK   15  A    between atoms: C_14  and  C_22
REMARK   16  A    between atoms: C_14  and  N_26
REMARK   17  A    between atoms: C_15  and  C_23
REMARK   18  A    between atoms: C_15  and  N_26
REMARK   19  A    between atoms: C_17  and  N_26
REMARK   20  A    between atoms: C_18  and  O_37
REMARK                            x       y       z     vdW  Elec       q    Type
REMARK                         _______ _______ _______ _____ _____    ______ ____
ROOT
ATOM      1  C   UNL     1       0.396   0.057   0.000  0.00  0.00    +0.000 C 
ENDROOT
BRANCH   1   2
ATOM      2  C   UNL     1      -0.396   0.286   0.000  0.00  0.00    +0.000 C 
BRANCH   2   3
ATOM      3  N   UNL     1      -0.991  -0.286   0.000  0.00  0.00    +0.000 NA
BRANCH   3   4
ATOM      4  C   UNL     1      -0.793  -1.087   0.000  0.00  0.00    +0.000 C 
BRANCH   4   5
ATOM      5  C   UNL     1      -1.387  -1.659   0.000  0.00  0.00    +0.000 C 
ATOM      6  O   UNL     1      -1.189  -2.460   0.000  0.00  0.00    +0.000 OA
ATOM      7  O   UNL     1      -2.180  -1.430   0.000  0.00  0.00    +0.000 OA
ENDBRANCH   4   5
ENDBRANCH   3   4
BRANCH   3   8
ATOM      8  C   UNL     1      -1.783  -0.057   0.000  0.00  0.00    +0.000 C 
BRANCH   8   9
ATOM      9  C   UNL     1      -2.378  -0.629   0.000  0.00  0.00    +0.000 C 
BRANCH   9  10
ATOM     10  N   UNL     1      -3.171  -0.400   0.000  0.00  0.00    +0.000 NA
BRANCH  10  11
ATOM     11  C   UNL     1      -3.765  -0.972   0.000  0.00  0.00    +0.000 C 
BRANCH  11  12
ATOM     12  C   UNL     1      -4.558  -0.744   0.000  0.00  0.00    +0.000 C 
ATOM     13  O   UNL     1      -5.152  -1.316   0.000  0.00  0.00    +0.000 OA
ATOM     14  O   UNL     1      -4.756   0.057   0.000  0.00  0.00    +0.000 OA
ENDBRANCH  11  12
ENDBRANCH  10  11
BRANCH  10  15
ATOM     15  C   UNL     1      -3.369   0.400   0.000  0.00  0.00    +0.000 C 
BRANCH  15  16
ATOM     16  C   UNL     1      -2.774   0.972   0.000  0.00  0.00    +0.000 C 
ATOM     17  O   UNL     1      -2.972   1.773   0.000  0.00  0.00    +0.000 OA
ATOM     18  O   UNL     1      -1.982   0.744   0.000  0.00  0.00    +0.000 OA
ENDBRANCH  15  16
ENDBRANCH  10  15
ENDBRANCH   9  10
ENDBRANCH   8   9
ENDBRANCH   3   8
ENDBRANCH   2   3
ENDBRANCH   1   2
BRANCH   1  19
ATOM     19  C   UNL     1       0.594  -0.744   0.000  0.00  0.00    +0.000 C 
BRANCH  19  24
ATOM     20  C   UNL     1       1.585  -1.773   0.000  0.00  0.00    +0.000 A 
ATOM     21  C   UNL     1       1.982  -0.400   0.000  0.00  0.00    +0.000 A 
ATOM     22  C   UNL     1       2.378  -2.002   0.000  0.00  0.00    +0.000 A 
ATOM     23  C   UNL     1       2.774  -0.629   0.000  0.00  0.00    +0.000 A 
ATOM     24  C   UNL     1       1.387  -0.972   0.000  0.00  0.00    +0.000 A 
ATOM     25  C   UNL     1       2.972  -1.430   0.000  0.00  0.00    +0.000 A 
BRANCH  25  26
ATOM     26  O   UNL     1       3.765  -1.659   0.000  0.00  0.00    +0.000 OA
BRANCH  26  28
ATOM     27  C   UNL     1       5.152  -1.316   0.000  0.00  0.00    +0.000 C 
ATOM     28  C   UNL     1       4.359  -1.087   0.000  0.00  0.00    +0.000 C 
ENDBRANCH  26  28
ENDBRANCH  25  26
ENDBRANCH  19  24
ENDBRANCH   1  19
BRANCH   1  29
ATOM     29  N   UNL     1       0.991   0.629   0.000  0.00  0.00    +0.000 NA
BRANCH  29  30
ATOM     30  C   UNL     1       0.793   1.430   0.000  0.00  0.00    +0.000 C 
BRANCH  30  31
ATOM     31  C   UNL     1       0.000   1.659   0.000  0.00  0.00    +0.000 C 
ATOM     32  O   UNL     1      -0.594   1.087   0.000  0.00  0.00    +0.000 OA
ATOM     33  O   UNL     1      -0.198   2.460   0.000  0.00  0.00    +0.000 OA
ENDBRANCH  30  31
ENDBRANCH  29  30
BRANCH  29  34
ATOM     34  C   UNL     1       1.783   0.400   0.000  0.00  0.00    +0.000 C 
BRANCH  34  35
ATOM     35  C   UNL     1       2.378   0.972   0.000  0.00  0.00    +0.000 C 
ATOM     36  O   UNL     1       2.180   1.773   0.000  0.00  0.00    +0.000 OA
ATOM     37  O   UNL     1       3.171   0.744   0.000  0.00  0.00    +0.000 OA
ENDBRANCH  34  35
ENDBRANCH  29  34
ENDBRANCH   1  29
TORSDOF 20
REMARK  Name = 
REMARK  20 active torsions:
REMARK  status: ('A' for Active; 'I' for Inactive)
REMARK    1  A    between atoms: C_2  and  O_37
REMARK    2  A    between atoms: C_7  and  C_8
REMARK    3  A    between atoms: C_7  and  N_24
REMARK    4  A    between atoms: C_8  and  N_25
REMARK    5  A    between atoms: C_9  and  C_16
REMARK    6  A    between atoms: C_9  and  C_17
REMARK    7  A    between atoms: C_10  and  C_17
REMARK    8  A    between atoms: C_10  and  N_24
REMARK    9  A    between atoms: C_11  and  C_19
REMARK   10  A    between atoms: C_11  and  N_24
REMARK   11  A    between atoms: C_12  and  C_20
REMARK   12  A    between atoms: C_12  and  N_25
REMARK   13  A    between atoms: C_13  and  C_21
REMARK   14  A    between atoms: C_13  and  N_25
REMARK   15  A    between atoms: C_14  and  C_22
REMARK   16  A    between atoms: C_14  and  N_26
REMARK   17  A    between atoms: C_15  and  C_23
REMARK   18  A    between atoms: C_15  and  N_26
REMARK   19  A    between atoms: C_17  and  N_26
REMARK   20  A    between atoms: C_18  and  O_37
REMARK                            x       y       z     vdW  Elec       q    Type
REMARK                         _______ _______ _______ _____ _____    ______ ____
ROOT
ATOM      1 GD   UNL     1      -2.972  -1.201   0.000  0.00  0.00    +0.000 Gd
ENDROOT
TORSDOF 0
