REMARK  Name = 
REMARK  7 active torsions:
REMARK  status: ('A' for Active; 'I' for Inactive)
REMARK    1  A    between atoms: C_7  and  C_8
REMARK    2  A    between atoms: C_8  and  C_18
REMARK    3  A    between atoms: C_14  and  O_32
REMARK    4  A    between atoms: N_17  and  C_20
REMARK    5  A    between atoms: C_20  and  O_21
REMARK    6  A    between atoms: O_21  and  P_22
REMARK    7  A    between atoms: C_34  and  C_35
REMARK                            x       y       z     vdW  Elec       q    Type
REMARK                         _______ _______ _______ _____ _____    ______ ____
ROOT
ATOM      1  C   UNL     1      -2.552   1.976   0.000  0.00  0.00    +0.000 A 
ATOM      2  C   UNL     1      -1.837   1.564   0.000  0.00  0.00    +0.000 A 
ATOM      3  C   UNL     1      -1.837   0.739   0.000  0.00  0.00    +0.000 A 
ATOM      4  C   UNL     1      -2.552   0.327   0.000  0.00  0.00    +0.000 A 
ATOM      5  C   UNL     1      -3.267   0.739   0.000  0.00  0.00    +0.000 A 
ATOM      6  N   UNL     1      -3.267   1.564   0.000  0.00  0.00    +0.000 NA
ATOM      7  N   UNL     1      -1.053   1.819   0.000  0.00  0.00    +0.000 N 
ATOM      8  C   UNL     1      -1.053   0.484   0.000  0.00  0.00    +0.000 A 
ATOM      9  C   UNL     1      -0.568   1.151   0.000  0.00  0.00    +0.000 A 
ATOM     10  N   UNL     1      -2.552   2.801   0.000  0.00  0.00    +0.000 N 
ATOM     11  N   UNL     1      -3.220   3.287   0.000  0.00  0.00    +0.000 NA
ATOM     12  C   UNL     1      -2.964   4.071   0.000  0.00  0.00    +0.000 A 
ATOM     13  N   UNL     1      -2.139   4.071   0.000  0.00  0.00    +0.000 NA
ATOM     14  C   UNL     1      -1.885   3.287   0.000  0.00  0.00    +0.000 A 
ATOM     15  C   UNL     1      -3.449   4.738   0.000  0.00  0.00    +0.000 C 
ENDROOT
BRANCH   8  16
ATOM     16  C   UNL     1      -0.798  -0.300   0.000  0.00  0.00    +0.000 C 
ATOM     17  O   UNL     1      -1.350  -0.913   0.000  0.00  0.00    +0.000 OA
BRANCH  16  24
ATOM     18  N   UNL     1       0.773  -2.826   0.000  0.00  0.00    +0.000 N 
ATOM     19  C   UNL     1       1.325  -2.213   0.000  0.00  0.00    +0.000 C 
ATOM     20  C   UNL     1       1.071  -1.428   0.000  0.00  0.00    +0.000 C 
ATOM     21  N   UNL     1       0.264  -1.257   0.000  0.00  0.00    +0.000 N 
ATOM     22  C   UNL     1      -0.288  -1.870   0.000  0.00  0.00    +0.000 C 
ATOM     23  C   UNL     1      -0.033  -2.654   0.000  0.00  0.00    +0.000 C 
ATOM     24  C   UNL     1       0.009  -0.472   0.000  0.00  0.00    +0.000 C 
ATOM     25  O   UNL     1       0.561   0.141   0.000  0.00  0.00    +0.000 OA
ATOM     26  C   UNL     1       1.028  -3.611   0.000  0.00  0.00    +0.000 C 
ATOM     27  O   UNL     1       0.476  -4.224   0.000  0.00  0.00    +0.000 OA
BRANCH  26  28
ATOM     28  C   UNL     1       1.835  -3.782   0.000  0.00  0.00    +0.000 A 
ATOM     29  C   UNL     1       2.090  -4.567   0.000  0.00  0.00    +0.000 A 
ATOM     30  C   UNL     1       2.897  -4.738   0.000  0.00  0.00    +0.000 A 
ATOM     31  C   UNL     1       3.449  -4.125   0.000  0.00  0.00    +0.000 A 
ATOM     32  C   UNL     1       3.194  -3.341   0.000  0.00  0.00    +0.000 A 
ATOM     33  C   UNL     1       2.387  -3.169   0.000  0.00  0.00    +0.000 A 
ENDBRANCH  26  28
ENDBRANCH  16  24
ENDBRANCH   8  16
BRANCH   4  34
ATOM     34  O   UNL     1      -2.552  -0.498   0.000  0.00  0.00    +0.000 OA
ATOM     35  C   UNL     1      -3.267  -0.911   0.000  0.00  0.00    +0.000 C 
ENDBRANCH   4  34
BRANCH   7  36
ATOM     36  C   UNL     1      -0.798   2.604   0.000  0.00  0.00    +0.000 C 
BRANCH  36  37
ATOM     37  O   UNL     1       0.009   2.775   0.000  0.00  0.00    +0.000 OA
BRANCH  37  38
ATOM     38  P   UNL     1       0.264   3.560   0.000  0.00  0.00    +0.000 P 
ATOM     39  O   UNL     1      -0.521   3.815   0.000  0.00  0.00    +0.000 OA
ATOM     40  O   UNL     1       0.519   4.344   0.000  0.00  0.00    +0.000 OA
ATOM     41  O   UNL     1       1.049   3.305   0.000  0.00  0.00    +0.000 OA
ENDBRANCH  37  38
ENDBRANCH  36  37
ENDBRANCH   7  36
TORSDOF 7
