REMARK  Name = 
REMARK  5 active torsions:
REMARK  status: ('A' for Active; 'I' for Inactive)
REMARK    1  A    between atoms: S_2  and  N_8
REMARK    2  A    between atoms: S_2  and  C_11
REMARK    3  A    between atoms: N_8  and  C_17
REMARK    4  A    between atoms: C_12  and  C_14
REMARK    5  A    between atoms: C_17  and  C_20
REMARK                            x       y       z     vdW  Elec       q    Type
REMARK                         _______ _______ _______ _____ _____    ______ ____
ROOT
ATOM      1 CL   UNL     1       2.696   0.468   0.000  0.00  0.00    +0.000 Cl
ATOM      2  C   UNL     1       1.267   0.468   0.000  0.00  0.00    +0.000 A 
ATOM      3  C   UNL     1       0.552  -0.770   0.000  0.00  0.00    +0.000 A 
ATOM      4  C   UNL     1       0.552   0.055   0.000  0.00  0.00    +0.000 A 
ATOM      5  C   UNL     1       1.982   0.055   0.000  0.00  0.00    +0.000 A 
ATOM      6  C   UNL     1       1.267  -1.182   0.000  0.00  0.00    +0.000 A 
ATOM      7  C   UNL     1       1.982  -0.770   0.000  0.00  0.00    +0.000 A 
ENDROOT
BRANCH   3  12
ATOM      8  S   UNL     1      -0.248  -2.003   0.000  0.00  0.00    +0.000 S 
ATOM      9  O   UNL     1      -2.696  -2.347   0.000  0.00  0.00    +0.000 OA
ATOM     10  N   UNL     1      -1.468  -1.460   0.000  0.00  0.00    +0.000 NA
ATOM     11  N   UNL     1      -1.391  -2.928   0.000  0.00  0.00    +0.000 N 
ATOM     12  C   UNL     1      -0.162  -1.182   0.000  0.00  0.00    +0.000 A 
ATOM     13  C   UNL     1      -0.915  -0.847   0.000  0.00  0.00    +0.000 A 
ATOM     14  C   UNL     1      -1.055  -2.174   0.000  0.00  0.00    +0.000 A 
ATOM     15  C   UNL     1      -1.087  -0.040   0.000  0.00  0.00    +0.000 C 
ATOM     16  C   UNL     1      -2.211  -3.014   0.000  0.00  0.00    +0.000 C 
ATOM     17  C   UNL     1      -2.547  -3.768   0.000  0.00  0.00    +0.000 C 
ATOM     18  H   UNL     1      -1.090  -3.342   0.000  0.00  0.00    +0.000 HD
ENDBRANCH   3  12
BRANCH   2  19
ATOM     19  S   UNL     1       1.267   1.293   0.000  0.00  0.00    +0.000 S 
ATOM     20  O   UNL     1       2.092   1.293   0.000  0.00  0.00    +0.000 OA
ATOM     21  O   UNL     1       0.442   1.293   0.000  0.00  0.00    +0.000 OA
BRANCH  19  22
ATOM     22  N   UNL     1       1.267   2.118   0.000  0.00  0.00    +0.000 NA
ATOM     23  H   UNL     1       0.824   2.373   0.000  0.00  0.00    +0.000 HD
BRANCH  22  24
ATOM     24  C   UNL     1       1.982   2.530   0.000  0.00  0.00    +0.000 C 
BRANCH  24  26
ATOM     25  O   UNL     1       2.696   3.768   0.000  0.00  0.00    +0.000 OA
ATOM     26  C   UNL     1       1.982   3.355   0.000  0.00  0.00    +0.000 C 
ENDBRANCH  24  26
ENDBRANCH  22  24
ENDBRANCH  19  22
ENDBRANCH   2  19
TORSDOF 5
