REMARK  Name = 
REMARK  6 active torsions:
REMARK  status: ('A' for Active; 'I' for Inactive)
REMARK    1  A    between atoms: P_4  and  N_10
REMARK    2  A    between atoms: C_7  and  O_8
REMARK    3  A    between atoms: N_10  and  C_11
REMARK    4  A    between atoms: N_10  and  C_14
REMARK    5  A    between atoms: C_11  and  C_12
REMARK    6  A    between atoms: C_14  and  C_15
REMARK                            x       y       z     vdW  Elec       q    Type
REMARK                         _______ _______ _______ _____ _____    ______ ____
ROOT
ATOM      1  C   UNL     1       3.268  -0.050   0.000  0.00  0.00    +0.000 C 
ATOM      2  C   UNL     1       2.455  -0.193   0.000  0.00  0.00    +0.000 C 
ATOM      3  O   UNL     1       1.925   0.439   0.000  0.00  0.00    +0.000 OA
ATOM      4  P   UNL     1       2.207   1.214   0.000  0.00  0.00    +0.000 P 
ATOM      5  O   UNL     1       1.395   1.357   0.000  0.00  0.00    +0.000 OA
ATOM      6  N   UNL     1       3.020   1.357   0.000  0.00  0.00    +0.000 NA
ATOM      7  C   UNL     1       3.550   0.726   0.000  0.00  0.00    +0.000 C 
ENDROOT
BRANCH   7   8
ATOM      8  O   UNL     1       4.363   0.869   0.000  0.00  0.00    +0.000 OA
ATOM      9  O   UNL     1       4.893   0.237   0.000  0.00  0.00    +0.000 OA
ENDBRANCH   7   8
BRANCH   4  10
ATOM     10  N   UNL     1       2.207   2.039   0.000  0.00  0.00    +0.000 NA
BRANCH  10  11
ATOM     11  C   UNL     1       2.922   2.452   0.000  0.00  0.00    +0.000 C 
BRANCH  11  12
ATOM     12  C   UNL     1       2.922   3.277   0.000  0.00  0.00    +0.000 C 
ATOM     13 CL   UNL     1       3.636   3.689   0.000  0.00  0.00    +0.000 Cl
ENDBRANCH  11  12
ENDBRANCH  10  11
BRANCH  10  14
ATOM     14  C   UNL     1       1.493   2.452   0.000  0.00  0.00    +0.000 C 
BRANCH  14  15
ATOM     15  C   UNL     1       1.493   3.277   0.000  0.00  0.00    +0.000 C 
ATOM     16 CL   UNL     1       0.778   3.689   0.000  0.00  0.00    +0.000 Cl
ENDBRANCH  14  15
ENDBRANCH  10  14
ENDBRANCH   4  10
TORSDOF 6
