REMARK  Name = 
REMARK  8 active torsions:
REMARK  status: ('A' for Active; 'I' for Inactive)
REMARK    1  A    between atoms: C_15  and  C_24
REMARK    2  A    between atoms: C_15  and  N_28
REMARK    3  A    between atoms: C_16  and  C_18
REMARK    4  A    between atoms: C_16  and  O_29
REMARK    5  A    between atoms: C_20  and  S_30
REMARK    6  A    between atoms: C_21  and  S_30
REMARK    7  A    between atoms: C_22  and  C_24
REMARK    8  A    between atoms: C_24  and  O_29
REMARK                            x       y       z     vdW  Elec       q    Type
REMARK                         _______ _______ _______ _____ _____    ______ ____
ROOT
ATOM      1  C   UNL     1       0.107  -0.062   0.000  0.00  0.00    +0.000 C 
ENDROOT
BRANCH   1   6
ATOM      2  C   UNL     1      -1.322  -1.712   0.000  0.00  0.00    +0.000 A 
ATOM      3  C   UNL     1      -0.608  -1.299   0.000  0.00  0.00    +0.000 A 
ATOM      4  C   UNL     1      -2.037  -0.474   0.000  0.00  0.00    +0.000 A 
ATOM      5  C   UNL     1      -2.037  -1.299   0.000  0.00  0.00    +0.000 A 
ATOM      6  C   UNL     1      -0.608  -0.474   0.000  0.00  0.00    +0.000 A 
ATOM      7  C   UNL     1      -1.322  -0.062   0.000  0.00  0.00    +0.000 A 
ATOM      8 CL   UNL     1      -2.751  -1.712   0.000  0.00  0.00    +0.000 Cl
ATOM      9 CL   UNL     1      -1.322   0.763   0.000  0.00  0.00    +0.000 Cl
ENDBRANCH   1   6
BRANCH   1  10
ATOM     10  C   UNL     1       0.821  -0.474   0.000  0.00  0.00    +0.000 C 
BRANCH  10  15
ATOM     11  C   UNL     1       1.234  -2.569   0.000  0.00  0.00    +0.000 A 
ATOM     12  C   UNL     1       1.489  -1.784   0.000  0.00  0.00    +0.000 A 
ATOM     13  C   UNL     1       0.154  -1.784   0.000  0.00  0.00    +0.000 A 
ATOM     14  N   UNL     1       0.409  -2.569   0.000  0.00  0.00    +0.000 NA
ATOM     15  N   UNL     1       0.821  -1.299   0.000  0.00  0.00    +0.000 N 
ENDBRANCH  10  15
ENDBRANCH   1  10
BRANCH   1  16
ATOM     16  O   UNL     1       0.107   0.763   0.000  0.00  0.00    +0.000 OA
BRANCH  16  17
ATOM     17  C   UNL     1       0.821   1.176   0.000  0.00  0.00    +0.000 C 
BRANCH  17  22
ATOM     18  C   UNL     1       1.536   2.413   0.000  0.00  0.00    +0.000 A 
ATOM     19  C   UNL     1       0.107   2.413   0.000  0.00  0.00    +0.000 A 
ATOM     20  C   UNL     1       1.536   3.238   0.000  0.00  0.00    +0.000 A 
ATOM     21  C   UNL     1       0.107   3.238   0.000  0.00  0.00    +0.000 A 
ATOM     22  C   UNL     1       0.821   2.001   0.000  0.00  0.00    +0.000 A 
ATOM     23  C   UNL     1       0.821   3.651   0.000  0.00  0.00    +0.000 A 
BRANCH  23  24
ATOM     24  S   UNL     1       0.821   4.476   0.000  0.00  0.00    +0.000 S 
BRANCH  24  30
ATOM     25  C   UNL     1      -1.322   5.713   0.000  0.00  0.00    +0.000 A 
ATOM     26  C   UNL     1      -1.322   4.888   0.000  0.00  0.00    +0.000 A 
ATOM     27  C   UNL     1      -0.608   6.126   0.000  0.00  0.00    +0.000 A 
ATOM     28  C   UNL     1      -0.608   4.476   0.000  0.00  0.00    +0.000 A 
ATOM     29  C   UNL     1       0.107   5.713   0.000  0.00  0.00    +0.000 A 
ATOM     30  C   UNL     1       0.107   4.888   0.000  0.00  0.00    +0.000 A 
ENDBRANCH  24  30
ENDBRANCH  23  24
ENDBRANCH  17  22
ENDBRANCH  16  17
ENDBRANCH   1  16
TORSDOF 8
