REMARK  Name = 
REMARK  4 active torsions:
REMARK  status: ('A' for Active; 'I' for Inactive)
REMARK    1  A    between atoms: N_12  and  C_15
REMARK    2  A    between atoms: C_18  and  C_20
REMARK    3  A    between atoms: C_20  and  O_21
REMARK    4  A    between atoms: O_21  and  P_24
REMARK                            x       y       z     vdW  Elec       q    Type
REMARK                         _______ _______ _______ _____ _____    ______ ____
ROOT
ATOM      1  N   UNL     1       0.114  -0.905   0.000  0.00  0.00    +0.000 NA
ATOM      2  C   UNL     1       0.114  -1.731   0.000  0.00  0.00    +0.000 A 
ATOM      3  N   UNL     1       0.826  -2.138   0.000  0.00  0.00    +0.000 NA
ATOM      4  C   UNL     1       1.534  -1.731   0.000  0.00  0.00    +0.000 A 
ATOM      5  N   UNL     1       2.243  -2.142   0.000  0.00  0.00    +0.000 N 
ATOM      6  N   UNL     1       2.960  -1.737   0.000  0.00  0.00    +0.000 NA
ATOM      7  C   UNL     1       2.964  -0.911   0.000  0.00  0.00    +0.000 C 
ATOM      8  C   UNL     1       0.826  -0.486   0.000  0.00  0.00    +0.000 A 
ATOM      9  C   UNL     1       1.537  -0.899   0.000  0.00  0.00    +0.000 A 
ATOM     10  C   UNL     1       2.248  -0.493   0.000  0.00  0.00    +0.000 A 
ATOM     11  C   UNL     1       1.816   0.404   0.000  0.00  0.00    +0.000 A 
ATOM     12  N   UNL     1       0.998   0.318   0.000  0.00  0.00    +0.000 N 
ATOM     13  N   UNL     1       3.684  -0.498   0.000  0.00  0.00    +0.000 NA
ATOM     14  C   UNL     1       2.239  -2.968   0.000  0.00  0.00    +0.000 C 
ENDROOT
BRANCH  12  15
ATOM     15  C   UNL     1       0.443   0.931   0.000  0.00  0.00    +0.000 C 
ATOM     16  C   UNL     1       0.615   1.736   0.000  0.00  0.00    +0.000 C 
ATOM     17  C   UNL     1      -0.099   2.147   0.000  0.00  0.00    +0.000 C 
ATOM     18  C   UNL     1      -0.712   1.596   0.000  0.00  0.00    +0.000 C 
ATOM     19  O   UNL     1      -0.379   0.842   0.000  0.00  0.00    +0.000 OA
ATOM     20  O   UNL     1       1.369   2.073   0.000  0.00  0.00    +0.000 OA
ATOM     21  O   UNL     1      -0.186   2.968   0.000  0.00  0.00    +0.000 OA
BRANCH  18  22
ATOM     22  C   UNL     1      -1.520   1.769   0.000  0.00  0.00    +0.000 C 
BRANCH  22  23
ATOM     23  O   UNL     1      -2.075   1.156   0.000  0.00  0.00    +0.000 OA
BRANCH  23  24
ATOM     24  P   UNL     1      -2.882   1.325   0.000  0.00  0.00    +0.000 P 
ATOM     25  O   UNL     1      -3.684   1.547   0.000  0.00  0.00    +0.000 OA
ATOM     26  O   UNL     1      -3.075   0.523   0.000  0.00  0.00    +0.000 OA
ATOM     27  O   UNL     1      -2.680   2.126   0.000  0.00  0.00    +0.000 OA
ENDBRANCH  23  24
ENDBRANCH  22  23
ENDBRANCH  18  22
ENDBRANCH  12  15
TORSDOF 4
