REMARK  Name = 
REMARK  1 active torsions:
REMARK  status: ('A' for Active; 'I' for Inactive)
REMARK    1  A    between atoms: N_7  and  C_12
REMARK                            x       y       z     vdW  Elec       q    Type
REMARK                         _______ _______ _______ _____ _____    ______ ____
ROOT
ATOM      1  F   UNL     1      -0.814   1.628   0.000  0.00  0.00    +0.000 F 
ATOM      2  O   UNL     1      -0.851  -1.628   0.000  0.00  0.00    +0.000 OA
ATOM      3  O   UNL     1       0.547   0.806   0.000  0.00  0.00    +0.000 OA
ATOM      4  N   UNL     1      -1.554  -0.392   0.000  0.00  0.00    +0.000 N 
ATOM      5  N   UNL     1      -0.111  -0.392   0.000  0.00  0.00    +0.000 NA
ATOM      6  C   UNL     1      -0.851  -0.806   0.000  0.00  0.00    +0.000 A 
ATOM      7  C   UNL     1      -0.814   0.843   0.000  0.00  0.00    +0.000 A 
ATOM      8  C   UNL     1      -1.554   0.436   0.000  0.00  0.00    +0.000 A 
ATOM      9  C   UNL     1      -0.111   0.392   0.000  0.00  0.00    +0.000 A 
ENDROOT
BRANCH   4  11
ATOM     10  O   UNL     1      -3.041  -0.392   0.000  0.00  0.00    +0.000 OA
ATOM     11  C   UNL     1      -2.382  -0.843   0.000  0.00  0.00    +0.000 C 
ATOM     12  C   UNL     1      -2.626  -1.628   0.000  0.00  0.00    +0.000 C 
ATOM     13  C   UNL     1      -3.699  -0.843   0.000  0.00  0.00    +0.000 C 
ATOM     14  C   UNL     1      -3.455  -1.628   0.000  0.00  0.00    +0.000 C 
ENDBRANCH   4  11
TORSDOF 1
REMARK  Name = 
REMARK  1 active torsions:
REMARK  status: ('A' for Active; 'I' for Inactive)
REMARK    1  A    between atoms: N_7  and  C_12
REMARK                            x       y       z     vdW  Elec       q    Type
REMARK                         _______ _______ _______ _____ _____    ______ ____
ROOT
ATOM      1  O   UNL     1       3.699  -0.843   0.000  0.00  0.00    +0.000 OA
ATOM      2  O   UNL     1       2.264   1.620   0.000  0.00  0.00    +0.000 OA
ATOM      3  N   UNL     1       2.982   0.392   0.000  0.00  0.00    +0.000 NA
ATOM      4  N   UNL     1       2.271  -0.851   0.000  0.00  0.00    +0.000 NA
ATOM      5  C   UNL     1       2.982  -0.436   0.000  0.00  0.00    +0.000 A 
ATOM      6  C   UNL     1       2.264   0.799   0.000  0.00  0.00    +0.000 A 
ATOM      7  C   UNL     1       1.554   0.385   0.000  0.00  0.00    +0.000 A 
ATOM      8  C   UNL     1       1.554  -0.444   0.000  0.00  0.00    +0.000 A 
ENDROOT
TORSDOF 0
