REMARK  Name = 
REMARK  5 active torsions:
REMARK  status: ('A' for Active; 'I' for Inactive)
REMARK    1  A    between atoms: C_2  and  N_3
REMARK    2  A    between atoms: C_4  and  C_24
REMARK    3  A    between atoms: C_9  and  N_16
REMARK    4  A    between atoms: N_26  and  C_27
REMARK    5  A    between atoms: N_26  and  C_30
REMARK                            x       y       z     vdW  Elec       q    Type
REMARK                         _______ _______ _______ _____ _____    ______ ____
ROOT
ATOM      1  N   UNL     1       4.739  -0.057   0.000  0.00  0.00    +0.000 N 
ATOM      2  C   UNL     1       4.825   0.763   0.000  0.00  0.00    +0.000 A 
ATOM      3  C   UNL     1       4.072   1.099   0.000  0.00  0.00    +0.000 A 
ATOM      4  C   UNL     1       3.520   0.486   0.000  0.00  0.00    +0.000 A 
ATOM      5  C   UNL     1       3.932  -0.229   0.000  0.00  0.00    +0.000 A 
ATOM      6  N   UNL     1       3.520  -0.943   0.000  0.00  0.00    +0.000 NA
ATOM      7  C   UNL     1       2.695  -0.943   0.000  0.00  0.00    +0.000 A 
ATOM      8  C   UNL     1       2.282  -0.229   0.000  0.00  0.00    +0.000 A 
ATOM      9  C   UNL     1       2.695   0.486   0.000  0.00  0.00    +0.000 A 
ATOM     10  N   UNL     1       2.143   1.099   0.000  0.00  0.00    +0.000 N 
ATOM     11  C   UNL     1       1.389   0.763   0.000  0.00  0.00    +0.000 A 
ATOM     12  N   UNL     1       1.475  -0.057   0.000  0.00  0.00    +0.000 NA
ATOM     13  C   UNL     1       2.314   1.906   0.000  0.00  0.00    +0.000 C 
ENDROOT
BRANCH   7  14
ATOM     14  N   UNL     1       2.282  -1.658   0.000  0.00  0.00    +0.000 NA
ATOM     15  C   UNL     1       1.457  -1.658   0.000  0.00  0.00    +0.000 A 
ATOM     16  C   UNL     1       0.972  -2.325   0.000  0.00  0.00    +0.000 A 
ATOM     17  C   UNL     1       0.188  -2.070   0.000  0.00  0.00    +0.000 A 
ATOM     18  N   UNL     1       0.188  -1.245   0.000  0.00  0.00    +0.000 N 
ATOM     19  N   UNL     1       0.972  -0.990   0.000  0.00  0.00    +0.000 NA
ATOM     20  C   UNL     1      -0.480  -0.760   0.000  0.00  0.00    +0.000 C 
ATOM     21  C   UNL     1      -0.480  -2.555   0.000  0.00  0.00    +0.000 C 
ENDBRANCH   7  14
BRANCH   2  22
ATOM     22  C   UNL     1       5.540   1.176   0.000  0.00  0.00    +0.000 C 
ATOM     23  O   UNL     1       6.254   0.763   0.000  0.00  0.00    +0.000 OA
ATOM     24  N   UNL     1       5.540   2.001   0.000  0.00  0.00    +0.000 N 
BRANCH  24  25
ATOM     25  C   UNL     1       6.254   2.413   0.000  0.00  0.00    +0.000 C 
ATOM     26  C   UNL     1       6.667   3.128   0.000  0.00  0.00    +0.000 C 
ATOM     27  C   UNL     1       7.079   2.413   0.000  0.00  0.00    +0.000 C 
ENDBRANCH  24  25
BRANCH  24  28
ATOM     28  C   UNL     1       4.825   2.413   0.000  0.00  0.00    +0.000 C 
ATOM     29  C   UNL     1       4.000   2.413   0.000  0.00  0.00    +0.000 C 
ATOM     30  C   UNL     1       4.413   3.128   0.000  0.00  0.00    +0.000 C 
ENDBRANCH  24  28
ENDBRANCH   2  22
BRANCH   1  32
ATOM     31  C   UNL     1       5.181  -1.416   0.000  0.00  0.00    +0.000 C 
ATOM     32  C   UNL     1       5.352  -0.609   0.000  0.00  0.00    +0.000 C 
ENDBRANCH   1  32
TORSDOF 5
