REMARK  Name = 
REMARK  5 active torsions:
REMARK  status: ('A' for Active; 'I' for Inactive)
REMARK    1  A    between atoms: C_4  and  C_7
REMARK    2  A    between atoms: C_7  and  C_8
REMARK    3  A    between atoms: C_13  and  C_19
REMARK    4  A    between atoms: C_21  and  C_28
REMARK    5  A    between atoms: C_24  and  C_25
REMARK                            x       y       z     vdW  Elec       q    Type
REMARK                         _______ _______ _______ _____ _____    ______ ____
ROOT
ATOM      1  C   UNL     1       0.715  -1.238   0.000  0.00  0.00    +0.000 C 
ATOM      2  C   UNL     1       0.715  -0.412   0.000  0.00  0.00    +0.000 C 
ATOM      3  O   UNL     1       1.429   0.000   0.000  0.00  0.00    +0.000 OA
ATOM      4  C   UNL     1       2.143  -0.412   0.000  0.00  0.00    +0.000 A 
ATOM      5  C   UNL     1       2.858   0.000   0.000  0.00  0.00    +0.000 A 
ATOM      6  C   UNL     1       3.572  -0.412   0.000  0.00  0.00    +0.000 A 
ATOM      7  C   UNL     1       3.572  -1.238   0.000  0.00  0.00    +0.000 A 
ATOM      8  C   UNL     1       2.858  -1.650   0.000  0.00  0.00    +0.000 A 
ATOM      9  C   UNL     1       2.143  -1.238   0.000  0.00  0.00    +0.000 A 
ATOM     10  C   UNL     1       1.429  -1.650   0.000  0.00  0.00    +0.000 C 
ATOM     11  O   UNL     1       1.429  -2.475   0.000  0.00  0.00    +0.000 OA
ENDROOT
BRANCH   6  12
ATOM     12  C   UNL     1       4.287   0.000   0.000  0.00  0.00    +0.000 A 
ATOM     13  C   UNL     1       4.287   0.825   0.000  0.00  0.00    +0.000 A 
ATOM     14  C   UNL     1       5.001   1.238   0.000  0.00  0.00    +0.000 A 
ATOM     15  C   UNL     1       5.716   0.825   0.000  0.00  0.00    +0.000 A 
ATOM     16  C   UNL     1       5.716   0.000   0.000  0.00  0.00    +0.000 A 
ATOM     17  C   UNL     1       5.001  -0.412   0.000  0.00  0.00    +0.000 A 
BRANCH  14  18
ATOM     18  C   UNL     1       5.001   2.062   0.000  0.00  0.00    +0.000 C 
ATOM     19  F   UNL     1       5.001   2.888   0.000  0.00  0.00    +0.000 F 
ATOM     20  F   UNL     1       5.826   2.062   0.000  0.00  0.00    +0.000 F 
ATOM     21  F   UNL     1       4.176   2.062   0.000  0.00  0.00    +0.000 F 
ENDBRANCH  14  18
BRANCH  17  22
ATOM     22  C   UNL     1       5.001  -1.238   0.000  0.00  0.00    +0.000 C 
ATOM     23  O   UNL     1       4.287  -1.650   0.000  0.00  0.00    +0.000 OA
ATOM     24  O   UNL     1       5.716  -1.650   0.000  0.00  0.00    +0.000 OA
ENDBRANCH  17  22
ENDBRANCH   6  12
BRANCH   1  25
ATOM     25  C   UNL     1       0.000  -1.650   0.000  0.00  0.00    +0.000 C 
BRANCH  25  29
ATOM     26  C   UNL     1       0.000  -4.125   0.000  0.00  0.00    +0.000 A 
ATOM     27  C   UNL     1      -0.715  -3.712   0.000  0.00  0.00    +0.000 A 
ATOM     28  C   UNL     1      -0.715  -2.888   0.000  0.00  0.00    +0.000 A 
ATOM     29  C   UNL     1       0.000  -2.475   0.000  0.00  0.00    +0.000 A 
ATOM     30  C   UNL     1       0.715  -2.888   0.000  0.00  0.00    +0.000 A 
ATOM     31  C   UNL     1       0.715  -3.712   0.000  0.00  0.00    +0.000 A 
ENDBRANCH  25  29
ENDBRANCH   1  25
TORSDOF 5
