REMARK  Name = 
REMARK  6 active torsions:
REMARK  status: ('A' for Active; 'I' for Inactive)
REMARK    1  A    between atoms: C_3  and  C_12
REMARK    2  A    between atoms: C_12  and  C_13
REMARK    3  A    between atoms: C_13  and  N_14
REMARK    4  A    between atoms: N_17  and  C_20
REMARK    5  A    between atoms: C_20  and  C_21
REMARK    6  A    between atoms: C_21  and  C_22
REMARK                            x       y       z     vdW  Elec       q    Type
REMARK                         _______ _______ _______ _____ _____    ______ ____
ROOT
ATOM      1  N   UNL     1       6.210   4.410   0.000  0.00  0.00    +0.000 NA
ATOM      2  C   UNL     1       6.210   3.585   0.000  0.00  0.00    +0.000 C 
ATOM      3  C   UNL     1       5.496   3.173   0.000  0.00  0.00    +0.000 C 
ATOM      4  N   UNL     1       4.781   3.585   0.000  0.00  0.00    +0.000 NA
ATOM      5  C   UNL     1       4.781   4.410   0.000  0.00  0.00    +0.000 C 
ATOM      6  C   UNL     1       5.496   4.823   0.000  0.00  0.00    +0.000 C 
ENDROOT
BRANCH   1   7
ATOM      7  C   UNL     1       6.925   4.823   0.000  0.00  0.00    +0.000 C 
BRANCH   7   8
ATOM      8  C   UNL     1       6.925   5.648   0.000  0.00  0.00    +0.000 C 
ATOM      9  O   UNL     1       6.210   6.060   0.000  0.00  0.00    +0.000 OA
BRANCH   8  12
ATOM     10  C   UNL     1       8.354   4.823   0.000  0.00  0.00    +0.000 C 
ATOM     11  C   UNL     1       8.354   5.648   0.000  0.00  0.00    +0.000 A 
ATOM     12  C   UNL     1       7.639   6.060   0.000  0.00  0.00    +0.000 A 
ATOM     13  C   UNL     1       7.639   6.885   0.000  0.00  0.00    +0.000 A 
ATOM     14  C   UNL     1       8.354   7.298   0.000  0.00  0.00    +0.000 A 
ATOM     15  C   UNL     1       9.068   6.885   0.000  0.00  0.00    +0.000 A 
ATOM     16  C   UNL     1       9.068   6.060   0.000  0.00  0.00    +0.000 A 
ATOM     17  C   UNL     1       9.853   5.806   0.000  0.00  0.00    +0.000 C 
ATOM     18  O   UNL     1      10.338   6.473   0.000  0.00  0.00    +0.000 OA
ATOM     19  C   UNL     1       9.853   7.140   0.000  0.00  0.00    +0.000 C 
ATOM     20  O   UNL     1      10.108   7.925   0.000  0.00  0.00    +0.000 OA
ENDBRANCH   8  12
ENDBRANCH   7   8
ENDBRANCH   1   7
BRANCH   4  21
ATOM     21  C   UNL     1       4.067   3.173   0.000  0.00  0.00    +0.000 C 
BRANCH  21  22
ATOM     22  C   UNL     1       4.067   2.348   0.000  0.00  0.00    +0.000 C 
ATOM     23  O   UNL     1       4.781   1.935   0.000  0.00  0.00    +0.000 OA
BRANCH  22  24
ATOM     24  C   UNL     1       3.352   1.935   0.000  0.00  0.00    +0.000 A 
ATOM     25  C   UNL     1       3.352   1.110   0.000  0.00  0.00    +0.000 A 
ATOM     26  C   UNL     1       2.638   0.698   0.000  0.00  0.00    +0.000 A 
ATOM     27  C   UNL     1       1.923   1.110   0.000  0.00  0.00    +0.000 A 
ATOM     28  C   UNL     1       1.923   1.935   0.000  0.00  0.00    +0.000 A 
ATOM     29  C   UNL     1       2.638   2.348   0.000  0.00  0.00    +0.000 A 
ATOM     30  C   UNL     1       2.638   3.173   0.000  0.00  0.00    +0.000 C 
ATOM     31  C   UNL     1       1.139   2.190   0.000  0.00  0.00    +0.000 C 
ATOM     32  O   UNL     1       0.654   1.523   0.000  0.00  0.00    +0.000 OA
ATOM     33  C   UNL     1       1.139   0.856   0.000  0.00  0.00    +0.000 C 
ATOM     34  O   UNL     1       0.884   0.071   0.000  0.00  0.00    +0.000 OA
ENDBRANCH  22  24
ENDBRANCH  21  22
ENDBRANCH   4  21
TORSDOF 6
