REMARK  Name = 
REMARK  11 active torsions:
REMARK  status: ('A' for Active; 'I' for Inactive)
REMARK    1  A    between atoms: C_2  and  C_4
REMARK    2  A    between atoms: C_4  and  O_5
REMARK    3  A    between atoms: C_4  and  O_11
REMARK    4  A    between atoms: O_5  and  C_6
REMARK    5  A    between atoms: C_6  and  C_8
REMARK    6  A    between atoms: O_11  and  C_12
REMARK    7  A    between atoms: N_14  and  C_15
REMARK    8  A    between atoms: C_15  and  C_16
REMARK    9  A    between atoms: C_16  and  C_17
REMARK   10  A    between atoms: C_16  and  C_21
REMARK   11  A    between atoms: C_17  and  C_18
REMARK                            x       y       z     vdW  Elec       q    Type
REMARK                         _______ _______ _______ _____ _____    ______ ____
ROOT
ATOM      1  C   UNL     1       6.941  -7.446   0.000  0.00  0.00    +0.000 C 
ATOM      2  O   UNL     1       6.743  -8.247   0.000  0.00  0.00    +0.000 OA
ATOM      3  N   UNL     1       7.734  -7.217   0.000  0.00  0.00    +0.000 NA
ENDROOT
BRANCH   1   4
ATOM      4  O   UNL     1       6.347  -6.874   0.000  0.00  0.00    +0.000 OA
BRANCH   4   5
ATOM      5  C   UNL     1       5.554  -7.103   0.000  0.00  0.00    +0.000 C 
BRANCH   5   7
ATOM      6  C   UNL     1       5.950  -8.476   0.000  0.00  0.00    +0.000 C 
ATOM      7  C   UNL     1       5.356  -7.904   0.000  0.00  0.00    +0.000 C 
ATOM      8  C   UNL     1       4.563  -8.132   0.000  0.00  0.00    +0.000 C 
ENDBRANCH   5   7
BRANCH   5   9
ATOM      9  O   UNL     1       4.960  -6.531   0.000  0.00  0.00    +0.000 OA
BRANCH   9  10
ATOM     10  C   UNL     1       4.167  -6.760   0.000  0.00  0.00    +0.000 C 
ATOM     11  O   UNL     1       3.969  -7.560   0.000  0.00  0.00    +0.000 OA
BRANCH  10  12
ATOM     12  C   UNL     1       3.572  -6.188   0.000  0.00  0.00    +0.000 C 
ATOM     13  C   UNL     1       2.780  -6.416   0.000  0.00  0.00    +0.000 C 
ATOM     14  C   UNL     1       3.771  -5.387   0.000  0.00  0.00    +0.000 C 
ENDBRANCH  10  12
ENDBRANCH   9  10
ENDBRANCH   5   9
ENDBRANCH   4   5
ENDBRANCH   1   4
BRANCH   3  15
ATOM     15  C   UNL     1       8.328  -7.789   0.000  0.00  0.00    +0.000 C 
BRANCH  15  16
ATOM     16  C   UNL     1       9.121  -7.560   0.000  0.00  0.00    +0.000 C 
BRANCH  16  17
ATOM     17  C   UNL     1       9.715  -8.132   0.000  0.00  0.00    +0.000 A 
ATOM     18  C   UNL     1      10.508  -7.904   0.000  0.00  0.00    +0.000 A 
ATOM     19  C   UNL     1      11.102  -8.476   0.000  0.00  0.00    +0.000 A 
ATOM     20  C   UNL     1      10.904  -9.277   0.000  0.00  0.00    +0.000 A 
ATOM     21  C   UNL     1      10.112  -9.505   0.000  0.00  0.00    +0.000 A 
ATOM     22  C   UNL     1       9.517  -8.933   0.000  0.00  0.00    +0.000 A 
ATOM     23 CL   UNL     1      11.499  -9.848   0.000  0.00  0.00    +0.000 Cl
ENDBRANCH  16  17
BRANCH  16  24
ATOM     24  C   UNL     1       9.319  -6.760   0.000  0.00  0.00    +0.000 C 
BRANCH  24  25
ATOM     25  C   UNL     1       8.725  -6.188   0.000  0.00  0.00    +0.000 C 
ATOM     26  O   UNL     1       7.932  -6.416   0.000  0.00  0.00    +0.000 OA
ATOM     27  O   UNL     1       8.923  -5.387   0.000  0.00  0.00    +0.000 OA
ENDBRANCH  24  25
ENDBRANCH  16  24
ENDBRANCH  15  16
ENDBRANCH   3  15
TORSDOF 11
