REMARK  Name = 
REMARK  5 active torsions:
REMARK  status: ('A' for Active; 'I' for Inactive)
REMARK    1  A    between atoms: C_1  and  C_2
REMARK    2  A    between atoms: C_1  and  C_4
REMARK    3  A    between atoms: C_2  and  C_3
REMARK    4  A    between atoms: C_2  and  C_7
REMARK    5  A    between atoms: C_3  and  C_10
REMARK                            x       y       z     vdW  Elec       q    Type
REMARK                         _______ _______ _______ _____ _____    ______ ____
ROOT
ATOM      1  C   UNL     1       0.000  -0.412   0.000  0.00  0.00    +0.000 C 
ENDROOT
BRANCH   1   2
ATOM      2  C   UNL     1       0.000   0.412   0.000  0.00  0.00    +0.000 C 
ATOM      3  O   UNL     1      -0.715   0.825   0.000  0.00  0.00    +0.000 OA
ATOM      4  O   UNL     1       0.715   0.825   0.000  0.00  0.00    +0.000 OA
ENDBRANCH   1   2
BRANCH   1   5
ATOM      5  C   UNL     1      -0.715  -0.825   0.000  0.00  0.00    +0.000 C 
BRANCH   5   6
ATOM      6  C   UNL     1      -1.429  -0.412   0.000  0.00  0.00    +0.000 C 
ATOM      7  O   UNL     1      -1.429   0.412   0.000  0.00  0.00    +0.000 OA
ATOM      8  O   UNL     1      -2.144  -0.825   0.000  0.00  0.00    +0.000 OA
ENDBRANCH   5   6
ENDBRANCH   1   5
BRANCH   1   9
ATOM      9  C   UNL     1       0.715  -0.825   0.000  0.00  0.00    +0.000 C 
BRANCH   9  10
ATOM     10  C   UNL     1       1.429  -0.412   0.000  0.00  0.00    +0.000 C 
ATOM     11  O   UNL     1       1.429   0.412   0.000  0.00  0.00    +0.000 OA
ATOM     12  O   UNL     1       2.144  -0.825   0.000  0.00  0.00    +0.000 OA
ENDBRANCH   9  10
ENDBRANCH   1   9
TORSDOF 5
