REMARK  Name = 
REMARK  0 active torsions:
REMARK  status: ('A' for Active; 'I' for Inactive)
REMARK                            x       y       z     vdW  Elec       q    Type
REMARK                         _______ _______ _______ _____ _____    ______ ____
ROOT
ATOM      1  C   UNL     1       4.751   0.858   0.000  0.00  0.00    +0.000 A 
ATOM      2  C   UNL     1       4.018   1.237   0.000  0.00  0.00    +0.000 A 
ATOM      3  C   UNL     1       3.324   0.791   0.000  0.00  0.00    +0.000 A 
ATOM      4  C   UNL     1       3.362  -0.033   0.000  0.00  0.00    +0.000 A 
ATOM      5  N   UNL     1       4.095  -0.412   0.000  0.00  0.00    +0.000 NA
ATOM      6  C   UNL     1       4.790   0.034   0.000  0.00  0.00    +0.000 A 
ATOM      7  O   UNL     1       2.590  -0.324   0.000  0.00  0.00    +0.000 OA
ATOM      8  C   UNL     1       2.075   0.320   0.000  0.00  0.00    +0.000 C 
ATOM      9  C   UNL     1       2.528   1.010   0.000  0.00  0.00    +0.000 C 
ATOM     10  C   UNL     1       1.696  -0.412   0.000  0.00  0.00    +0.000 C 
ATOM     11  N   UNL     1       0.872  -0.451   0.000  0.00  0.00    +0.000 NA
ATOM     12  C   UNL     1       0.427   0.244   0.000  0.00  0.00    +0.000 C 
ATOM     13  C   UNL     1       0.805   0.977   0.000  0.00  0.00    +0.000 C 
ATOM     14  C   UNL     1       1.630   1.015   0.000  0.00  0.00    +0.000 C 
ATOM     15  C   UNL     1       1.255   0.590   0.000  0.00  0.00    +0.000 C 
ATOM     16  C   UNL     1       1.002   0.101   0.000  0.00  0.00    +0.000 C 
ENDROOT
TORSDOF 0
