REMARK  Name = 
REMARK  4 active torsions:
REMARK  status: ('A' for Active; 'I' for Inactive)
REMARK    1  A    between atoms: C_2  and  S_13
REMARK    2  A    between atoms: C_4  and  S_9
REMARK    3  A    between atoms: C_18  and  S_29
REMARK    4  A    between atoms: C_20  and  S_25
REMARK                            x       y       z     vdW  Elec       q    Type
REMARK                         _______ _______ _______ _____ _____    ______ ____
ROOT
ATOM      1  C   UNL     1       0.893   0.639   0.000  0.00  0.00    +0.000 A 
ATOM      2  C   UNL     1       0.893  -0.186   0.000  0.00  0.00    +0.000 A 
ATOM      3  C   UNL     1       0.179  -0.598   0.000  0.00  0.00    +0.000 A 
ATOM      4  C   UNL     1      -0.536  -0.186   0.000  0.00  0.00    +0.000 A 
ATOM      5  C   UNL     1      -0.536   0.639   0.000  0.00  0.00    +0.000 A 
ATOM      6  C   UNL     1       0.179   1.052   0.000  0.00  0.00    +0.000 A 
ATOM      7  O   UNL     1       0.179   1.877   0.000  0.00  0.00    +0.000 OA
ATOM      8  O   UNL     1      -1.250   1.052   0.000  0.00  0.00    +0.000 OA
ENDROOT
BRANCH   4   9
ATOM      9  S   UNL     1      -1.250  -0.598   0.000  0.00  0.00    +0.000 S 
ATOM     10  O   UNL     1      -1.663   0.116   0.000  0.00  0.00    +0.000 OA
ATOM     11  O   UNL     1      -0.838  -1.313   0.000  0.00  0.00    +0.000 OA
ATOM     12  O   UNL     1      -1.965  -1.011   0.000  0.00  0.00    +0.000 OA
ENDBRANCH   4   9
BRANCH   2  13
ATOM     13  S   UNL     1       1.608  -0.598   0.000  0.00  0.00    +0.000 S 
ATOM     14  O   UNL     1       1.195  -1.313   0.000  0.00  0.00    +0.000 OA
ATOM     15  O   UNL     1       2.020   0.116   0.000  0.00  0.00    +0.000 OA
ATOM     16  O   UNL     1       2.322  -1.011   0.000  0.00  0.00    +0.000 OA
ENDBRANCH   2  13
TORSDOF 2
REMARK  Name = 
REMARK  4 active torsions:
REMARK  status: ('A' for Active; 'I' for Inactive)
REMARK    1  A    between atoms: C_2  and  S_13
REMARK    2  A    between atoms: C_4  and  S_9
REMARK    3  A    between atoms: C_18  and  S_29
REMARK    4  A    between atoms: C_20  and  S_25
REMARK                            x       y       z     vdW  Elec       q    Type
REMARK                         _______ _______ _______ _____ _____    ______ ____
ROOT
ATOM      1  C   UNL     1       8.487   0.481   0.000  0.00  0.00    +0.000 A 
ATOM      2  C   UNL     1       8.487  -0.344   0.000  0.00  0.00    +0.000 A 
ATOM      3  C   UNL     1       7.773  -0.756   0.000  0.00  0.00    +0.000 A 
ATOM      4  C   UNL     1       7.058  -0.344   0.000  0.00  0.00    +0.000 A 
ATOM      5  C   UNL     1       7.058   0.481   0.000  0.00  0.00    +0.000 A 
ATOM      6  C   UNL     1       7.773   0.894   0.000  0.00  0.00    +0.000 A 
ATOM      7  O   UNL     1       7.773   1.719   0.000  0.00  0.00    +0.000 OA
ATOM      8  O   UNL     1       6.344   0.894   0.000  0.00  0.00    +0.000 OA
ENDROOT
BRANCH   4   9
ATOM      9  S   UNL     1       6.344  -0.756   0.000  0.00  0.00    +0.000 S 
ATOM     10  O   UNL     1       5.629  -1.169   0.000  0.00  0.00    +0.000 OA
ATOM     11  O   UNL     1       5.931  -0.042   0.000  0.00  0.00    +0.000 OA
ATOM     12  O   UNL     1       6.756  -1.471   0.000  0.00  0.00    +0.000 OA
ENDBRANCH   4   9
BRANCH   2  13
ATOM     13  S   UNL     1       9.202  -0.756   0.000  0.00  0.00    +0.000 S 
ATOM     14  O   UNL     1       9.916  -1.169   0.000  0.00  0.00    +0.000 OA
ATOM     15  O   UNL     1       9.614  -0.042   0.000  0.00  0.00    +0.000 OA
ATOM     16  O   UNL     1       8.789  -1.471   0.000  0.00  0.00    +0.000 OA
ENDBRANCH   2  13
TORSDOF 2
REMARK  Name = 
REMARK  4 active torsions:
REMARK  status: ('A' for Active; 'I' for Inactive)
REMARK    1  A    between atoms: C_2  and  S_13
REMARK    2  A    between atoms: C_4  and  S_9
REMARK    3  A    between atoms: C_18  and  S_29
REMARK    4  A    between atoms: C_20  and  S_25
REMARK                            x       y       z     vdW  Elec       q    Type
REMARK                         _______ _______ _______ _____ _____    ______ ____
ROOT
ATOM      1  O   HOH     1      12.273   0.000   0.000  0.00  0.00    +0.000 OA
ENDROOT
TORSDOF 0
REMARK  Name = 
REMARK  4 active torsions:
REMARK  status: ('A' for Active; 'I' for Inactive)
REMARK    1  A    between atoms: C_2  and  S_13
REMARK    2  A    between atoms: C_4  and  S_9
REMARK    3  A    between atoms: C_18  and  S_29
REMARK    4  A    between atoms: C_20  and  S_25
REMARK                            x       y       z     vdW  Elec       q    Type
REMARK                         _______ _______ _______ _____ _____    ______ ____
ROOT
ATOM      1  O   HOH     1       0.000  -3.121   0.000  0.00  0.00    +0.000 OA
ENDROOT
TORSDOF 0
REMARK  Name = 
REMARK  4 active torsions:
REMARK  status: ('A' for Active; 'I' for Inactive)
REMARK    1  A    between atoms: C_2  and  S_13
REMARK    2  A    between atoms: C_4  and  S_9
REMARK    3  A    between atoms: C_18  and  S_29
REMARK    4  A    between atoms: C_20  and  S_25
REMARK                            x       y       z     vdW  Elec       q    Type
REMARK                         _______ _______ _______ _____ _____    ______ ____
ROOT
ATOM      1  O   HOH     1       2.357  -3.121   0.000  0.00  0.00    +0.000 OA
ENDROOT
TORSDOF 0
REMARK  Name = 
REMARK  4 active torsions:
REMARK  status: ('A' for Active; 'I' for Inactive)
REMARK    1  A    between atoms: C_2  and  S_13
REMARK    2  A    between atoms: C_4  and  S_9
REMARK    3  A    between atoms: C_18  and  S_29
REMARK    4  A    between atoms: C_20  and  S_25
REMARK                            x       y       z     vdW  Elec       q    Type
REMARK                         _______ _______ _______ _____ _____    ______ ____
ROOT
ATOM      1  O   HOH     1       4.714  -3.121   0.000  0.00  0.00    +0.000 OA
ENDROOT
TORSDOF 0
REMARK  Name = 
REMARK  4 active torsions:
REMARK  status: ('A' for Active; 'I' for Inactive)
REMARK    1  A    between atoms: C_2  and  S_13
REMARK    2  A    between atoms: C_4  and  S_9
REMARK    3  A    between atoms: C_18  and  S_29
REMARK    4  A    between atoms: C_20  and  S_25
REMARK                            x       y       z     vdW  Elec       q    Type
REMARK                         _______ _______ _______ _____ _____    ______ ____
ROOT
ATOM      1  O   HOH     1       0.000  -4.771   0.000  0.00  0.00    +0.000 OA
ENDROOT
TORSDOF 0
REMARK  Name = 
REMARK  4 active torsions:
REMARK  status: ('A' for Active; 'I' for Inactive)
REMARK    1  A    between atoms: C_2  and  S_13
REMARK    2  A    between atoms: C_4  and  S_9
REMARK    3  A    between atoms: C_18  and  S_29
REMARK    4  A    between atoms: C_20  and  S_25
REMARK                            x       y       z     vdW  Elec       q    Type
REMARK                         _______ _______ _______ _____ _____    ______ ____
ROOT
ATOM      1  O   HOH     1       2.357  -4.771   0.000  0.00  0.00    +0.000 OA
ENDROOT
TORSDOF 0
REMARK  Name = 
REMARK  4 active torsions:
REMARK  status: ('A' for Active; 'I' for Inactive)
REMARK    1  A    between atoms: C_2  and  S_13
REMARK    2  A    between atoms: C_4  and  S_9
REMARK    3  A    between atoms: C_18  and  S_29
REMARK    4  A    between atoms: C_20  and  S_25
REMARK                            x       y       z     vdW  Elec       q    Type
REMARK                         _______ _______ _______ _____ _____    ______ ____
ROOT
ATOM      1  O   HOH     1       4.714  -4.771   0.000  0.00  0.00    +0.000 OA
ENDROOT
TORSDOF 0
REMARK  Name = 
REMARK  4 active torsions:
REMARK  status: ('A' for Active; 'I' for Inactive)
REMARK    1  A    between atoms: C_2  and  S_13
REMARK    2  A    between atoms: C_4  and  S_9
REMARK    3  A    between atoms: C_18  and  S_29
REMARK    4  A    between atoms: C_20  and  S_25
REMARK                            x       y       z     vdW  Elec       q    Type
REMARK                         _______ _______ _______ _____ _____    ______ ____
ROOT
ATOM      1 NA   UNL     1       0.179   2.702   0.000  0.00  0.00    +0.000 Na
ENDROOT
TORSDOF 0
REMARK  Name = 
REMARK  4 active torsions:
REMARK  status: ('A' for Active; 'I' for Inactive)
REMARK    1  A    between atoms: C_2  and  S_13
REMARK    2  A    between atoms: C_4  and  S_9
REMARK    3  A    between atoms: C_18  and  S_29
REMARK    4  A    between atoms: C_20  and  S_25
REMARK                            x       y       z     vdW  Elec       q    Type
REMARK                         _______ _______ _______ _____ _____    ______ ____
ROOT
ATOM      1 NA   UNL     1      -1.965   1.464   0.000  0.00  0.00    +0.000 Na
ENDROOT
TORSDOF 0
REMARK  Name = 
REMARK  4 active torsions:
REMARK  status: ('A' for Active; 'I' for Inactive)
REMARK    1  A    between atoms: C_2  and  S_13
REMARK    2  A    between atoms: C_4  and  S_9
REMARK    3  A    between atoms: C_18  and  S_29
REMARK    4  A    between atoms: C_20  and  S_25
REMARK                            x       y       z     vdW  Elec       q    Type
REMARK                         _______ _______ _______ _____ _____    ______ ____
ROOT
ATOM      1 NA   UNL     1      -2.679  -1.423   0.000  0.00  0.00    +0.000 Na
ENDROOT
TORSDOF 0
REMARK  Name = 
REMARK  4 active torsions:
REMARK  status: ('A' for Active; 'I' for Inactive)
REMARK    1  A    between atoms: C_2  and  S_13
REMARK    2  A    between atoms: C_4  and  S_9
REMARK    3  A    between atoms: C_18  and  S_29
REMARK    4  A    between atoms: C_20  and  S_25
REMARK                            x       y       z     vdW  Elec       q    Type
REMARK                         _______ _______ _______ _____ _____    ______ ____
ROOT
ATOM      1 NA   UNL     1       3.037  -1.423   0.000  0.00  0.00    +0.000 Na
ENDROOT
TORSDOF 0
REMARK  Name = 
REMARK  4 active torsions:
REMARK  status: ('A' for Active; 'I' for Inactive)
REMARK    1  A    between atoms: C_2  and  S_13
REMARK    2  A    between atoms: C_4  and  S_9
REMARK    3  A    between atoms: C_18  and  S_29
REMARK    4  A    between atoms: C_20  and  S_25
REMARK                            x       y       z     vdW  Elec       q    Type
REMARK                         _______ _______ _______ _____ _____    ______ ____
ROOT
ATOM      1 NA   UNL     1       7.773   2.544   0.000  0.00  0.00    +0.000 Na
ENDROOT
TORSDOF 0
REMARK  Name = 
REMARK  4 active torsions:
REMARK  status: ('A' for Active; 'I' for Inactive)
REMARK    1  A    between atoms: C_2  and  S_13
REMARK    2  A    between atoms: C_4  and  S_9
REMARK    3  A    between atoms: C_18  and  S_29
REMARK    4  A    between atoms: C_20  and  S_25
REMARK                            x       y       z     vdW  Elec       q    Type
REMARK                         _______ _______ _______ _____ _____    ______ ____
ROOT
ATOM      1 SB   UNL     1       5.629   1.306   0.000  0.00  0.00    +0.000 Sb
ENDROOT
TORSDOF 0
