REMARK  Name = 
REMARK  6 active torsions:
REMARK  status: ('A' for Active; 'I' for Inactive)
REMARK    1  A    between atoms: C_3  and  C_6
REMARK    2  A    between atoms: C_3  and  C_13
REMARK    3  A    between atoms: C_6  and  C_21
REMARK    4  A    between atoms: C_13  and  N_25
REMARK    5  A    between atoms: C_16  and  C_21
REMARK    6  A    between atoms: C_18  and  N_26
REMARK                            x       y       z     vdW  Elec       q    Type
REMARK                         _______ _______ _______ _____ _____    ______ ____
ROOT
ATOM      1  C   UNL     1       1.436   3.588   0.000  0.00  0.00    +0.000 C 
ATOM      2  C   UNL     1       0.077   3.147   0.000  0.00  0.00    +0.000 C 
ATOM      3  C   UNL     1       1.181   4.373   0.000  0.00  0.00    +0.000 C 
ATOM      4  C   UNL     1      -0.178   3.931   0.000  0.00  0.00    +0.000 C 
ATOM      5  C   UNL     1       0.884   2.975   0.000  0.00  0.00    +0.000 C 
ATOM      6  N   UNL     1       0.374   4.544   0.000  0.00  0.00    +0.000 NA
ENDROOT
BRANCH   5  15
ATOM      7  C   UNL     1       3.352   1.110   0.000  0.00  0.00    +0.000 A 
ATOM      8  C   UNL     1       3.352   1.935   0.000  0.00  0.00    +0.000 A 
ATOM      9  C   UNL     1       2.638   0.698   0.000  0.00  0.00    +0.000 A 
ATOM     10  C   UNL     1       2.638   2.348   0.000  0.00  0.00    +0.000 A 
ATOM     11  C   UNL     1       1.923   1.110   0.000  0.00  0.00    +0.000 A 
ATOM     12  C   UNL     1       1.923   1.935   0.000  0.00  0.00    +0.000 A 
ATOM     13  C   UNL     1       0.654   1.523   0.000  0.00  0.00    +0.000 A 
ATOM     14  N   UNL     1       1.139   0.856   0.000  0.00  0.00    +0.000 NA
ATOM     15  N   UNL     1       1.139   2.190   0.000  0.00  0.00    +0.000 N 
ATOM     16  O   UNL     1      -0.171   1.523   0.000  0.00  0.00    +0.000 OA
ENDBRANCH   5  15
BRANCH   6  17
ATOM     17  C   UNL     1       0.119   5.329   0.000  0.00  0.00    +0.000 C 
BRANCH  17  18
ATOM     18  C   UNL     1       0.671   5.942   0.000  0.00  0.00    +0.000 C 
BRANCH  18  19
ATOM     19  C   UNL     1       0.416   6.727   0.000  0.00  0.00    +0.000 C 
BRANCH  19  20
ATOM     20  C   UNL     1       0.968   7.340   0.000  0.00  0.00    +0.000 C 
ATOM     21  O   UNL     1       1.775   7.168   0.000  0.00  0.00    +0.000 OA
BRANCH  20  26
ATOM     22  C   UNL     1       1.265   8.737   0.000  0.00  0.00    +0.000 A 
ATOM     23  C   UNL     1      -0.094   8.296   0.000  0.00  0.00    +0.000 A 
ATOM     24  C   UNL     1       1.010   9.522   0.000  0.00  0.00    +0.000 A 
ATOM     25  C   UNL     1      -0.349   9.080   0.000  0.00  0.00    +0.000 A 
ATOM     26  C   UNL     1       0.713   8.124   0.000  0.00  0.00    +0.000 A 
ATOM     27  C   UNL     1       0.203   9.694   0.000  0.00  0.00    +0.000 A 
ATOM     28  F   UNL     1      -0.052  10.478   0.000  0.00  0.00    +0.000 F 
ENDBRANCH  20  26
ENDBRANCH  19  20
ENDBRANCH  18  19
ENDBRANCH  17  18
ENDBRANCH   6  17
TORSDOF 6
