REMARK  Name = 
REMARK  11 active torsions:
REMARK  status: ('A' for Active; 'I' for Inactive)
REMARK    1  A    between atoms: N_7  and  CA_9
REMARK    2  A    between atoms: N_8  and  CA_11
REMARK    3  A    between atoms: CA_9  and  CB_10
REMARK    4  A    between atoms: CA_9  and  C_12
REMARK    5  A    between atoms: CB_10  and  CG_14
REMARK    6  A    between atoms: CA_11  and  CB_13
REMARK    7  A    between atoms: CA_11  and  C_19
REMARK    8  A    between atoms: CB_13  and  CG_18
REMARK    9  A    between atoms: C_15  and  C_16
REMARK   10  A    between atoms: C_15  and  C_17
REMARK   11  A    between atoms: C_17  and  C_22
REMARK                            x       y       z     vdW  Elec       q    Type
REMARK                         _______ _______ _______ _____ _____    ______ ____
ROOT
ATOM      1  CA  UNL     1      -1.429   1.444   0.000  0.00  0.00    +0.000 C 
ENDROOT
BRANCH   1   4
ATOM      2  O   UNL     1      -0.714   0.206   0.000  0.00  0.00    +0.000 OA
ATOM      3  N   UNL     1      -2.143   0.206   0.000  0.00  0.00    +0.000 N 
ATOM      4  C   UNL     1      -1.429   0.619   0.000  0.00  0.00    +0.000 C 
ATOM      5  H   UNL     1      -2.586   0.462   0.000  0.00  0.00    +0.000 HD
BRANCH   3   6
ATOM      6  CA  UNL     1      -2.143  -0.619   0.000  0.00  0.00    +0.000 C 
BRANCH   6   9
ATOM      7  O   UNL     1      -0.714  -0.619   0.000  0.00  0.00    +0.000 OA
ATOM      8  OXT UNL     1      -1.429  -1.856   0.000  0.00  0.00    +0.000 OA
ATOM      9  C   UNL     1      -1.429  -1.031   0.000  0.00  0.00    +0.000 C 
ENDBRANCH   6   9
BRANCH   6  10
ATOM     10  CB  UNL     1      -2.858  -1.031   0.000  0.00  0.00    +0.000 C 
BRANCH  10  12
ATOM     11  OH  UNL     1      -2.858  -4.331   0.000  0.00  0.00    +0.000 OA
ATOM     12  CG  UNL     1      -2.858  -1.856   0.000  0.00  0.00    +0.000 A 
ATOM     13  CD1 UNL     1      -2.143  -2.269   0.000  0.00  0.00    +0.000 A 
ATOM     14  CD2 UNL     1      -3.572  -2.269   0.000  0.00  0.00    +0.000 A 
ATOM     15  CE1 UNL     1      -2.143  -3.094   0.000  0.00  0.00    +0.000 A 
ATOM     16  CE2 UNL     1      -3.572  -3.094   0.000  0.00  0.00    +0.000 A 
ATOM     17  CZ  UNL     1      -2.858  -3.506   0.000  0.00  0.00    +0.000 A 
ENDBRANCH  10  12
ENDBRANCH   6  10
ENDBRANCH   3   6
ENDBRANCH   1   4
BRANCH   1  19
ATOM     18  O   UNL     1       0.000   0.619   0.000  0.00  0.00    +0.000 OA
ATOM     19  N   UNL     1      -0.714   1.856   0.000  0.00  0.00    +0.000 N 
ATOM     20  C   ACE A   0       0.000   1.444   0.000  0.00  0.00    +0.000 C 
ATOM     21  H   UNL     1      -0.714   2.368   0.000  0.00  0.00    +0.000 HD
BRANCH  20  23
ATOM     22  S   UNL     1       0.714   2.681   0.000  0.00  0.00    +0.000 S 
ATOM     23  C   UNL     1       0.714   1.856   0.000  0.00  0.00    +0.000 C 
BRANCH  23  24
ATOM     24  C   UNL     1       1.429   1.444   0.000  0.00  0.00    +0.000 C 
BRANCH  24  25
ATOM     25  C   UNL     1       2.143   1.856   0.000  0.00  0.00    +0.000 A 
ATOM     26  C   UNL     1       2.143   2.681   0.000  0.00  0.00    +0.000 A 
ATOM     27  C   UNL     1       2.858   1.444   0.000  0.00  0.00    +0.000 A 
ATOM     28  C   UNL     1       2.858   3.094   0.000  0.00  0.00    +0.000 A 
ATOM     29  C   UNL     1       3.572   1.856   0.000  0.00  0.00    +0.000 A 
ATOM     30  C   UNL     1       3.572   2.681   0.000  0.00  0.00    +0.000 A 
ENDBRANCH  24  25
ENDBRANCH  23  24
ENDBRANCH  20  23
ENDBRANCH   1  19
BRANCH   1  31
ATOM     31  CB  UNL     1      -2.143   1.856   0.000  0.00  0.00    +0.000 C 
BRANCH  31  32
ATOM     32  CG  UNL     1      -2.143   2.681   0.000  0.00  0.00    +0.000 A 
ATOM     33  CD1 UNL     1      -2.858   3.094   0.000  0.00  0.00    +0.000 A 
ATOM     34  CD2 UNL     1      -1.429   3.094   0.000  0.00  0.00    +0.000 A 
ATOM     35  CE1 UNL     1      -2.858   3.919   0.000  0.00  0.00    +0.000 A 
ATOM     36  CE2 UNL     1      -1.429   3.919   0.000  0.00  0.00    +0.000 A 
ATOM     37  CZ  UNL     1      -2.143   4.331   0.000  0.00  0.00    +0.000 A 
ENDBRANCH  31  32
ENDBRANCH   1  31
TORSDOF 11
