REMARK  Name = 
REMARK  5 active torsions:
REMARK  status: ('A' for Active; 'I' for Inactive)
REMARK    1  A    between atoms: C_2  and  C_3
REMARK    2  A    between atoms: C_9  and  O_10
REMARK    3  A    between atoms: C_9  and  C_15
REMARK    4  A    between atoms: O_10  and  C_11
REMARK    5  A    between atoms: C_11  and  C_13
REMARK                            x       y       z     vdW  Elec       q    Type
REMARK                         _______ _______ _______ _____ _____    ______ ____
ROOT
ATOM      1  C   UNL     1       0.855  -0.268   0.000  0.00  0.00    +0.000 C 
ATOM      2  C   UNL     1       0.855  -1.093   0.000  0.00  0.00    +0.000 C 
ATOM      3  N   UNL     1       0.140  -1.505   0.000  0.00  0.00    +0.000 NA
ATOM      4  C   UNL     1       0.140  -2.330   0.000  0.00  0.00    +0.000 C 
ATOM      5  C   UNL     1      -0.574  -1.093   0.000  0.00  0.00    +0.000 C 
ATOM      6  C   UNL     1      -0.574  -0.268   0.000  0.00  0.00    +0.000 C 
ATOM      7  C   UNL     1       0.140   0.145   0.000  0.00  0.00    +0.000 C 
ENDROOT
BRANCH   7   8
ATOM      8  C   UNL     1       0.527   0.873   0.000  0.00  0.00    +0.000 A 
ATOM      9  C   UNL     1       0.090   1.573   0.000  0.00  0.00    +0.000 A 
ATOM     10  C   UNL     1       0.477   2.301   0.000  0.00  0.00    +0.000 A 
ATOM     11  C   UNL     1       1.302   2.330   0.000  0.00  0.00    +0.000 A 
ATOM     12  C   UNL     1       1.739   1.631   0.000  0.00  0.00    +0.000 A 
ATOM     13  C   UNL     1       1.352   0.902   0.000  0.00  0.00    +0.000 A 
ENDBRANCH   7   8
BRANCH   1  15
ATOM     14  C   UNL     1       2.284  -0.268   0.000  0.00  0.00    +0.000 C 
ATOM     15  C   UNL     1       1.569   0.145   0.000  0.00  0.00    +0.000 C 
ENDBRANCH   1  15
BRANCH   7  16
ATOM     16  O   UNL     1      -0.247   0.873   0.000  0.00  0.00    +0.000 OA
BRANCH  16  17
ATOM     17  C   UNL     1      -1.072   0.902   0.000  0.00  0.00    +0.000 C 
ATOM     18  O   UNL     1      -1.509   0.202   0.000  0.00  0.00    +0.000 OA
BRANCH  17  19
ATOM     19  C   UNL     1      -1.459   1.631   0.000  0.00  0.00    +0.000 C 
ATOM     20  C   UNL     1      -2.284   1.659   0.000  0.00  0.00    +0.000 C 
ENDBRANCH  17  19
ENDBRANCH  16  17
ENDBRANCH   7  16
TORSDOF 5
