REMARK  Name = 
REMARK  4 active torsions:
REMARK  status: ('A' for Active; 'I' for Inactive)
REMARK    1  A    between atoms: C_2  and  C_3
REMARK    2  A    between atoms: C_3  and  C_4
REMARK    3  A    between atoms: C_15  and  C_17
REMARK    4  A    between atoms: C_22  and  C_23
REMARK                            x       y       z     vdW  Elec       q    Type
REMARK                         _______ _______ _______ _____ _____    ______ ____
ROOT
ATOM      1  O   UNL     1       4.103  -0.606   0.000  0.00  0.00    +0.000 OA
ATOM      2  C   UNL     1       3.572  -1.238   0.000  0.00  0.00    +0.000 C 
ATOM      3  C   UNL     1       4.287  -1.650   0.000  0.00  0.00    +0.000 C 
ATOM      4  C   UNL     1       4.287  -2.475   0.000  0.00  0.00    +0.000 C 
ATOM      5  N   UNL     1       3.572  -2.888   0.000  0.00  0.00    +0.000 N 
ATOM      6  C   UNL     1       2.858  -2.475   0.000  0.00  0.00    +0.000 C 
ATOM      7  C   UNL     1       2.858  -1.650   0.000  0.00  0.00    +0.000 C 
ATOM      8  C   UNL     1       3.572  -3.712   0.000  0.00  0.00    +0.000 C 
ATOM      9  O   UNL     1       2.858  -4.125   0.000  0.00  0.00    +0.000 OA
ENDROOT
BRANCH   8  10
ATOM     10  C   UNL     1       4.287  -4.125   0.000  0.00  0.00    +0.000 A 
ATOM     11  C   UNL     1       5.001  -3.712   0.000  0.00  0.00    +0.000 A 
ATOM     12  C   UNL     1       5.716  -4.125   0.000  0.00  0.00    +0.000 A 
ATOM     13  C   UNL     1       5.716  -4.950   0.000  0.00  0.00    +0.000 A 
ATOM     14  N   UNL     1       5.001  -5.362   0.000  0.00  0.00    +0.000 NA
ATOM     15  C   UNL     1       4.287  -4.950   0.000  0.00  0.00    +0.000 A 
BRANCH  15  16
ATOM     16  C   UNL     1       3.572  -5.362   0.000  0.00  0.00    +0.000 A 
ATOM     17  C   UNL     1       3.572  -6.188   0.000  0.00  0.00    +0.000 A 
ATOM     18  C   UNL     1       2.858  -6.600   0.000  0.00  0.00    +0.000 A 
ATOM     19  N   UNL     1       2.143  -6.188   0.000  0.00  0.00    +0.000 NA
ATOM     20  C   UNL     1       2.143  -5.362   0.000  0.00  0.00    +0.000 A 
ATOM     21  C   UNL     1       2.858  -4.950   0.000  0.00  0.00    +0.000 A 
ENDBRANCH  15  16
ENDBRANCH   8  10
BRANCH   2  22
ATOM     22  C   UNL     1       3.042  -0.606   0.000  0.00  0.00    +0.000 C 
BRANCH  22  23
ATOM     23  C   UNL     1       3.324   0.170   0.000  0.00  0.00    +0.000 A 
ATOM     24  C   UNL     1       2.794   0.802   0.000  0.00  0.00    +0.000 A 
ATOM     25  C   UNL     1       3.076   1.577   0.000  0.00  0.00    +0.000 A 
ATOM     26  C   UNL     1       3.889   1.720   0.000  0.00  0.00    +0.000 A 
ATOM     27  C   UNL     1       4.419   1.088   0.000  0.00  0.00    +0.000 A 
ATOM     28  C   UNL     1       4.137   0.313   0.000  0.00  0.00    +0.000 A 
ENDBRANCH  22  23
ENDBRANCH   2  22
TORSDOF 4
