REMARK  Name = 
REMARK  8 active torsions:
REMARK  status: ('A' for Active; 'I' for Inactive)
REMARK    1  A    between atoms: O_2  and  C_3
REMARK    2  A    between atoms: C_3  and  C_4
REMARK    3  A    between atoms: C_4  and  N_5
REMARK    4  A    between atoms: N_5  and  C_6
REMARK    5  A    between atoms: C_6  and  C_7
REMARK    6  A    between atoms: C_7  and  C_8
REMARK    7  A    between atoms: C_10  and  N_11
REMARK    8  A    between atoms: C_17  and  C_18
REMARK                            x       y       z     vdW  Elec       q    Type
REMARK                         _______ _______ _______ _____ _____    ______ ____
ROOT
ATOM      1  N   UNL     1      12.861   4.950   0.000  0.00  0.00    +0.000 NA
ATOM      2  C   UNL     1      13.575   4.537   0.000  0.00  0.00    +0.000 A 
ATOM      3  N   UNL     1      14.289   4.950   0.000  0.00  0.00    +0.000 NA
ATOM      4  C   UNL     1      15.004   4.537   0.000  0.00  0.00    +0.000 A 
ATOM      5  C   UNL     1      15.004   3.712   0.000  0.00  0.00    +0.000 A 
ATOM      6  C   UNL     1      15.718   3.300   0.000  0.00  0.00    +0.000 C 
ATOM      7  C   UNL     1      15.718   2.475   0.000  0.00  0.00    +0.000 C 
ATOM      8  C   UNL     1      15.004   2.062   0.000  0.00  0.00    +0.000 A 
ATOM      9  C   UNL     1      15.004   1.238   0.000  0.00  0.00    +0.000 A 
ATOM     10  C   UNL     1      14.289   0.825   0.000  0.00  0.00    +0.000 A 
ATOM     11  C   UNL     1      13.575   1.238   0.000  0.00  0.00    +0.000 A 
ATOM     12  C   UNL     1      13.575   2.062   0.000  0.00  0.00    +0.000 A 
ATOM     13  C   UNL     1      14.289   2.475   0.000  0.00  0.00    +0.000 A 
ATOM     14  C   UNL     1      14.289   3.300   0.000  0.00  0.00    +0.000 A 
ATOM     15  N   UNL     1      13.575   3.712   0.000  0.00  0.00    +0.000 NA
ENDROOT
BRANCH   7  16
ATOM     16  C   UNL     1      16.433   2.062   0.000  0.00  0.00    +0.000 A 
ATOM     17  C   UNL     1      17.147   2.475   0.000  0.00  0.00    +0.000 A 
ATOM     18  C   UNL     1      17.862   2.062   0.000  0.00  0.00    +0.000 A 
ATOM     19  C   UNL     1      17.862   1.238   0.000  0.00  0.00    +0.000 A 
ATOM     20  C   UNL     1      17.147   0.825   0.000  0.00  0.00    +0.000 A 
ATOM     21  C   UNL     1      16.433   1.238   0.000  0.00  0.00    +0.000 A 
ATOM     22  F   UNL     1      15.718   0.825   0.000  0.00  0.00    +0.000 F 
ENDBRANCH   7  16
BRANCH   1  25
ATOM     23  C   UNL     1      10.717   4.537   0.000  0.00  0.00    +0.000 A 
ATOM     24  C   UNL     1      11.431   4.950   0.000  0.00  0.00    +0.000 A 
ATOM     25  C   UNL     1      12.146   4.537   0.000  0.00  0.00    +0.000 A 
ATOM     26  C   UNL     1      12.146   3.712   0.000  0.00  0.00    +0.000 A 
ATOM     27  C   UNL     1      11.431   3.300   0.000  0.00  0.00    +0.000 A 
ATOM     28  C   UNL     1      10.717   3.712   0.000  0.00  0.00    +0.000 A 
BRANCH  23  29
ATOM     29  C   UNL     1      10.003   4.950   0.000  0.00  0.00    +0.000 C 
BRANCH  29  30
ATOM     30  C   UNL     1       9.288   4.537   0.000  0.00  0.00    +0.000 C 
BRANCH  30  31
ATOM     31  N   UNL     1       8.574   4.950   0.000  0.00  0.00    +0.000 NA
BRANCH  31  32
ATOM     32  C   UNL     1       7.859   4.537   0.000  0.00  0.00    +0.000 C 
BRANCH  32  33
ATOM     33  C   UNL     1       7.145   4.950   0.000  0.00  0.00    +0.000 C 
BRANCH  33  35
ATOM     34  C   UNL     1       5.716   4.950   0.000  0.00  0.00    +0.000 C 
ATOM     35  O   UNL     1       6.430   4.537   0.000  0.00  0.00    +0.000 OA
ENDBRANCH  33  35
ENDBRANCH  32  33
ENDBRANCH  31  32
ENDBRANCH  30  31
ENDBRANCH  29  30
ENDBRANCH  23  29
ENDBRANCH   1  25
TORSDOF 8
