REMARK  Name = 
REMARK  7 active torsions:
REMARK  status: ('A' for Active; 'I' for Inactive)
REMARK    1  A    between atoms: C_3  and  C_15
REMARK    2  A    between atoms: C_7  and  O_13
REMARK    3  A    between atoms: O_13  and  C_14
REMARK    4  A    between atoms: C_14  and  C_24
REMARK    5  A    between atoms: C_15  and  C_16
REMARK    6  A    between atoms: C_16  and  C_17
REMARK    7  A    between atoms: C_24  and  C_25
REMARK                            x       y       z     vdW  Elec       q    Type
REMARK                         _______ _______ _______ _____ _____    ______ ____
ROOT
ATOM      1  C   UNL     1       1.340  -2.292   0.000  0.00  0.00    +0.000 C 
ATOM      2  C   UNL     1       1.359  -1.465   0.000  0.00  0.00    +0.000 C 
ATOM      3  C   UNL     1       0.654  -1.036   0.000  0.00  0.00    +0.000 C 
ATOM      4  C   UNL     1       0.617  -2.696   0.000  0.00  0.00    +0.000 C 
ATOM      5  C   UNL     1      -0.091  -2.260   0.000  0.00  0.00    +0.000 C 
ATOM      6  C   UNL     1      -0.074  -1.433   0.000  0.00  0.00    +0.000 C 
ATOM      7  C   UNL     1      -0.779  -1.006   0.000  0.00  0.00    +0.000 C 
ATOM      8  C   UNL     1      -1.505  -1.403   0.000  0.00  0.00    +0.000 C 
ATOM      9  C   UNL     1      -1.521  -2.231   0.000  0.00  0.00    +0.000 C 
ATOM     10  C   UNL     1      -0.813  -2.661   0.000  0.00  0.00    +0.000 C 
ATOM     11  C   UNL     1       2.082  -1.068   0.000  0.00  0.00    +0.000 C 
ENDROOT
BRANCH   3  12
ATOM     12  C   UNL     1       0.675  -0.212   0.000  0.00  0.00    +0.000 C 
BRANCH  12  13
ATOM     13  C   UNL     1       1.399   0.182   0.000  0.00  0.00    +0.000 C 
BRANCH  13  14
ATOM     14  C   UNL     1       1.420   1.007   0.000  0.00  0.00    +0.000 C 
ATOM     15  C   UNL     1       1.465   2.657   0.000  0.00  0.00    +0.000 C 
ATOM     16  C   UNL     1       0.739   2.264   0.000  0.00  0.00    +0.000 C 
ATOM     17  C   UNL     1       0.714   1.437   0.000  0.00  0.00    +0.000 C 
ATOM     18  O   UNL     1       2.144   1.402   0.000  0.00  0.00    +0.000 OA
ATOM     19  O   UNL     1       0.037   2.696   0.000  0.00  0.00    +0.000 OA
ATOM     20  C   UNL     1       2.168   2.225   0.000  0.00  0.00    +0.000 C 
ATOM     21  O   UNL     1       2.893   2.617   0.000  0.00  0.00    +0.000 OA
ENDBRANCH  13  14
ENDBRANCH  12  13
ENDBRANCH   3  12
BRANCH   7  22
ATOM     22  O   UNL     1      -0.761  -0.181   0.000  0.00  0.00    +0.000 OA
BRANCH  22  23
ATOM     23  C   UNL     1      -1.465   0.247   0.000  0.00  0.00    +0.000 C 
ATOM     24  O   UNL     1      -1.446   1.072   0.000  0.00  0.00    +0.000 OA
BRANCH  23  25
ATOM     25  C   UNL     1      -2.189  -0.149   0.000  0.00  0.00    +0.000 C 
ATOM     26  C   UNL     1      -2.208  -0.973   0.000  0.00  0.00    +0.000 C 
BRANCH  25  27
ATOM     27  C   UNL     1      -2.893   0.280   0.000  0.00  0.00    +0.000 C 
ATOM     28  C   UNL     1      -2.875   1.105   0.000  0.00  0.00    +0.000 C 
ENDBRANCH  25  27
ENDBRANCH  23  25
ENDBRANCH  22  23
ENDBRANCH   7  22
TORSDOF 7
