REMARK  Name = 
REMARK  8 active torsions:
REMARK  status: ('A' for Active; 'I' for Inactive)
REMARK    1  A    between atoms: C_1  and  C_2
REMARK    2  A    between atoms: C_1  and  C_5
REMARK    3  A    between atoms: C_2  and  C_8
REMARK    4  A    between atoms: C_3  and  C_6
REMARK    5  A    between atoms: C_3  and  N_18
REMARK    6  A    between atoms: C_4  and  C_7
REMARK    7  A    between atoms: C_6  and  C_10
REMARK    8  A    between atoms: C_7  and  C_10
REMARK                            x       y       z     vdW  Elec       q    Type
REMARK                         _______ _______ _______ _____ _____    ______ ____
ROOT
ATOM      1  C   UNL     1      -1.786   0.000   0.000  0.00  0.00    +0.000 A 
ATOM      2  C   UNL     1      -1.072   1.238   0.000  0.00  0.00    +0.000 A 
ATOM      3  C   UNL     1      -0.357   0.825   0.000  0.00  0.00    +0.000 A 
ATOM      4  C   UNL     1      -1.072   2.062   0.000  0.00  0.00    +0.000 A 
ATOM      5  C   UNL     1      -1.072  -0.412   0.000  0.00  0.00    +0.000 A 
ATOM      6  C   UNL     1       0.357   2.062   0.000  0.00  0.00    +0.000 A 
ATOM      7  N   UNL     1      -1.786   0.825   0.000  0.00  0.00    +0.000 NA
ATOM      8  N   UNL     1       0.357   1.238   0.000  0.00  0.00    +0.000 NA
ATOM      9  N   UNL     1      -0.357   2.475   0.000  0.00  0.00    +0.000 NA
ATOM     10  N   UNL     1      -0.357   0.000   0.000  0.00  0.00    +0.000 N 
ATOM     11  O   UNL     1      -1.786   2.475   0.000  0.00  0.00    +0.000 OA
ATOM     12  O   UNL     1      -1.072  -1.238   0.000  0.00  0.00    +0.000 OA
ATOM     13  O   UNL     1       1.072   2.475   0.000  0.00  0.00    +0.000 OA
ENDROOT
BRANCH  10  14
ATOM     14  C   UNL     1       0.357  -0.412   0.000  0.00  0.00    +0.000 C 
BRANCH  14  15
ATOM     15  C   UNL     1       1.072   0.000   0.000  0.00  0.00    +0.000 C 
ATOM     16  O   UNL     1       1.072   0.825   0.000  0.00  0.00    +0.000 OA
BRANCH  15  17
ATOM     17  C   UNL     1       1.786  -0.412   0.000  0.00  0.00    +0.000 C 
ATOM     18  O   UNL     1       1.786  -1.238   0.000  0.00  0.00    +0.000 OA
BRANCH  17  19
ATOM     19  C   UNL     1       2.501   0.000   0.000  0.00  0.00    +0.000 C 
ATOM     20  O   UNL     1       2.501   0.825   0.000  0.00  0.00    +0.000 OA
BRANCH  19  21
ATOM     21  C   UNL     1       3.215  -0.412   0.000  0.00  0.00    +0.000 C 
ATOM     22  O   UNL     1       3.929   0.000   0.000  0.00  0.00    +0.000 OA
ENDBRANCH  19  21
ENDBRANCH  17  19
ENDBRANCH  15  17
ENDBRANCH  14  15
ENDBRANCH  10  14
BRANCH   1  23
ATOM     23  C   UNL     1      -2.501  -0.412   0.000  0.00  0.00    +0.000 C 
BRANCH  23  24
ATOM     24  C   UNL     1      -2.501  -1.238   0.000  0.00  0.00    +0.000 C 
BRANCH  24  25
ATOM     25  C   UNL     1      -3.215  -1.650   0.000  0.00  0.00    +0.000 C 
ATOM     26  O   UNL     1      -3.215  -2.475   0.000  0.00  0.00    +0.000 OA
ATOM     27  O   UNL     1      -3.929  -1.238   0.000  0.00  0.00    +0.000 OA
ENDBRANCH  24  25
ENDBRANCH  23  24
ENDBRANCH   1  23
TORSDOF 8
