REMARK  Name = 
REMARK  1 active torsions:
REMARK  status: ('A' for Active; 'I' for Inactive)
REMARK    1  A    between atoms: C_2  and  C_19
REMARK                            x       y       z     vdW  Elec       q    Type
REMARK                         _______ _______ _______ _____ _____    ______ ____
ROOT
ATOM      1  C   UNL     1       4.362   2.028   0.000  0.00  0.00    +0.000 A 
ATOM      2  C   UNL     1       4.323   1.204   0.000  0.00  0.00    +0.000 A 
ATOM      3  C   UNL     1      -0.824   1.603   0.000  0.00  0.00    +0.000 C 
ATOM      4  C   UNL     1       3.668   2.474   0.000  0.00  0.00    +0.000 A 
ATOM      5  C   UNL     1       3.590   0.826   0.000  0.00  0.00    +0.000 A 
ATOM      6  C   UNL     1       1.566   3.171   0.000  0.00  0.00    +0.000 C 
ATOM      7  C   UNL     1      -0.371   0.913   0.000  0.00  0.00    +0.000 C 
ATOM      8  C   UNL     1      -0.453   2.340   0.000  0.00  0.00    +0.000 C 
ATOM      9  C   UNL     1       0.742   3.124   0.000  0.00  0.00    +0.000 C 
ATOM     10  C   UNL     1       0.905   0.271   0.000  0.00  0.00    +0.000 C 
ATOM     11  C   UNL     1       2.935   2.096   0.000  0.00  0.00    +0.000 A 
ATOM     12  C   UNL     1       2.018   2.481   0.000  0.00  0.00    +0.000 A 
ATOM     13  C   UNL     1       2.896   1.272   0.000  0.00  0.00    +0.000 A 
ATOM     14  C   UNL     1       1.729   0.318   0.000  0.00  0.00    +0.000 C 
ATOM     15  C   UNL     1       1.647   1.744   0.000  0.00  0.00    +0.000 A 
ATOM     16  C   UNL     1       0.824   1.697   0.000  0.00  0.00    +0.000 C 
ATOM     17  C   UNL     1       0.453   0.960   0.000  0.00  0.00    +0.000 C 
ATOM     18  N   UNL     1       0.371   2.387   0.000  0.00  0.00    +0.000 NA
ATOM     19  N   UNL     1       2.100   1.055   0.000  0.00  0.00    +0.000 N 
ATOM     20  O   UNL     1       2.182  -0.372   0.000  0.00  0.00    +0.000 OA
ENDROOT
BRANCH  17  22
ATOM     21  C   UNL     1      -0.742   0.176   0.000  0.00  0.00    +0.000 C 
ATOM     22  C   UNL     1       0.082   0.223   0.000  0.00  0.00    +0.000 C 
ENDBRANCH  17  22
TORSDOF 1
