REMARK  Name = 
REMARK  5 active torsions:
REMARK  status: ('A' for Active; 'I' for Inactive)
REMARK    1  A    between atoms: N_3  and  C_16
REMARK    2  A    between atoms: C_6  and  C_7
REMARK    3  A    between atoms: C_7  and  C_9
REMARK    4  A    between atoms: C_16  and  C_17
REMARK    5  A    between atoms: C_17  and  N_18
REMARK                            x       y       z     vdW  Elec       q    Type
REMARK                         _______ _______ _______ _____ _____    ______ ____
ROOT
ATOM      1  C   UNL     1      -2.143   1.238   0.000  0.00  0.00    +0.000 C 
ATOM      2  C   UNL     1      -1.429   0.825   0.000  0.00  0.00    +0.000 C 
ATOM      3  N   UNL     1      -1.429   0.000   0.000  0.00  0.00    +0.000 NA
ATOM      4  C   UNL     1      -2.143  -0.412   0.000  0.00  0.00    +0.000 C 
ATOM      5  C   UNL     1      -2.858   0.000   0.000  0.00  0.00    +0.000 C 
ATOM      6  C   UNL     1      -2.858   0.825   0.000  0.00  0.00    +0.000 C 
ENDROOT
BRANCH   6   7
ATOM      7  C   UNL     1      -3.572   1.238   0.000  0.00  0.00    +0.000 C 
ATOM      8  O   UNL     1      -3.572   2.062   0.000  0.00  0.00    +0.000 OA
BRANCH   7   9
ATOM      9  C   UNL     1      -4.287   0.825   0.000  0.00  0.00    +0.000 A 
ATOM     10  C   UNL     1      -4.287   0.000   0.000  0.00  0.00    +0.000 A 
ATOM     11  C   UNL     1      -5.001  -0.412   0.000  0.00  0.00    +0.000 A 
ATOM     12  C   UNL     1      -5.716   0.000   0.000  0.00  0.00    +0.000 A 
ATOM     13  C   UNL     1      -5.716   0.825   0.000  0.00  0.00    +0.000 A 
ATOM     14  C   UNL     1      -5.001   1.238   0.000  0.00  0.00    +0.000 A 
ATOM     15  F   UNL     1      -6.430  -0.412   0.000  0.00  0.00    +0.000 F 
ENDBRANCH   7   9
ENDBRANCH   6   7
BRANCH   3  16
ATOM     16  C   UNL     1      -0.715  -0.412   0.000  0.00  0.00    +0.000 C 
BRANCH  16  17
ATOM     17  C   UNL     1       0.000   0.000   0.000  0.00  0.00    +0.000 C 
BRANCH  17  18
ATOM     18  N   UNL     1       0.715  -0.412   0.000  0.00  0.00    +0.000 N 
ATOM     19  C   UNL     1       1.429   0.000   0.000  0.00  0.00    +0.000 A 
ATOM     20  O   UNL     1       1.429   0.825   0.000  0.00  0.00    +0.000 OA
ATOM     21  C   UNL     1       2.143  -0.412   0.000  0.00  0.00    +0.000 A 
ATOM     22  C   UNL     1       2.858   0.000   0.000  0.00  0.00    +0.000 A 
ATOM     23  C   UNL     1       3.572  -0.412   0.000  0.00  0.00    +0.000 A 
ATOM     24  C   UNL     1       3.572  -1.238   0.000  0.00  0.00    +0.000 A 
ATOM     25  C   UNL     1       2.858  -1.650   0.000  0.00  0.00    +0.000 A 
ATOM     26  C   UNL     1       2.143  -1.238   0.000  0.00  0.00    +0.000 A 
ATOM     27  N   UNL     1       1.429  -1.650   0.000  0.00  0.00    +0.000 NA
ATOM     28  C   UNL     1       0.715  -1.238   0.000  0.00  0.00    +0.000 A 
ATOM     29  O   UNL     1       0.000  -1.650   0.000  0.00  0.00    +0.000 OA
ENDBRANCH  17  18
ENDBRANCH  16  17
ENDBRANCH   3  16
TORSDOF 5
