REMARK  Name = 
REMARK  4 active torsions:
REMARK  status: ('A' for Active; 'I' for Inactive)
REMARK    1  A    between atoms: C_2  and  C_3
REMARK    2  A    between atoms: C_3  and  N_4
REMARK    3  A    between atoms: N_4  and  C_5
REMARK    4  A    between atoms: N_4  and  N_12
REMARK                            x       y       z     vdW  Elec       q    Type
REMARK                         _______ _______ _______ _____ _____    ______ ____
ROOT
ATOM      1  N   UNL     1      -0.398   0.754   0.000  0.00  0.00    +0.000 N 
ENDROOT
BRANCH   1   2
ATOM      2  N   UNL     1      -0.143  -0.030   0.000  0.00  0.00    +0.000 N 
ATOM      3  C   UNL     1      -0.628  -0.698   0.000  0.00  0.00    +0.000 A 
ATOM      4  C   UNL     1      -0.143  -1.365   0.000  0.00  0.00    +0.000 A 
ATOM      5  C   UNL     1       0.641  -1.110   0.000  0.00  0.00    +0.000 A 
ATOM      6  C   UNL     1       0.641  -0.285   0.000  0.00  0.00    +0.000 A 
ATOM      7  C   UNL     1       1.356   0.127   0.000  0.00  0.00    +0.000 A 
ATOM      8  C   UNL     1       2.070  -0.285   0.000  0.00  0.00    +0.000 A 
ATOM      9  C   UNL     1       2.070  -1.110   0.000  0.00  0.00    +0.000 A 
ATOM     10  C   UNL     1       1.356  -1.523   0.000  0.00  0.00    +0.000 A 
ATOM     11  C   UNL     1      -0.398  -2.150   0.000  0.00  0.00    +0.000 C 
ENDBRANCH   1   2
BRANCH   1  12
ATOM     12  C   UNL     1      -1.205   0.926   0.000  0.00  0.00    +0.000 A 
ATOM     13  C   UNL     1      -1.758   0.313   0.000  0.00  0.00    +0.000 A 
ATOM     14  C   UNL     1      -2.564   0.484   0.000  0.00  0.00    +0.000 A 
ATOM     15  N   UNL     1      -2.819   1.269   0.000  0.00  0.00    +0.000 NA
ATOM     16  C   UNL     1      -2.267   1.882   0.000  0.00  0.00    +0.000 A 
ATOM     17  C   UNL     1      -1.460   1.710   0.000  0.00  0.00    +0.000 A 
ATOM     18  F   UNL     1      -0.908   2.323   0.000  0.00  0.00    +0.000 F 
ENDBRANCH   1  12
BRANCH   1  19
ATOM     19  C   UNL     1       0.154   1.367   0.000  0.00  0.00    +0.000 C 
BRANCH  19  21
ATOM     20  C   UNL     1       1.513   1.809   0.000  0.00  0.00    +0.000 C 
ATOM     21  C   UNL     1       0.961   1.196   0.000  0.00  0.00    +0.000 C 
ENDBRANCH  19  21
ENDBRANCH   1  19
TORSDOF 4
