REMARK  Name = 
REMARK  9 active torsions:
REMARK  status: ('A' for Active; 'I' for Inactive)
REMARK    1  A    between atoms: C_1  and  N_5
REMARK    2  A    between atoms: C_1  and  O_23
REMARK    3  A    between atoms: C_6  and  S_18
REMARK    4  A    between atoms: C_7  and  C_16
REMARK    5  A    between atoms: C_10  and  C_15
REMARK    6  A    between atoms: C_13  and  C_21
REMARK    7  A    between atoms: C_15  and  C_17
REMARK    8  A    between atoms: C_15  and  C_22
REMARK    9  A    between atoms: S_18  and  C_21
REMARK                            x       y       z     vdW  Elec       q    Type
REMARK                         _______ _______ _______ _____ _____    ______ ____
ROOT
ATOM      1  C   UNL     1      -0.357   0.529   0.000  0.00  0.00    +0.000 C 
ATOM      2  N   UNL     1       0.469  -0.296   0.000  0.00  0.00    +0.000 N 
ATOM      3  C   UNL     1      -0.357  -0.301   0.000  0.00  0.00    +0.000 C 
ATOM      4  C   UNL     1       0.469   0.529   0.000  0.00  0.00    +0.000 C 
ATOM      5  C   UNL     1       1.173  -0.704   0.000  0.00  0.00    +0.000 C 
ATOM      6  C   UNL     1       1.887  -0.301   0.000  0.00  0.00    +0.000 C 
ATOM      7  O   UNL     1       1.183   0.938   0.000  0.00  0.00    +0.000 OA
ATOM      8  C   UNL     1       1.892   0.520   0.000  0.00  0.00    +0.000 C 
ATOM      9  O   UNL     1      -0.935  -0.884   0.000  0.00  0.00    +0.000 OA
ENDROOT
BRANCH   5  10
ATOM     10  C   UNL     1       1.168  -1.530   0.000  0.00  0.00    +0.000 C 
ATOM     11  O   UNL     1       1.878  -1.948   0.000  0.00  0.00    +0.000 OA
ATOM     12  O   UNL     1       0.449  -1.938   0.000  0.00  0.00    +0.000 OA
ENDBRANCH   5  10
BRANCH   1  13
ATOM     13  N   UNL     1      -1.076   0.947   0.000  0.00  0.00    +0.000 NA
ATOM     14  C   UNL     1      -1.795   0.529   0.000  0.00  0.00    +0.000 C 
ATOM     15  O   UNL     1      -1.795  -0.296   0.000  0.00  0.00    +0.000 OA
BRANCH  14  16
ATOM     16  C   UNL     1      -2.509   0.943   0.000  0.00  0.00    +0.000 C 
BRANCH  16  17
ATOM     17  C   UNL     1      -3.223   0.529   0.000  0.00  0.00    +0.000 A 
ATOM     18  C   UNL     1      -3.223  -0.287   0.000  0.00  0.00    +0.000 A 
ATOM     19  C   UNL     1      -3.938   0.947   0.000  0.00  0.00    +0.000 A 
ATOM     20  C   UNL     1      -4.652  -0.291   0.000  0.00  0.00    +0.000 A 
ATOM     21  C   UNL     1      -3.933  -0.704   0.000  0.00  0.00    +0.000 A 
ATOM     22  C   UNL     1      -4.652   0.534   0.000  0.00  0.00    +0.000 A 
ATOM     23  O   UNL     1      -5.366  -0.704   0.000  0.00  0.00    +0.000 OA
ENDBRANCH  16  17
BRANCH  16  24
ATOM     24  C   UNL     1      -2.509   1.768   0.000  0.00  0.00    +0.000 C 
ATOM     25  O   UNL     1      -1.795   2.181   0.000  0.00  0.00    +0.000 OA
ATOM     26  O   UNL     1      -3.223   2.181   0.000  0.00  0.00    +0.000 OA
ENDBRANCH  16  24
ENDBRANCH  14  16
ENDBRANCH   1  13
BRANCH   1  27
ATOM     27  O   UNL     1      -0.362   1.355   0.000  0.00  0.00    +0.000 OA
ATOM     28  C   UNL     1       0.347   1.778   0.000  0.00  0.00    +0.000 C 
ENDBRANCH   1  27
BRANCH   6  29
ATOM     29  C   UNL     1       2.597  -0.719   0.000  0.00  0.00    +0.000 C 
BRANCH  29  30
ATOM     30  S   UNL     1       3.316  -0.311   0.000  0.00  0.00    +0.000 S 
BRANCH  30  31
ATOM     31  C   UNL     1       4.030  -0.729   0.000  0.00  0.00    +0.000 A 
ATOM     32  N   UNL     1       4.282  -1.511   0.000  0.00  0.00    +0.000 N 
ATOM     33  N   UNL     1       4.696  -0.238   0.000  0.00  0.00    +0.000 NA
ATOM     34  N   UNL     1       5.366  -0.729   0.000  0.00  0.00    +0.000 NA
ATOM     35  N   UNL     1       5.074  -1.472   0.000  0.00  0.00    +0.000 NA
ATOM     36  C   UNL     1       3.801  -2.181   0.000  0.00  0.00    +0.000 C 
ENDBRANCH  30  31
ENDBRANCH  29  30
ENDBRANCH   6  29
TORSDOF 9
