REMARK  Name = 
REMARK  5 active torsions:
REMARK  status: ('A' for Active; 'I' for Inactive)
REMARK    1  A    between atoms: C_3  and  C_18
REMARK    2  A    between atoms: C_5  and  C_21
REMARK    3  A    between atoms: C_6  and  C_11
REMARK    4  A    between atoms: C_7  and  C_12
REMARK    5  A    between atoms: C_18  and  C_21
REMARK                            x       y       z     vdW  Elec       q    Type
REMARK                         _______ _______ _______ _____ _____    ______ ____
ROOT
ATOM      1  C   UNL     1      -0.742   1.726   0.000  0.00  0.00    +0.000 C 
ATOM      2  C   UNL     1      -0.742   0.908   0.000  0.00  0.00    +0.000 C 
ATOM      3  C   UNL     1       0.041   1.984   0.000  0.00  0.00    +0.000 C 
ATOM      4  C   UNL     1      -1.458   0.494   0.000  0.00  0.00    +0.000 C 
ATOM      5  C   UNL     1      -1.458  -0.338   0.000  0.00  0.00    +0.000 C 
ATOM      6  C   UNL     1       0.041   0.655   0.000  0.00  0.00    +0.000 C 
ATOM      7  C   UNL     1       0.514   1.317   0.000  0.00  0.00    +0.000 C 
ATOM      8  C   UNL     1      -1.458   2.144   0.000  0.00  0.00    +0.000 C 
ATOM      9  C   UNL     1      -0.742   2.553   0.000  0.00  0.00    +0.000 C 
ATOM     10  C   UNL     1      -2.178   0.903   0.000  0.00  0.00    +0.000 C 
ATOM     11  C   UNL     1      -2.174   1.735   0.000  0.00  0.00    +0.000 C 
ENDROOT
BRANCH   5  13
ATOM     12  C   UNL     1      -2.178  -1.580   0.000  0.00  0.00    +0.000 C 
ATOM     13  C   UNL     1      -2.178  -0.747   0.000  0.00  0.00    +0.000 C 
ATOM     14  C   UNL     1      -2.178  -3.230   0.000  0.00  0.00    +0.000 C 
ATOM     15  C   UNL     1      -2.889  -2.821   0.000  0.00  0.00    +0.000 C 
ATOM     16  C   UNL     1      -1.463  -2.821   0.000  0.00  0.00    +0.000 C 
ATOM     17  C   UNL     1      -2.889  -1.989   0.000  0.00  0.00    +0.000 C 
ATOM     18  C   UNL     1      -1.463  -1.989   0.000  0.00  0.00    +0.000 C 
ATOM     19  O   UNL     1      -3.610  -3.230   0.000  0.00  0.00    +0.000 OA
ATOM     20  O   UNL     1      -0.742  -3.230   0.000  0.00  0.00    +0.000 OA
ENDBRANCH   5  13
BRANCH   3  21
ATOM     21  C   UNL     1       0.032   2.806   0.000  0.00  0.00    +0.000 C 
ATOM     22  C   UNL     1      -0.684   3.215   0.000  0.00  0.00    +0.000 C 
BRANCH  21  23
ATOM     23  C   UNL     1       0.747   3.230   0.000  0.00  0.00    +0.000 C 
BRANCH  23  24
ATOM     24  C   UNL     1       1.463   2.821   0.000  0.00  0.00    +0.000 C 
ATOM     25  C   UNL     1       2.178   2.407   0.000  0.00  0.00    +0.000 C 
BRANCH  25  26
ATOM     26  C   UNL     1       2.894   1.998   0.000  0.00  0.00    +0.000 C 
ATOM     27  O   UNL     1       3.610   2.407   0.000  0.00  0.00    +0.000 OA
ATOM     28  C   UNL     1       3.303   1.283   0.000  0.00  0.00    +0.000 C 
ATOM     29  C   UNL     1       2.480   1.283   0.000  0.00  0.00    +0.000 C 
ENDBRANCH  25  26
ENDBRANCH  23  24
ENDBRANCH  21  23
ENDBRANCH   3  21
TORSDOF 5
