REMARK  Name = 
REMARK  0 active torsions:
REMARK  status: ('A' for Active; 'I' for Inactive)
REMARK                            x       y       z     vdW  Elec       q    Type
REMARK                         _______ _______ _______ _____ _____    ______ ____
ROOT
ATOM      1 AU   UNL     1      -1.055   0.281   0.000  0.00  0.00    +0.000 Au
ATOM      2  O   UNL     1      -0.172   0.661   0.000  0.00  0.00    +0.000 OA
ATOM      3  O   UNL     1      -1.808  -0.060   0.000  0.00  0.00    +0.000 OA
ATOM      4  S   UNL     1      -0.172  -0.057   0.000  0.00  0.00    +0.000 S 
ATOM      5  S   UNL     1      -1.808   0.656   0.000  0.00  0.00    +0.000 S 
ATOM      6  S   UNL     1       0.470   0.318   0.000  0.00  0.00    +0.000 S 
ATOM      7  S   UNL     1      -2.540   0.318   0.000  0.00  0.00    +0.000 S 
ATOM      8  O   UNL     1       1.026   0.704   0.000  0.00  0.00    +0.000 OA
ATOM      9  O   UNL     1       0.951  -0.238   0.000  0.00  0.00    +0.000 OA
ATOM     10  O   UNL     1      -3.216  -0.238   0.000  0.00  0.00    +0.000 OA
ATOM     11  O   UNL     1      -3.141   0.919   0.000  0.00  0.00    +0.000 OA
ENDROOT
TORSDOF 0
REMARK  Name = 
REMARK  0 active torsions:
REMARK  status: ('A' for Active; 'I' for Inactive)
REMARK                            x       y       z     vdW  Elec       q    Type
REMARK                         _______ _______ _______ _____ _____    ______ ____
ROOT
ATOM      1 NA   UNL     1       3.216   1.561   0.000  0.00  0.00    +0.000 Na
ENDROOT
TORSDOF 0
REMARK  Name = 
REMARK  0 active torsions:
REMARK  status: ('A' for Active; 'I' for Inactive)
REMARK                            x       y       z     vdW  Elec       q    Type
REMARK                         _______ _______ _______ _____ _____    ______ ____
ROOT
ATOM      1 NA   UNL     1       3.189   0.140   0.000  0.00  0.00    +0.000 Na
ENDROOT
TORSDOF 0
REMARK  Name = 
REMARK  0 active torsions:
REMARK  status: ('A' for Active; 'I' for Inactive)
REMARK                            x       y       z     vdW  Elec       q    Type
REMARK                         _______ _______ _______ _____ _____    ______ ____
ROOT
ATOM      1 NA   UNL     1       3.144  -1.561   0.000  0.00  0.00    +0.000 Na
ENDROOT
TORSDOF 0
