REMARK  Name = 
REMARK  7 active torsions:
REMARK  status: ('A' for Active; 'I' for Inactive)
REMARK    1  A    between atoms: C_1  and  C_30
REMARK    2  A    between atoms: C_9  and  C_12
REMARK    3  A    between atoms: C_15  and  C_18
REMARK    4  A    between atoms: C_18  and  C_19
REMARK    5  A    between atoms: C_19  and  O_20
REMARK    6  A    between atoms: O_20  and  C_21
REMARK    7  A    between atoms: C_22  and  C_30
REMARK                            x       y       z     vdW  Elec       q    Type
REMARK                         _______ _______ _______ _____ _____    ______ ____
ROOT
ATOM      1  C   UNL     1       1.204   0.410   0.000  0.00  0.00    +0.000 A 
ATOM      2  C   UNL     1       2.644  -0.394   0.000  0.00  0.00    +0.000 A 
ATOM      3  C   UNL     1       2.629   0.435   0.000  0.00  0.00    +0.000 A 
ATOM      4  C   UNL     1       1.909   0.834   0.000  0.00  0.00    +0.000 A 
ATOM      5  C   UNL     1       1.935  -0.817   0.000  0.00  0.00    +0.000 A 
ATOM      6  C   UNL     1       1.216  -0.420   0.000  0.00  0.00    +0.000 A 
ATOM      7  C   UNL     1       0.616  -0.981   0.000  0.00  0.00    +0.000 A 
ATOM      8  C   UNL     1       0.964  -1.725   0.000  0.00  0.00    +0.000 A 
ATOM      9  S   UNL     1       1.779  -1.623   0.000  0.00  0.00    +0.000 S 
ENDROOT
BRANCH   1  10
ATOM     10  O   UNL     1       0.483   0.812   0.000  0.00  0.00    +0.000 OA
BRANCH  10  11
ATOM     11  C   UNL     1      -0.225   0.389   0.000  0.00  0.00    +0.000 C 
BRANCH  11  12
ATOM     12  C   UNL     1      -0.946   0.791   0.000  0.00  0.00    +0.000 C 
BRANCH  12  16
ATOM     13  C   UNL     1      -2.924  -0.046   0.000  0.00  0.00    +0.000 A 
ATOM     14  O   UNL     1      -2.441  -0.711   0.000  0.00  0.00    +0.000 OA
ATOM     15  C   UNL     1      -1.655  -0.457   0.000  0.00  0.00    +0.000 A 
ATOM     16  C   UNL     1      -1.654   0.368   0.000  0.00  0.00    +0.000 A 
ATOM     17  N   UNL     1      -2.438   0.624   0.000  0.00  0.00    +0.000 NA
ATOM     18  C   UNL     1      -0.989  -0.944   0.000  0.00  0.00    +0.000 C 
BRANCH  13  22
ATOM     19  C   UNL     1      -5.386  -0.039   0.000  0.00  0.00    +0.000 A 
ATOM     20  C   UNL     1      -4.979  -0.750   0.000  0.00  0.00    +0.000 A 
ATOM     21  C   UNL     1      -4.161  -0.753   0.000  0.00  0.00    +0.000 A 
ATOM     22  C   UNL     1      -3.749  -0.045   0.000  0.00  0.00    +0.000 A 
ATOM     23  C   UNL     1      -4.161   0.667   0.000  0.00  0.00    +0.000 A 
ATOM     24  C   UNL     1      -4.977   0.667   0.000  0.00  0.00    +0.000 A 
ENDBRANCH  13  22
ENDBRANCH  12  16
ENDBRANCH  11  12
ENDBRANCH  10  11
ENDBRANCH   1  10
BRANCH   2  25
ATOM     25  C   UNL     1       3.365  -0.795   0.000  0.00  0.00    +0.000 C 
BRANCH  25  26
ATOM     26  C   UNL     1       4.075  -0.370   0.000  0.00  0.00    +0.000 C 
ATOM     27  C   UNL     1       4.901  -0.370   0.000  0.00  0.00    +0.000 C 
ATOM     28  N   UNL     1       5.155   0.415   0.000  0.00  0.00    +0.000 NA
ATOM     29  C   UNL     1       4.488   0.900   0.000  0.00  0.00    +0.000 C 
ATOM     30  S   UNL     1       3.820   0.415   0.000  0.00  0.00    +0.000 S 
ATOM     31  O   UNL     1       4.488   1.725   0.000  0.00  0.00    +0.000 OA
ATOM     32  O   UNL     1       5.386  -1.038   0.000  0.00  0.00    +0.000 OA
ENDBRANCH  25  26
ENDBRANCH   2  25
TORSDOF 7
