REMARK  Name = 
REMARK  4 active torsions:
REMARK  status: ('A' for Active; 'I' for Inactive)
REMARK    1  A    between atoms: C_2  and  O_4
REMARK    2  A    between atoms: O_4  and  C_5
REMARK    3  A    between atoms: C_5  and  C_6
REMARK    4  A    between atoms: C_6  and  N_7
REMARK                            x       y       z     vdW  Elec       q    Type
REMARK                         _______ _______ _______ _____ _____    ______ ____
ROOT
ATOM      1  N   UNL     1       3.572  -2.888   0.000  0.00  0.00    +0.000 N 
ATOM      2  C   UNL     1       4.287  -2.475   0.000  0.00  0.00    +0.000 A 
ATOM      3  C   UNL     1       4.458  -1.668   0.000  0.00  0.00    +0.000 A 
ATOM      4  C   UNL     1       5.279  -1.582   0.000  0.00  0.00    +0.000 A 
ATOM      5  N   UNL     1       5.614  -2.336   0.000  0.00  0.00    +0.000 NA
ATOM      6  C   UNL     1       5.001  -2.888   0.000  0.00  0.00    +0.000 A 
ATOM      7  C   UNL     1       5.001  -3.712   0.000  0.00  0.00    +0.000 A 
ATOM      8  O   UNL     1       5.716  -4.125   0.000  0.00  0.00    +0.000 OA
ATOM      9  N   UNL     1       4.287  -4.125   0.000  0.00  0.00    +0.000 NA
ATOM     10  C   UNL     1       3.572  -3.712   0.000  0.00  0.00    +0.000 A 
ATOM     11  S   UNL     1       2.858  -4.125   0.000  0.00  0.00    +0.000 S 
ENDROOT
BRANCH   1  12
ATOM     12  C   UNL     1       2.858  -2.475   0.000  0.00  0.00    +0.000 C 
BRANCH  12  13
ATOM     13  C   UNL     1       2.143  -2.888   0.000  0.00  0.00    +0.000 C 
BRANCH  13  14
ATOM     14  O   UNL     1       1.429  -2.475   0.000  0.00  0.00    +0.000 OA
BRANCH  14  16
ATOM     15  C   UNL     1       0.000  -2.475   0.000  0.00  0.00    +0.000 C 
ATOM     16  C   UNL     1       0.715  -2.888   0.000  0.00  0.00    +0.000 C 
ATOM     17  C   UNL     1       0.715  -3.712   0.000  0.00  0.00    +0.000 C 
ENDBRANCH  14  16
ENDBRANCH  13  14
ENDBRANCH  12  13
ENDBRANCH   1  12
TORSDOF 4
