REMARK  Name = 
REMARK  8 active torsions:
REMARK  status: ('A' for Active; 'I' for Inactive)
REMARK    1  A    between atoms: N_3  and  C_36
REMARK    2  A    between atoms: C_6  and  C_7
REMARK    3  A    between atoms: N_9  and  C_10
REMARK    4  A    between atoms: C_14  and  O_15
REMARK    5  A    between atoms: O_15  and  C_16
REMARK    6  A    between atoms: C_24  and  O_25
REMARK    7  A    between atoms: O_25  and  C_26
REMARK    8  A    between atoms: C_26  and  C_27
REMARK                            x       y       z     vdW  Elec       q    Type
REMARK                         _______ _______ _______ _____ _____    ______ ____
ROOT
ATOM      1  C   UNL     1      -2.143   2.062   0.000  0.00  0.00    +0.000 A 
ATOM      2  C   UNL     1      -1.429   2.475   0.000  0.00  0.00    +0.000 A 
ATOM      3  C   UNL     1      -0.715   2.062   0.000  0.00  0.00    +0.000 A 
ATOM      4  F   UNL     1       0.000   2.475   0.000  0.00  0.00    +0.000 F 
ATOM      5  C   UNL     1      -0.715   1.238   0.000  0.00  0.00    +0.000 A 
ATOM      6  C   UNL     1      -1.429   0.825   0.000  0.00  0.00    +0.000 A 
ATOM      7  C   UNL     1      -2.143   1.238   0.000  0.00  0.00    +0.000 A 
ENDROOT
BRANCH   1  10
ATOM      8  C   UNL     1      -2.858   3.300   0.000  0.00  0.00    +0.000 C 
ATOM      9  O   UNL     1      -2.143   3.712   0.000  0.00  0.00    +0.000 OA
ATOM     10  N   UNL     1      -2.858   2.475   0.000  0.00  0.00    +0.000 NA
BRANCH   8  16
ATOM     11  C   UNL     1      -5.699   3.904   0.000  0.00  0.00    +0.000 C 
ATOM     12  N   UNL     1      -4.878   3.990   0.000  0.00  0.00    +0.000 N 
ATOM     13  N   UNL     1      -4.466   4.705   0.000  0.00  0.00    +0.000 N 
ATOM     14  C   UNL     1      -3.659   4.533   0.000  0.00  0.00    +0.000 A 
ATOM     15  O   UNL     1      -3.046   5.085   0.000  0.00  0.00    +0.000 OA
ATOM     16  C   UNL     1      -3.572   3.712   0.000  0.00  0.00    +0.000 A 
ATOM     17  C   UNL     1      -4.326   3.377   0.000  0.00  0.00    +0.000 A 
ATOM     18  C   UNL     1      -4.498   2.570   0.000  0.00  0.00    +0.000 C 
BRANCH  13  19
ATOM     19  C   UNL     1      -4.801   5.458   0.000  0.00  0.00    +0.000 A 
ATOM     20  C   UNL     1      -5.622   5.544   0.000  0.00  0.00    +0.000 A 
ATOM     21  C   UNL     1      -5.957   6.298   0.000  0.00  0.00    +0.000 A 
ATOM     22  C   UNL     1      -5.472   6.965   0.000  0.00  0.00    +0.000 A 
ATOM     23  C   UNL     1      -4.652   6.879   0.000  0.00  0.00    +0.000 A 
ATOM     24  C   UNL     1      -4.316   6.126   0.000  0.00  0.00    +0.000 A 
ENDBRANCH  13  19
ENDBRANCH   8  16
ENDBRANCH   1  10
BRANCH   5  25
ATOM     25  O   UNL     1       0.000   0.825   0.000  0.00  0.00    +0.000 OA
BRANCH  25  26
ATOM     26  C   UNL     1       0.000   0.000   0.000  0.00  0.00    +0.000 A 
ATOM     27  C   UNL     1      -0.715  -0.412   0.000  0.00  0.00    +0.000 A 
ATOM     28  C   UNL     1      -0.715  -1.238   0.000  0.00  0.00    +0.000 A 
ATOM     29  N   UNL     1       0.000  -1.650   0.000  0.00  0.00    +0.000 NA
ATOM     30  C   UNL     1       0.715  -1.238   0.000  0.00  0.00    +0.000 A 
ATOM     31  C   UNL     1       0.715  -0.412   0.000  0.00  0.00    +0.000 A 
ATOM     32  C   UNL     1       1.429   0.000   0.000  0.00  0.00    +0.000 A 
ATOM     33  C   UNL     1       2.143  -0.412   0.000  0.00  0.00    +0.000 A 
ATOM     34  C   UNL     1       2.143  -1.238   0.000  0.00  0.00    +0.000 A 
ATOM     35  C   UNL     1       1.429  -1.650   0.000  0.00  0.00    +0.000 A 
BRANCH  34  36
ATOM     36  O   UNL     1       2.858  -1.650   0.000  0.00  0.00    +0.000 OA
BRANCH  36  37
ATOM     37  C   UNL     1       2.858  -2.475   0.000  0.00  0.00    +0.000 C 
BRANCH  37  38
ATOM     38  C   UNL     1       3.572  -2.888   0.000  0.00  0.00    +0.000 C 
ATOM     39  C   UNL     1       4.287  -3.300   0.000  0.00  0.00    +0.000 C 
ATOM     40  C   UNL     1       3.985  -2.173   0.000  0.00  0.00    +0.000 C 
ATOM     41  O   UNL     1       3.160  -3.602   0.000  0.00  0.00    +0.000 OA
ENDBRANCH  37  38
ENDBRANCH  36  37
ENDBRANCH  34  36
ENDBRANCH  25  26
ENDBRANCH   5  25
TORSDOF 8
