REMARK  Name = 
REMARK  4 active torsions:
REMARK  status: ('A' for Active; 'I' for Inactive)
REMARK    1  A    between atoms: C_1  and  C_18
REMARK    2  A    between atoms: C_6  and  C_7
REMARK    3  A    between atoms: C_18  and  N_20
REMARK    4  A    between atoms: N_20  and  C_21
REMARK                            x       y       z     vdW  Elec       q    Type
REMARK                         _______ _______ _______ _____ _____    ______ ____
ROOT
ATOM      1  C   UNL     1      -0.055  -0.208   0.000  0.00  0.00    +0.000 A 
ATOM      2  C   UNL     1       0.663   0.206   0.000  0.00  0.00    +0.000 A 
ATOM      3  C   UNL     1       1.373  -0.208   0.000  0.00  0.00    +0.000 A 
ATOM      4  C   UNL     1       1.373  -1.032   0.000  0.00  0.00    +0.000 A 
ATOM      5  N   UNL     1       0.661  -1.441   0.000  0.00  0.00    +0.000 NA
ATOM      6  C   UNL     1      -0.055  -1.033   0.000  0.00  0.00    +0.000 A 
ATOM      7  C   UNL     1       2.091  -1.445   0.000  0.00  0.00    +0.000 A 
ATOM      8  C   UNL     1       2.805  -1.028   0.000  0.00  0.00    +0.000 A 
ATOM      9  C   UNL     1       2.805  -0.206   0.000  0.00  0.00    +0.000 A 
ATOM     10  C   UNL     1       2.088   0.204   0.000  0.00  0.00    +0.000 A 
ATOM     11  F   UNL     1       3.519  -1.443   0.000  0.00  0.00    +0.000 F 
ENDROOT
BRANCH   6  12
ATOM     12  C   UNL     1      -0.764  -1.448   0.000  0.00  0.00    +0.000 A 
ATOM     13  N   UNL     1      -0.764  -2.272   0.000  0.00  0.00    +0.000 NA
ATOM     14  C   UNL     1      -1.479  -2.683   0.000  0.00  0.00    +0.000 A 
ATOM     15  C   UNL     1      -2.196  -2.269   0.000  0.00  0.00    +0.000 A 
ATOM     16  C   UNL     1      -2.196  -1.451   0.000  0.00  0.00    +0.000 A 
ATOM     17  C   UNL     1      -1.482  -1.035   0.000  0.00  0.00    +0.000 A 
ENDBRANCH   6  12
BRANCH   1  18
ATOM     18  C   UNL     1      -0.764   0.206   0.000  0.00  0.00    +0.000 C 
ATOM     19  C   UNL     1      -1.482  -0.208   0.000  0.00  0.00    +0.000 C 
BRANCH  18  20
ATOM     20  N   UNL     1      -0.764   1.030   0.000  0.00  0.00    +0.000 NA
BRANCH  20  21
ATOM     21  C   UNL     1      -1.482   1.445   0.000  0.00  0.00    +0.000 A 
ATOM     22  C   UNL     1      -2.195   1.031   0.000  0.00  0.00    +0.000 A 
ATOM     23  C   UNL     1      -2.908   1.444   0.000  0.00  0.00    +0.000 A 
ATOM     24  N   UNL     1      -2.908   2.269   0.000  0.00  0.00    +0.000 NA
ATOM     25  C   UNL     1      -2.195   2.683   0.000  0.00  0.00    +0.000 A 
ATOM     26  N   UNL     1      -1.482   2.270   0.000  0.00  0.00    +0.000 NA
ATOM     27  N   UNL     1      -3.519   0.891   0.000  0.00  0.00    +0.000 NA
ATOM     28  C   UNL     1      -3.184   0.140   0.000  0.00  0.00    +0.000 A 
ATOM     29  N   UNL     1      -2.364   0.228   0.000  0.00  0.00    +0.000 NA
ENDBRANCH  20  21
ENDBRANCH  18  20
ENDBRANCH   1  18
TORSDOF 4
