REMARK  Name = 
REMARK  21 active torsions:
REMARK  status: ('A' for Active; 'I' for Inactive)
REMARK    1  A    between atoms: C_9  and  C_11
REMARK    2  A    between atoms: C_9  and  C_15
REMARK    3  A    between atoms: C_10  and  C_12
REMARK    4  A    between atoms: C_10  and  C_16
REMARK    5  A    between atoms: C_11  and  N_31
REMARK    6  A    between atoms: C_12  and  N_32
REMARK    7  A    between atoms: C_13  and  C_14
REMARK    8  A    between atoms: C_13  and  N_31
REMARK    9  A    between atoms: C_14  and  N_32
REMARK   10  A    between atoms: C_15  and  O_41
REMARK   11  A    between atoms: C_16  and  O_42
REMARK   12  A    between atoms: C_21  and  C_29
REMARK   13  A    between atoms: C_22  and  C_30
REMARK   14  A    between atoms: C_23  and  O_35
REMARK   15  A    between atoms: C_24  and  O_36
REMARK   16  A    between atoms: C_25  and  O_37
REMARK   17  A    between atoms: C_26  and  O_38
REMARK   18  A    between atoms: C_27  and  O_39
REMARK   19  A    between atoms: C_28  and  O_40
REMARK   20  A    between atoms: C_29  and  O_41
REMARK   21  A    between atoms: C_30  and  O_42
REMARK                            x       y       z     vdW  Elec       q    Type
REMARK                         _______ _______ _______ _____ _____    ______ ____
ROOT
ATOM      1  C   UNL     1       5.716  -1.650   0.000  0.00  0.00    +0.000 C 
ENDROOT
BRANCH   1   3
ATOM      2  C   UNL     1       6.430  -2.888   0.000  0.00  0.00    +0.000 C 
ATOM      3  N   UNL     1       6.430  -2.062   0.000  0.00  0.00    +0.000 NA
BRANCH   3   4
ATOM      4  C   UNL     1       7.145  -1.650   0.000  0.00  0.00    +0.000 C 
BRANCH   4   5
ATOM      5  C   UNL     1       7.859  -2.062   0.000  0.00  0.00    +0.000 C 
BRANCH   5   6
ATOM      6  C   UNL     1       8.574  -1.650   0.000  0.00  0.00    +0.000 C 
BRANCH   6   7
ATOM      7  O   UNL     1       9.288  -2.062   0.000  0.00  0.00    +0.000 OA
BRANCH   7   8
ATOM      8  C   UNL     1      10.003  -1.650   0.000  0.00  0.00    +0.000 C 
ATOM      9  O   UNL     1      10.003  -0.825   0.000  0.00  0.00    +0.000 OA
BRANCH   8  12
ATOM     10  C   UNL     1      11.431  -1.650   0.000  0.00  0.00    +0.000 A 
ATOM     11  C   UNL     1      10.717  -2.888   0.000  0.00  0.00    +0.000 A 
ATOM     12  C   UNL     1      10.717  -2.062   0.000  0.00  0.00    +0.000 A 
ATOM     13  C   UNL     1      12.146  -2.062   0.000  0.00  0.00    +0.000 A 
ATOM     14  C   UNL     1      11.431  -3.300   0.000  0.00  0.00    +0.000 A 
ATOM     15  C   UNL     1      12.146  -2.888   0.000  0.00  0.00    +0.000 A 
BRANCH  13  17
ATOM     16  C   UNL     1      13.575  -2.062   0.000  0.00  0.00    +0.000 C 
ATOM     17  O   UNL     1      12.861  -1.650   0.000  0.00  0.00    +0.000 OA
ENDBRANCH  13  17
BRANCH  14  19
ATOM     18  C   UNL     1      12.146  -4.537   0.000  0.00  0.00    +0.000 C 
ATOM     19  O   UNL     1      11.431  -4.125   0.000  0.00  0.00    +0.000 OA
ENDBRANCH  14  19
BRANCH  15  21
ATOM     20  C   UNL     1      12.861  -4.125   0.000  0.00  0.00    +0.000 C 
ATOM     21  O   UNL     1      12.861  -3.300   0.000  0.00  0.00    +0.000 OA
ENDBRANCH  15  21
ENDBRANCH   8  12
ENDBRANCH   7   8
ENDBRANCH   6   7
ENDBRANCH   5   6
ENDBRANCH   4   5
ENDBRANCH   3   4
ENDBRANCH   1   3
BRANCH   1  22
ATOM     22  C   UNL     1       5.001  -2.062   0.000  0.00  0.00    +0.000 C 
BRANCH  22  24
ATOM     23  C   UNL     1       4.287  -0.825   0.000  0.00  0.00    +0.000 C 
ATOM     24  N   UNL     1       4.287  -1.650   0.000  0.00  0.00    +0.000 NA
BRANCH  24  25
ATOM     25  C   UNL     1       3.572  -2.062   0.000  0.00  0.00    +0.000 C 
BRANCH  25  26
ATOM     26  C   UNL     1       2.858  -1.650   0.000  0.00  0.00    +0.000 C 
BRANCH  26  27
ATOM     27  C   UNL     1       2.143  -2.062   0.000  0.00  0.00    +0.000 C 
BRANCH  27  28
ATOM     28  O   UNL     1       1.429  -1.650   0.000  0.00  0.00    +0.000 OA
BRANCH  28  29
ATOM     29  C   UNL     1       0.715  -2.062   0.000  0.00  0.00    +0.000 C 
ATOM     30  O   UNL     1       0.715  -2.888   0.000  0.00  0.00    +0.000 OA
BRANCH  29  33
ATOM     31  C   UNL     1      -0.715  -2.062   0.000  0.00  0.00    +0.000 A 
ATOM     32  C   UNL     1       0.000  -0.825   0.000  0.00  0.00    +0.000 A 
ATOM     33  C   UNL     1       0.000  -1.650   0.000  0.00  0.00    +0.000 A 
ATOM     34  C   UNL     1      -1.429  -1.650   0.000  0.00  0.00    +0.000 A 
ATOM     35  C   UNL     1      -0.715  -0.412   0.000  0.00  0.00    +0.000 A 
ATOM     36  C   UNL     1      -1.429  -0.825   0.000  0.00  0.00    +0.000 A 
BRANCH  34  38
ATOM     37  C   UNL     1      -2.858  -1.650   0.000  0.00  0.00    +0.000 C 
ATOM     38  O   UNL     1      -2.143  -2.062   0.000  0.00  0.00    +0.000 OA
ENDBRANCH  34  38
BRANCH  35  40
ATOM     39  C   UNL     1      -1.429   0.825   0.000  0.00  0.00    +0.000 C 
ATOM     40  O   UNL     1      -0.715   0.412   0.000  0.00  0.00    +0.000 OA
ENDBRANCH  35  40
BRANCH  36  42
ATOM     41  C   UNL     1      -2.858  -0.825   0.000  0.00  0.00    +0.000 C 
ATOM     42  O   UNL     1      -2.143  -0.412   0.000  0.00  0.00    +0.000 OA
ENDBRANCH  36  42
ENDBRANCH  29  33
ENDBRANCH  28  29
ENDBRANCH  27  28
ENDBRANCH  26  27
ENDBRANCH  25  26
ENDBRANCH  24  25
ENDBRANCH  22  24
ENDBRANCH   1  22
TORSDOF 21
