REMARK  Name = 
REMARK  1 active torsions:
REMARK  status: ('A' for Active; 'I' for Inactive)
REMARK    1  A    between atoms: N_5  and  C_8
REMARK                            x       y       z     vdW  Elec       q    Type
REMARK                         _______ _______ _______ _____ _____    ______ ____
ROOT
ATOM      1  O   UNL     1      -1.163   0.143   0.000  0.00  0.00    +0.000 OA
ATOM      2  O   UNL     1       0.266   2.618   0.000  0.00  0.00    +0.000 OA
ATOM      3  N   UNL     1       0.266   0.143   0.000  0.00  0.00    +0.000 N 
ATOM      4  N   UNL     1      -0.449   1.381   0.000  0.00  0.00    +0.000 N 
ATOM      5  C   UNL     1      -0.449   0.556   0.000  0.00  0.00    +0.000 A 
ATOM      6  C   UNL     1       0.980   0.556   0.000  0.00  0.00    +0.000 A 
ATOM      7  C   UNL     1       0.980   1.381   0.000  0.00  0.00    +0.000 A 
ATOM      8  C   UNL     1       0.266   1.793   0.000  0.00  0.00    +0.000 A 
ATOM      9  H   UNL     1      -0.892   1.637   0.000  0.00  0.00    +0.000 HD
ENDROOT
BRANCH   3  13
ATOM     10  O   UNL     1       0.933  -1.166   0.000  0.00  0.00    +0.000 OA
ATOM     11  O   UNL     1      -0.632  -2.618   0.000  0.00  0.00    +0.000 OA
ATOM     12  C   UNL     1      -0.147  -1.951   0.000  0.00  0.00    +0.000 C 
ATOM     13  C   UNL     1       0.266  -0.681   0.000  0.00  0.00    +0.000 C 
ATOM     14  C   UNL     1      -0.402  -1.166   0.000  0.00  0.00    +0.000 C 
ATOM     15  C   UNL     1       0.678  -1.951   0.000  0.00  0.00    +0.000 C 
ATOM     16  C   UNL     1       1.163  -2.618   0.000  0.00  0.00    +0.000 C 
ENDBRANCH   3  13
TORSDOF 1
