REMARK  Name = 
REMARK  1 active torsions:
REMARK  status: ('A' for Active; 'I' for Inactive)
REMARK    1  A    between atoms: C_1  and  N_4
REMARK                            x       y       z     vdW  Elec       q    Type
REMARK                         _______ _______ _______ _____ _____    ______ ____
ROOT
ATOM      1  C   UNL     1       0.000   0.404   0.000  0.00  0.00    +0.000 A 
ATOM      2  C   UNL     1      -0.713   0.811   0.000  0.00  0.00    +0.000 A 
ATOM      3  C   UNL     1       0.000  -0.425   0.000  0.00  0.00    +0.000 A 
ATOM      4  C   UNL     1      -1.425   0.390   0.000  0.00  0.00    +0.000 A 
ATOM      5  O   UNL     1      -0.713   1.634   0.000  0.00  0.00    +0.000 OA
ATOM      6  C   UNL     1      -0.713  -0.832   0.000  0.00  0.00    +0.000 A 
ATOM      7  C   UNL     1      -1.417  -0.435   0.000  0.00  0.00    +0.000 A 
ATOM      8  C   UNL     1      -0.713  -1.657   0.000  0.00  0.00    +0.000 C 
ENDROOT
BRANCH   1   9
ATOM      9  N   UNL     1       0.713   0.830   0.000  0.00  0.00    +0.000 N 
ATOM     10  O   UNL     1       0.713   1.657   0.000  0.00  0.00    +0.000 OA
ATOM     11  O   UNL     1       1.425   0.423   0.000  0.00  0.00    +0.000 OA
ENDBRANCH   1   9
TORSDOF 1
