REMARK  Name = 
REMARK  9 active torsions:
REMARK  status: ('A' for Active; 'I' for Inactive)
REMARK    1  A    between atoms: C_2  and  C_4
REMARK    2  A    between atoms: C_4  and  O_6
REMARK    3  A    between atoms: O_6  and  C_7
REMARK    4  A    between atoms: C_7  and  C_8
REMARK    5  A    between atoms: C_8  and  C_9
REMARK    6  A    between atoms: C_12  and  N_22
REMARK    7  A    between atoms: C_15  and  O_16
REMARK    8  A    between atoms: O_16  and  C_17
REMARK    9  A    between atoms: C_17  and  C_19
REMARK                            x       y       z     vdW  Elec       q    Type
REMARK                         _______ _______ _______ _____ _____    ______ ____
ROOT
ATOM      1  C   UNL     1       0.279  -1.825   0.000  0.00  0.00    +0.000 C 
ATOM      2  O   UNL     1      -0.205  -1.157   0.000  0.00  0.00    +0.000 OA
ATOM      3  C   UNL     1       0.279  -0.490   0.000  0.00  0.00    +0.000 C 
ATOM      4  C   UNL     1       1.064  -0.745   0.000  0.00  0.00    +0.000 C 
ATOM      5  F   UNL     1       1.732  -0.260   0.000  0.00  0.00    +0.000 F 
ATOM      6  C   UNL     1       1.064  -1.570   0.000  0.00  0.00    +0.000 C 
ENDROOT
BRANCH   3   7
ATOM      7  N   UNL     1       0.025   0.295   0.000  0.00  0.00    +0.000 N 
ATOM      8  C   UNL     1      -0.782   0.467   0.000  0.00  0.00    +0.000 A 
ATOM      9  C   UNL     1      -1.037   1.251   0.000  0.00  0.00    +0.000 A 
ATOM     10  C   UNL     1      -0.485   1.864   0.000  0.00  0.00    +0.000 A 
ATOM     11  N   UNL     1      -0.740   2.649   0.000  0.00  0.00    +0.000 NA
ATOM     12  N   UNL     1       0.322   1.693   0.000  0.00  0.00    +0.000 NA
ATOM     13  C   UNL     1       0.577   0.908   0.000  0.00  0.00    +0.000 A 
ATOM     14  O   UNL     1       1.383   0.737   0.000  0.00  0.00    +0.000 OA
ENDBRANCH   3   7
BRANCH   1  15
ATOM     15  C   UNL     1       0.615  -2.578   0.000  0.00  0.00    +0.000 C 
ATOM     16 CL   UNL     1       0.130  -3.246   0.000  0.00  0.00    +0.000 Cl
ENDBRANCH   1  15
BRANCH   1  17
ATOM     17  C   UNL     1      -0.435  -2.237   0.000  0.00  0.00    +0.000 C 
BRANCH  17  18
ATOM     18  O   UNL     1      -1.149  -1.825   0.000  0.00  0.00    +0.000 OA
BRANCH  18  19
ATOM     19  C   UNL     1      -1.864  -2.237   0.000  0.00  0.00    +0.000 C 
ATOM     20  O   UNL     1      -1.864  -3.062   0.000  0.00  0.00    +0.000 OA
BRANCH  19  22
ATOM     21  C   UNL     1      -3.293  -2.237   0.000  0.00  0.00    +0.000 C 
ATOM     22  C   UNL     1      -2.579  -1.825   0.000  0.00  0.00    +0.000 C 
ATOM     23  C   UNL     1      -2.579  -1.000   0.000  0.00  0.00    +0.000 C 
ENDBRANCH  19  22
ENDBRANCH  18  19
ENDBRANCH  17  18
ENDBRANCH   1  17
BRANCH   6  24
ATOM     24  O   UNL     1       1.732  -2.054   0.000  0.00  0.00    +0.000 OA
BRANCH  24  25
ATOM     25  C   UNL     1       1.645  -2.875   0.000  0.00  0.00    +0.000 C 
ATOM     26  O   UNL     1       0.892  -3.211   0.000  0.00  0.00    +0.000 OA
BRANCH  25  27
ATOM     27  C   UNL     1       2.313  -3.360   0.000  0.00  0.00    +0.000 C 
ATOM     28  C   UNL     1       3.066  -3.024   0.000  0.00  0.00    +0.000 C 
ATOM     29  C   UNL     1       2.226  -4.180   0.000  0.00  0.00    +0.000 C 
ENDBRANCH  25  27
ENDBRANCH  24  25
ENDBRANCH   6  24
TORSDOF 9
