REMARK  Name = 
REMARK  2 active torsions:
REMARK  status: ('A' for Active; 'I' for Inactive)
REMARK    1  A    between atoms: O_2  and  C_4
REMARK    2  A    between atoms: O_2  and  P_6
REMARK                            x       y       z     vdW  Elec       q    Type
REMARK                         _______ _______ _______ _____ _____    ______ ____
ROOT
ATOM      1  O   UNL     1       1.429  -0.403   0.000  0.00  0.00    +0.000 OA
ATOM      2  O   UNL     1       0.715   0.825   0.000  0.00  0.00    +0.000 OA
ATOM      3  P   UNL     1       0.715   0.000   0.000  0.00  0.00    +0.000 P 
ATOM      4  O   UNL     1       0.715  -0.825   0.000  0.00  0.00    +0.000 OA
ENDROOT
BRANCH   3   5
ATOM      5  O   UNL     1       0.000  -0.412   0.000  0.00  0.00    +0.000 OA
BRANCH   5   6
ATOM      6  C   UNL     1      -0.715   0.000   0.000  0.00  0.00    +0.000 C 
ATOM      7  C   UNL     1      -1.429  -0.412   0.000  0.00  0.00    +0.000 C 
ENDBRANCH   5   6
ENDBRANCH   3   5
TORSDOF 2
