REMARK  Name = 
REMARK  2 active torsions:
REMARK  status: ('A' for Active; 'I' for Inactive)
REMARK    1  A    between atoms: C_1  and  C_4
REMARK    2  A    between atoms: C_4  and  N_7
REMARK                            x       y       z     vdW  Elec       q    Type
REMARK                         _______ _______ _______ _____ _____    ______ ____
ROOT
ATOM      1  C   UNL     1      -0.709   0.206   0.000  0.00  0.00    +0.000 A 
ATOM      2  C   UNL     1       0.016  -0.198   0.000  0.00  0.00    +0.000 A 
ATOM      3  C   UNL     1      -1.412  -0.198   0.000  0.00  0.00    +0.000 A 
ATOM      4  C   UNL     1       0.016  -1.023   0.000  0.00  0.00    +0.000 A 
ATOM      5  C   UNL     1      -1.412  -1.023   0.000  0.00  0.00    +0.000 A 
ATOM      6  C   UNL     1      -0.709  -1.440   0.000  0.00  0.00    +0.000 A 
ENDROOT
BRANCH   1   7
ATOM      7  C   UNL     1      -0.709   1.031   0.000  0.00  0.00    +0.000 C 
BRANCH   7   8
ATOM      8  N   UNL     1       0.005   1.440   0.000  0.00  0.00    +0.000 NA
ATOM      9  C   UNL     1       0.708   1.011   0.000  0.00  0.00    +0.000 C 
ATOM     10  S   UNL     1       1.412   0.582   0.000  0.00  0.00    +0.000 S 
ENDBRANCH   7   8
ENDBRANCH   1   7
TORSDOF 2
