REMARK  Name = 
REMARK  13 active torsions:
REMARK  status: ('A' for Active; 'I' for Inactive)
REMARK    1  A    between atoms: N_1  and  C_2
REMARK    2  A    between atoms: C_2  and  C_4
REMARK    3  A    between atoms: C_2  and  C_5
REMARK    4  A    between atoms: N_8  and  C_9
REMARK    5  A    between atoms: C_9  and  C_12
REMARK    6  A    between atoms: N_13  and  C_14
REMARK    7  A    between atoms: C_14  and  C_16
REMARK    8  A    between atoms: C_14  and  C_17
REMARK    9  A    between atoms: C_16  and  C_21
REMARK   10  A    between atoms: C_17  and  C_18
REMARK   11  A    between atoms: C_23  and  O_24
REMARK   12  A    between atoms: O_24  and  C_26
REMARK   13  A    between atoms: C_26  and  C_27
REMARK                            x       y       z     vdW  Elec       q    Type
REMARK                         _______ _______ _______ _____ _____    ______ ____
ROOT
ATOM      1  O   UNL     1      -0.380  -0.842   0.000  0.00  0.00    +0.000 OA
ATOM      2  C   UNL     1      -0.380  -0.013   0.000  0.00  0.00    +0.000 C 
ATOM      3  N   UNL     1       0.338   0.398   0.000  0.00  0.00    +0.000 NA
ENDROOT
BRANCH   3   4
ATOM      4  C   UNL     1       1.054  -0.012   0.000  0.00  0.00    +0.000 C 
ATOM      5  C   UNL     1       1.054  -0.837   0.000  0.00  0.00    +0.000 C 
BRANCH   4   7
ATOM      6  O   UNL     1       1.776   1.236   0.000  0.00  0.00    +0.000 OA
ATOM      7  C   UNL     1       1.776   0.402   0.000  0.00  0.00    +0.000 C 
ATOM      8  N   UNL     1       2.488  -0.010   0.000  0.00  0.00    +0.000 NA
BRANCH   8   9
ATOM      9  C   UNL     1       3.209   0.405   0.000  0.00  0.00    +0.000 C 
BRANCH   9  11
ATOM     10  O   UNL     1       3.919  -0.828   0.000  0.00  0.00    +0.000 OA
ATOM     11  C   UNL     1       3.919  -0.006   0.000  0.00  0.00    +0.000 C 
BRANCH  11  12
ATOM     12  C   UNL     1       4.645   0.414   0.000  0.00  0.00    +0.000 C 
ATOM     13  F   UNL     1       5.355   0.003   0.000  0.00  0.00    +0.000 F 
ENDBRANCH  11  12
ENDBRANCH   9  11
BRANCH   9  14
ATOM     14  C   UNL     1       3.209   1.240   0.000  0.00  0.00    +0.000 C 
BRANCH  14  15
ATOM     15  C   UNL     1       3.919   1.651   0.000  0.00  0.00    +0.000 C 
ATOM     16  O   UNL     1       3.919   2.487   0.000  0.00  0.00    +0.000 OA
ATOM     17  O   UNL     1       4.633   1.240   0.000  0.00  0.00    +0.000 OA
ENDBRANCH  14  15
ENDBRANCH   9  14
ENDBRANCH   8   9
ENDBRANCH   4   7
ENDBRANCH   3   4
BRANCH   2  18
ATOM     18  C   UNL     1      -1.096   0.397   0.000  0.00  0.00    +0.000 C 
BRANCH  18  19
ATOM     19  N   UNL     1      -1.814  -0.017   0.000  0.00  0.00    +0.000 NA
ATOM     20  C   UNL     1      -1.814  -0.851   0.000  0.00  0.00    +0.000 C 
ATOM     21  O   UNL     1      -1.093  -1.266   0.000  0.00  0.00    +0.000 OA
BRANCH  20  22
ATOM     22  O   UNL     1      -2.529  -1.262   0.000  0.00  0.00    +0.000 OA
BRANCH  22  23
ATOM     23  C   UNL     1      -3.240  -0.851   0.000  0.00  0.00    +0.000 C 
BRANCH  23  24
ATOM     24  C   UNL     1      -3.961  -1.267   0.000  0.00  0.00    +0.000 A 
ATOM     25  C   UNL     1      -4.656  -0.870   0.000  0.00  0.00    +0.000 A 
ATOM     26  C   UNL     1      -5.355  -1.273   0.000  0.00  0.00    +0.000 A 
ATOM     27  C   UNL     1      -5.352  -2.085   0.000  0.00  0.00    +0.000 A 
ATOM     28  C   UNL     1      -4.646  -2.487   0.000  0.00  0.00    +0.000 A 
ATOM     29  C   UNL     1      -3.947  -2.076   0.000  0.00  0.00    +0.000 A 
ENDBRANCH  23  24
ENDBRANCH  22  23
ENDBRANCH  20  22
ENDBRANCH  18  19
BRANCH  18  30
ATOM     30  C   UNL     1      -1.096   1.222   0.000  0.00  0.00    +0.000 C 
ATOM     31  C   UNL     1      -0.380   1.634   0.000  0.00  0.00    +0.000 C 
ATOM     32  C   UNL     1      -1.815   1.641   0.000  0.00  0.00    +0.000 C 
ENDBRANCH  18  30
ENDBRANCH   2  18
TORSDOF 13
