REMARK  Name = 
REMARK  17 active torsions:
REMARK  status: ('A' for Active; 'I' for Inactive)
REMARK    1  A    between atoms: C_1  and  C_9
REMARK    2  A    between atoms: N_2  and  C_3
REMARK    3  A    between atoms: C_3  and  C_4
REMARK    4  A    between atoms: C_4  and  N_5
REMARK    5  A    between atoms: C_39  and  C_76
REMARK    6  A    between atoms: C_55  and  O_57
REMARK    7  A    between atoms: O_57  and  C_58
REMARK    8  A    between atoms: C_61  and  N_62
REMARK    9  A    between atoms: C_63  and  C_64
REMARK   10  A    between atoms: C_64  and  N_65
REMARK   11  A    between atoms: C_76  and  C_77
REMARK   12  A    between atoms: C_77  and  C_78
REMARK   13  A    between atoms: C_78  and  C_79
REMARK   14  A    between atoms: C_79  and  C_80
REMARK   15  A    between atoms: C_80  and  C_81
REMARK   16  A    between atoms: C_81  and  C_83
REMARK   17  A    between atoms: C_86  and  N_89
REMARK                            x       y       z     vdW  Elec       q    Type
REMARK                         _______ _______ _______ _____ _____    ______ ____
ROOT
ATOM      1  C   UNL     1       5.814   1.268   0.000  0.00  0.00    +0.000 C 
ATOM      2  C   UNL     1       5.814   0.443   0.000  0.00  0.00    +0.000 C 
ATOM      3  O   UNL     1       5.099   0.031   0.000  0.00  0.00    +0.000 OA
ATOM      4  C   UNL     1       4.385   0.443   0.000  0.00  0.00    +0.000 C 
ATOM      5  C   UNL     1       4.385   1.268   0.000  0.00  0.00    +0.000 C 
ATOM      6  C   UNL     1       5.100   1.681   0.000  0.00  0.00    +0.000 C 
ATOM      7  O   UNL     1       5.100   2.506   0.000  0.00  0.00    +0.000 OA
ATOM      8  O   UNL     1       3.671   0.856   0.000  0.00  0.00    +0.000 OA
ATOM      9  C   UNL     1       3.671   0.031   0.000  0.00  0.00    +0.000 C 
ATOM     10  C   UNL     1       2.956   0.443   0.000  0.00  0.00    +0.000 C 
ATOM     11  O   UNL     1       2.956   1.268   0.000  0.00  0.00    +0.000 OA
ATOM     12  C   UNL     1       2.242   0.031   0.000  0.00  0.00    +0.000 C 
ATOM     13  C   UNL     1       1.527   0.443   0.000  0.00  0.00    +0.000 C 
ATOM     14  O   UNL     1       1.527   1.268   0.000  0.00  0.00    +0.000 OA
ATOM     15  C   UNL     1       0.813   0.031   0.000  0.00  0.00    +0.000 C 
ATOM     16  C   UNL     1       0.098   0.443   0.000  0.00  0.00    +0.000 C 
ATOM     17  O   UNL     1       0.098   1.268   0.000  0.00  0.00    +0.000 OA
ATOM     18  C   UNL     1      -0.616   0.031   0.000  0.00  0.00    +0.000 C 
ATOM     19  C   UNL     1      -1.331   0.443   0.000  0.00  0.00    +0.000 C 
ATOM     20  O   UNL     1      -1.331   1.268   0.000  0.00  0.00    +0.000 OA
ATOM     21  C   UNL     1      -2.045   0.031   0.000  0.00  0.00    +0.000 C 
ATOM     22  C   UNL     1      -2.760   0.443   0.000  0.00  0.00    +0.000 C 
ATOM     23  O   UNL     1      -2.760   1.268   0.000  0.00  0.00    +0.000 OA
ATOM     24  C   UNL     1      -3.474   0.031   0.000  0.00  0.00    +0.000 C 
ATOM     25  C   UNL     1      -4.057   0.614   0.000  0.00  0.00    +0.000 C 
ATOM     26  O   UNL     1      -3.742   1.376   0.000  0.00  0.00    +0.000 OA
ATOM     27  C   UNL     1      -4.882   0.614   0.000  0.00  0.00    +0.000 C 
ATOM     28  C   UNL     1      -5.466   0.031   0.000  0.00  0.00    +0.000 C 
ATOM     29  O   UNL     1      -6.228   0.347   0.000  0.00  0.00    +0.000 OA
ATOM     30  O   UNL     1      -5.466  -0.794   0.000  0.00  0.00    +0.000 OA
ATOM     31  C   UNL     1      -4.882  -1.377   0.000  0.00  0.00    +0.000 C 
ATOM     32  C   UNL     1      -4.057  -1.377   0.000  0.00  0.00    +0.000 C 
ATOM     33  C   UNL     1      -3.474  -0.794   0.000  0.00  0.00    +0.000 C 
ATOM     34  C   UNL     1      -2.760  -1.206   0.000  0.00  0.00    +0.000 C 
ATOM     35  C   UNL     1      -2.045  -0.794   0.000  0.00  0.00    +0.000 C 
ATOM     36  C   UNL     1      -1.331  -1.207   0.000  0.00  0.00    +0.000 C 
ATOM     37  C   UNL     1      -0.616  -0.794   0.000  0.00  0.00    +0.000 C 
ATOM     38  C   UNL     1       0.098  -1.207   0.000  0.00  0.00    +0.000 C 
ATOM     39  C   UNL     1       0.813  -0.794   0.000  0.00  0.00    +0.000 C 
ATOM     40  C   UNL     1       1.527  -1.207   0.000  0.00  0.00    +0.000 C 
ATOM     41  C   UNL     1       2.241  -0.794   0.000  0.00  0.00    +0.000 C 
ATOM     42  C   UNL     1       2.956  -1.207   0.000  0.00  0.00    +0.000 C 
ATOM     43  C   UNL     1       3.671  -0.794   0.000  0.00  0.00    +0.000 C 
ATOM     44  C   UNL     1       4.385  -1.207   0.000  0.00  0.00    +0.000 C 
ATOM     45  C   UNL     1       5.099  -0.794   0.000  0.00  0.00    +0.000 C 
ATOM     46  C   UNL     1       5.814  -1.207   0.000  0.00  0.00    +0.000 C 
ATOM     47  C   UNL     1       6.528  -0.794   0.000  0.00  0.00    +0.000 C 
ATOM     48  C   UNL     1       6.528   0.031   0.000  0.00  0.00    +0.000 C 
ATOM     49  C   UNL     1      -3.742  -2.139   0.000  0.00  0.00    +0.000 C 
ENDROOT
BRANCH   1  50
ATOM     50  C   UNL     1       6.528   1.681   0.000  0.00  0.00    +0.000 C 
ATOM     51  N   UNL     1       6.528   2.506   0.000  0.00  0.00    +0.000 NA
ATOM     52  O   UNL     1       7.243   1.268   0.000  0.00  0.00    +0.000 OA
BRANCH  51  53
ATOM     53  C   UNL     1       7.243   2.918   0.000  0.00  0.00    +0.000 C 
BRANCH  53  54
ATOM     54  C   UNL     1       7.957   2.506   0.000  0.00  0.00    +0.000 C 
BRANCH  54  55
ATOM     55  N   UNL     1       8.672   2.918   0.000  0.00  0.00    +0.000 NA
ATOM     56  C   UNL     1       9.386   2.506   0.000  0.00  0.00    +0.000 C 
ATOM     57  C   UNL     1       8.672   3.743   0.000  0.00  0.00    +0.000 C 
ENDBRANCH  54  55
ENDBRANCH  53  54
ENDBRANCH  51  53
ENDBRANCH   1  50
BRANCH  31  58
ATOM     58  C   UNL     1      -4.811  -2.199   0.000  0.00  0.00    +0.000 C 
ATOM     59  C   UNL     1      -4.063  -2.548   0.000  0.00  0.00    +0.000 C 
BRANCH  58  60
ATOM     60  C   UNL     1      -5.486  -2.672   0.000  0.00  0.00    +0.000 C 
BRANCH  60  61
ATOM     61  C   UNL     1      -6.234  -2.324   0.000  0.00  0.00    +0.000 C 
BRANCH  61  62
ATOM     62  C   UNL     1      -6.910  -2.797   0.000  0.00  0.00    +0.000 C 
ATOM     63  O   UNL     1      -6.838  -3.619   0.000  0.00  0.00    +0.000 OA
BRANCH  62  64
ATOM     64  C   UNL     1      -7.658  -2.448   0.000  0.00  0.00    +0.000 C 
BRANCH  64  65
ATOM     65  C   UNL     1      -8.333  -2.921   0.000  0.00  0.00    +0.000 C 
ATOM     66  O   UNL     1      -8.261  -3.743   0.000  0.00  0.00    +0.000 OA
BRANCH  65  67
ATOM     67  C   UNL     1      -9.081  -2.573   0.000  0.00  0.00    +0.000 A 
ATOM     68  C   UNL     1      -9.153  -1.751   0.000  0.00  0.00    +0.000 A 
ATOM     69  C   UNL     1      -9.901  -1.402   0.000  0.00  0.00    +0.000 A 
ATOM     70  C   UNL     1     -10.576  -1.875   0.000  0.00  0.00    +0.000 A 
ATOM     71  C   UNL     1     -10.505  -2.697   0.000  0.00  0.00    +0.000 A 
ATOM     72  C   UNL     1      -9.757  -3.046   0.000  0.00  0.00    +0.000 A 
BRANCH  70  73
ATOM     73  N   UNL     1     -11.324  -1.527   0.000  0.00  0.00    +0.000 NA
ATOM     74  C   UNL     1     -12.000  -2.000   0.000  0.00  0.00    +0.000 C 
ENDBRANCH  70  73
ENDBRANCH  65  67
ENDBRANCH  64  65
ENDBRANCH  62  64
ENDBRANCH  61  62
ENDBRANCH  60  61
ENDBRANCH  58  60
ENDBRANCH  31  58
BRANCH  47  75
ATOM     75  O   UNL     1       7.243  -1.207   0.000  0.00  0.00    +0.000 OA
BRANCH  75  76
ATOM     76  C   UNL     1       7.875  -0.676   0.000  0.00  0.00    +0.000 C 
ATOM     77  C   UNL     1       8.287   0.038   0.000  0.00  0.00    +0.000 C 
ATOM     78  O   UNL     1       7.875   0.752   0.000  0.00  0.00    +0.000 OA
ATOM     79  C   UNL     1       9.112   0.038   0.000  0.00  0.00    +0.000 C 
ATOM     80  C   UNL     1       9.525  -0.676   0.000  0.00  0.00    +0.000 C 
ATOM     81  C   UNL     1       9.112  -1.391   0.000  0.00  0.00    +0.000 C 
ATOM     82  O   UNL     1       8.287  -1.391   0.000  0.00  0.00    +0.000 OA
ATOM     83  C   UNL     1       9.525  -2.105   0.000  0.00  0.00    +0.000 C 
ATOM     84  O   UNL     1      10.350  -0.676   0.000  0.00  0.00    +0.000 OA
BRANCH  79  85
ATOM     85  N   UNL     1       9.525   0.752   0.000  0.00  0.00    +0.000 NA
ATOM     86  C   UNL     1      10.350   0.752   0.000  0.00  0.00    +0.000 C 
ATOM     87  O   UNL     1      10.762   0.038   0.000  0.00  0.00    +0.000 OA
BRANCH  86  88
ATOM     88  C   UNL     1      10.762   1.467   0.000  0.00  0.00    +0.000 C 
BRANCH  88  89
ATOM     89  N   UNL     1      11.587   1.467   0.000  0.00  0.00    +0.000 NA
ATOM     90  C   UNL     1      12.000   2.181   0.000  0.00  0.00    +0.000 C 
ATOM     91  C   UNL     1      12.000   0.752   0.000  0.00  0.00    +0.000 C 
ENDBRANCH  88  89
ENDBRANCH  86  88
ENDBRANCH  79  85
ENDBRANCH  75  76
ENDBRANCH  47  75
TORSDOF 17
