REMARK  Name = 
REMARK  6 active torsions:
REMARK  status: ('A' for Active; 'I' for Inactive)
REMARK    1  A    between atoms: C_1  and  C_2
REMARK    2  A    between atoms: N_4  and  C_5
REMARK    3  A    between atoms: N_15  and  C_16
REMARK    4  A    between atoms: N_22  and  C_23
REMARK    5  A    between atoms: C_23  and  C_24
REMARK    6  A    between atoms: C_24  and  N_25
REMARK                            x       y       z     vdW  Elec       q    Type
REMARK                         _______ _______ _______ _____ _____    ______ ____
ROOT
ATOM      1  C   UNL     1       0.017   0.924   0.000  0.00  0.00    +0.000 C 
ATOM      2  C   UNL     1      -0.125   0.111   0.000  0.00  0.00    +0.000 C 
ATOM      3  C   UNL     1       0.422  -0.506   0.000  0.00  0.00    +0.000 C 
ATOM      4  C   UNL     1       1.246  -0.463   0.000  0.00  0.00    +0.000 C 
ATOM      5  C   UNL     1       1.726   0.207   0.000  0.00  0.00    +0.000 C 
ATOM      6  C   UNL     1       1.501   1.001   0.000  0.00  0.00    +0.000 C 
ATOM      7  N   UNL     1       0.527   0.559   0.000  0.00  0.00    +0.000 NA
ATOM      8  C   UNL     1       0.741   1.320   0.000  0.00  0.00    +0.000 C 
ENDROOT
BRANCH   1  11
ATOM      9  C   UNL     1      -1.405   1.064   0.000  0.00  0.00    +0.000 C 
ATOM     10  O   UNL     1      -1.486   0.243   0.000  0.00  0.00    +0.000 OA
ATOM     11  N   UNL     1      -0.654   1.405   0.000  0.00  0.00    +0.000 NA
BRANCH   9  12
ATOM     12  C   UNL     1      -2.076   1.544   0.000  0.00  0.00    +0.000 A 
ATOM     13  N   UNL     1      -2.082   2.369   0.000  0.00  0.00    +0.000 NA
ATOM     14  N   UNL     1      -2.868   2.619   0.000  0.00  0.00    +0.000 N 
ATOM     15  C   UNL     1      -3.348   1.948   0.000  0.00  0.00    +0.000 A 
ATOM     16  C   UNL     1      -4.168   1.856   0.000  0.00  0.00    +0.000 A 
ATOM     17  C   UNL     1      -4.498   1.100   0.000  0.00  0.00    +0.000 A 
ATOM     18  C   UNL     1      -4.009   0.436   0.000  0.00  0.00    +0.000 A 
ATOM     19  C   UNL     1      -3.189   0.528   0.000  0.00  0.00    +0.000 A 
ATOM     20  C   UNL     1      -2.859   1.284   0.000  0.00  0.00    +0.000 A 
BRANCH  14  21
ATOM     21  C   UNL     1      -3.128   3.401   0.000  0.00  0.00    +0.000 C 
ATOM     22  C   UNL     1      -2.580   4.018   0.000  0.00  0.00    +0.000 C 
ATOM     23  C   UNL     1      -3.936   3.568   0.000  0.00  0.00    +0.000 C 
ENDBRANCH  14  21
ENDBRANCH   9  12
ENDBRANCH   1  11
BRANCH   7  24
ATOM     24  C   UNL     1       1.197   0.079   0.000  0.00  0.00    +0.000 C 
BRANCH  24  25
ATOM     25  C   UNL     1       0.832  -1.090   0.000  0.00  0.00    +0.000 C 
BRANCH  25  26
ATOM     26  N   UNL     1       1.735  -1.756   0.000  0.00  0.00    +0.000 NA
ATOM     27  C   UNL     1       2.486  -1.416   0.000  0.00  0.00    +0.000 C 
ATOM     28  C   UNL     1       3.157  -1.896   0.000  0.00  0.00    +0.000 C 
ATOM     29  N   UNL     1       3.076  -2.717   0.000  0.00  0.00    +0.000 N 
ATOM     30  C   UNL     1       3.747  -3.197   0.000  0.00  0.00    +0.000 C 
ATOM     31  O   UNL     1       3.667  -4.018   0.000  0.00  0.00    +0.000 OA
ATOM     32  C   UNL     1       4.499  -2.857   0.000  0.00  0.00    +0.000 C 
ATOM     33  C   UNL     1       2.325  -3.058   0.000  0.00  0.00    +0.000 C 
ATOM     34  C   UNL     1       1.654  -2.577   0.000  0.00  0.00    +0.000 C 
ENDBRANCH  25  26
ENDBRANCH  24  25
ENDBRANCH   7  24
TORSDOF 6
