REMARK  Name = 
REMARK  12 active torsions:
REMARK  status: ('A' for Active; 'I' for Inactive)
REMARK    1  A    between atoms: N_2  and  C_4
REMARK    2  A    between atoms: C_4  and  C_5
REMARK    3  A    between atoms: C_8  and  C_10
REMARK    4  A    between atoms: C_10  and  S_11
REMARK    5  A    between atoms: S_11  and  C_12
REMARK    6  A    between atoms: C_12  and  C_13
REMARK    7  A    between atoms: C_13  and  N_14
REMARK    8  A    between atoms: N_14  and  C_15
REMARK    9  A    between atoms: C_15  and  N_20
REMARK   10  A    between atoms: C_16  and  N_17
REMARK   11  A    between atoms: N_20  and  C_21
REMARK   12  A    between atoms: C_21  and  C_22
REMARK                            x       y       z     vdW  Elec       q    Type
REMARK                         _______ _______ _______ _____ _____    ______ ____
ROOT
ATOM      1  C   UNL     1       1.429  -5.775   0.000  0.00  0.00    +0.000 C 
ATOM      2  C   UNL     1       1.429  -6.600   0.000  0.00  0.00    +0.000 C 
ENDROOT
BRANCH   2   3
ATOM      3  N   UNL     1       0.715  -7.013   0.000  0.00  0.00    +0.000 N 
ATOM      4  O   UNL     1       0.715  -7.838   0.000  0.00  0.00    +0.000 OA
ATOM      5  O   UNL     1       0.000  -6.600   0.000  0.00  0.00    +0.000 OA
ENDBRANCH   2   3
BRANCH   1   6
ATOM      6  N   UNL     1       0.715  -5.362   0.000  0.00  0.00    +0.000 NA
BRANCH   6   7
ATOM      7  C   UNL     1       0.000  -5.775   0.000  0.00  0.00    +0.000 C 
BRANCH   7   8
ATOM      8  C   UNL     1      -0.715  -5.362   0.000  0.00  0.00    +0.000 C 
BRANCH   8   9
ATOM      9  S   UNL     1      -1.429  -5.775   0.000  0.00  0.00    +0.000 S 
BRANCH   9  10
ATOM     10  C   UNL     1      -2.143  -5.362   0.000  0.00  0.00    +0.000 C 
BRANCH  10  14
ATOM     11  C   UNL     1      -3.751  -6.767   0.000  0.00  0.00    +0.000 A 
ATOM     12  C   UNL     1      -4.164  -6.053   0.000  0.00  0.00    +0.000 A 
ATOM     13  C   UNL     1      -3.612  -5.439   0.000  0.00  0.00    +0.000 A 
ATOM     14  C   UNL     1      -2.858  -5.775   0.000  0.00  0.00    +0.000 A 
ATOM     15  O   UNL     1      -2.944  -6.596   0.000  0.00  0.00    +0.000 OA
BRANCH  11  16
ATOM     16  C   UNL     1      -4.087  -7.521   0.000  0.00  0.00    +0.000 C 
BRANCH  16  18
ATOM     17  C   UNL     1      -5.243  -8.361   0.000  0.00  0.00    +0.000 C 
ATOM     18  N   UNL     1      -4.907  -7.607   0.000  0.00  0.00    +0.000 NA
ATOM     19  C   UNL     1      -5.392  -6.939   0.000  0.00  0.00    +0.000 C 
ENDBRANCH  16  18
ENDBRANCH  11  16
ENDBRANCH  10  14
ENDBRANCH   9  10
ENDBRANCH   8   9
ENDBRANCH   7   8
ENDBRANCH   6   7
ENDBRANCH   1   6
BRANCH   1  20
ATOM     20  N   UNL     1       2.143  -5.362   0.000  0.00  0.00    +0.000 NA
BRANCH  20  21
ATOM     21  C   UNL     1       2.858  -5.775   0.000  0.00  0.00    +0.000 C 
BRANCH  21  22
ATOM     22  C   UNL     1       3.572  -5.362   0.000  0.00  0.00    +0.000 A 
ATOM     23  C   UNL     1       3.572  -4.537   0.000  0.00  0.00    +0.000 A 
ATOM     24  C   UNL     1       4.287  -4.125   0.000  0.00  0.00    +0.000 A 
ATOM     25  C   UNL     1       5.001  -4.537   0.000  0.00  0.00    +0.000 A 
ATOM     26  C   UNL     1       5.001  -5.362   0.000  0.00  0.00    +0.000 A 
ATOM     27  C   UNL     1       4.287  -5.775   0.000  0.00  0.00    +0.000 A 
ATOM     28  O   UNL     1       5.786  -5.617   0.000  0.00  0.00    +0.000 OA
ATOM     29  C   UNL     1       6.271  -4.950   0.000  0.00  0.00    +0.000 C 
ATOM     30  O   UNL     1       5.786  -4.283   0.000  0.00  0.00    +0.000 OA
ENDBRANCH  21  22
ENDBRANCH  20  21
ENDBRANCH   1  20
TORSDOF 12
