REMARK  Name = 
REMARK  10 active torsions:
REMARK  status: ('A' for Active; 'I' for Inactive)
REMARK    1  A    between atoms: C_2  and  C_3
REMARK    2  A    between atoms: C_20  and  C_34
REMARK    3  A    between atoms: C_34  and  O_35
REMARK    4  A    between atoms: O_35  and  C_37
REMARK    5  A    between atoms: C_39  and  C_43
REMARK    6  A    between atoms: C_43  and  O_44
REMARK    7  A    between atoms: O_44  and  C_48
REMARK    8  A    between atoms: C_50  and  C_54
REMARK    9  A    between atoms: C_51  and  O_58
REMARK   10  A    between atoms: O_58  and  C_59
REMARK                            x       y       z     vdW  Elec       q    Type
REMARK                         _______ _______ _______ _____ _____    ______ ____
ROOT
ATOM      1  C   UNL     1       1.265  -3.528   0.000  0.00  0.00    +0.000 C 
ATOM      2  O   UNL     1       1.093  -4.336   0.000  0.00  0.00    +0.000 OA
ENDROOT
BRANCH   1  21
ATOM      3  C   UNL     1       2.284   1.711   0.000  0.00  0.00    +0.000 C 
ATOM      4  C   UNL     1       3.087   1.537   0.000  0.00  0.00    +0.000 C 
ATOM      5  C   UNL     1       4.479   1.238   0.000  0.00  0.00    +0.000 C 
ATOM      6  C   UNL     1       3.865   1.790   0.000  0.00  0.00    +0.000 C 
ATOM      7  C   UNL     1       4.312   0.429   0.000  0.00  0.00    +0.000 C 
ATOM      8  C   UNL     1       3.525   0.179   0.000  0.00  0.00    +0.000 C 
ATOM      9  C   UNL     1       2.911   0.731   0.000  0.00  0.00    +0.000 C 
ATOM     10  C   UNL     1       2.130   0.476   0.000  0.00  0.00    +0.000 C 
ATOM     11  C   UNL     1       1.958  -0.331   0.000  0.00  0.00    +0.000 C 
ATOM     12  C   UNL     1       3.359  -0.628   0.000  0.00  0.00    +0.000 C 
ATOM     13  C   UNL     1       2.573  -0.878   0.000  0.00  0.00    +0.000 C 
ATOM     14  C   UNL     1       3.792  -1.986   0.000  0.00  0.00    +0.000 C 
ATOM     15  C   UNL     1       3.970  -1.179   0.000  0.00  0.00    +0.000 C 
ATOM     16  C   UNL     1       3.006  -2.236   0.000  0.00  0.00    +0.000 C 
ATOM     17  C   UNL     1       2.403  -1.679   0.000  0.00  0.00    +0.000 C 
ATOM     18  C   UNL     1       1.623  -1.921   0.000  0.00  0.00    +0.000 C 
ATOM     19  C   UNL     1       1.440  -2.721   0.000  0.00  0.00    +0.000 C 
ATOM     20  C   UNL     1       2.829  -3.035   0.000  0.00  0.00    +0.000 C 
ATOM     21  C   UNL     1       2.045  -3.275   0.000  0.00  0.00    +0.000 C 
ATOM     22  C   UNL     1       1.861  -4.069   0.000  0.00  0.00    +0.000 C 
ATOM     23  C   UNL     1       2.459  -4.630   0.000  0.00  0.00    +0.000 C 
ATOM     24  C   UNL     1       3.243  -4.391   0.000  0.00  0.00    +0.000 C 
ATOM     25  C   UNL     1       3.430  -3.590   0.000  0.00  0.00    +0.000 C 
ATOM     26  C   UNL     1       4.144  -0.368   0.000  0.00  0.00    +0.000 C 
ATOM     27  O   UNL     1       5.264   1.496   0.000  0.00  0.00    +0.000 OA
ATOM     28  O   UNL     1       4.036   2.599   0.000  0.00  0.00    +0.000 OA
ATOM     29  O   UNL     1       1.517   1.028   0.000  0.00  0.00    +0.000 OA
ATOM     30  C   UNL     1       3.192  -1.425   0.000  0.00  0.00    +0.000 C 
ATOM     31  C   UNL     1       1.798  -1.123   0.000  0.00  0.00    +0.000 C 
ATOM     32  C   UNL     1       3.846  -4.955   0.000  0.00  0.00    +0.000 C 
ATOM     33  C   UNL     1       4.219  -3.348   0.000  0.00  0.00    +0.000 C 
BRANCH   4  34
ATOM     34  C   UNL     1       2.836   2.320   0.000  0.00  0.00    +0.000 C 
ATOM     35  O   UNL     1       2.029   2.494   0.000  0.00  0.00    +0.000 OA
ENDBRANCH   4  34
ENDBRANCH   1  21
BRANCH   1  36
ATOM     36  O   UNL     1       0.652  -2.976   0.000  0.00  0.00    +0.000 OA
BRANCH  36  37
ATOM     37  C   UNL     1      -0.134  -3.231   0.000  0.00  0.00    +0.000 C 
ATOM     38  O   UNL     1      -0.745  -2.674   0.000  0.00  0.00    +0.000 OA
ATOM     39  C   UNL     1      -1.528  -2.927   0.000  0.00  0.00    +0.000 C 
ATOM     40  C   UNL     1      -1.704  -3.734   0.000  0.00  0.00    +0.000 C 
ATOM     41  C   UNL     1      -1.091  -4.288   0.000  0.00  0.00    +0.000 C 
ATOM     42  C   UNL     1      -0.302  -4.036   0.000  0.00  0.00    +0.000 C 
ATOM     43  O   UNL     1      -2.490  -3.986   0.000  0.00  0.00    +0.000 OA
ATOM     44  O   UNL     1      -1.265  -5.096   0.000  0.00  0.00    +0.000 OA
ATOM     45  O   UNL     1       0.311  -4.589   0.000  0.00  0.00    +0.000 OA
BRANCH  39  46
ATOM     46  C   UNL     1      -2.139  -2.372   0.000  0.00  0.00    +0.000 C 
BRANCH  46  47
ATOM     47  O   UNL     1      -1.965  -1.565   0.000  0.00  0.00    +0.000 OA
BRANCH  47  48
ATOM     48  C   UNL     1      -2.576  -1.010   0.000  0.00  0.00    +0.000 C 
ATOM     49  O   UNL     1      -2.397  -0.205   0.000  0.00  0.00    +0.000 OA
ATOM     50  C   UNL     1      -3.005   0.348   0.000  0.00  0.00    +0.000 C 
ATOM     51  C   UNL     1      -3.793   0.100   0.000  0.00  0.00    +0.000 C 
ATOM     52  C   UNL     1      -3.970  -0.707   0.000  0.00  0.00    +0.000 C 
ATOM     53  C   UNL     1      -3.358  -1.267   0.000  0.00  0.00    +0.000 C 
ATOM     54  O   UNL     1      -3.532  -2.074   0.000  0.00  0.00    +0.000 OA
ATOM     55  O   UNL     1      -4.757  -0.957   0.000  0.00  0.00    +0.000 OA
BRANCH  50  56
ATOM     56  C   UNL     1      -2.827   1.155   0.000  0.00  0.00    +0.000 C 
ATOM     57  O   UNL     1      -2.040   1.404   0.000  0.00  0.00    +0.000 OA
ENDBRANCH  50  56
BRANCH  51  58
ATOM     58  O   UNL     1      -4.402   0.657   0.000  0.00  0.00    +0.000 OA
BRANCH  58  59
ATOM     59  C   UNL     1      -4.224   1.464   0.000  0.00  0.00    +0.000 C 
ATOM     60  O   UNL     1      -3.436   1.710   0.000  0.00  0.00    +0.000 OA
ATOM     61  C   UNL     1      -3.257   2.513   0.000  0.00  0.00    +0.000 C 
ATOM     62  C   UNL     1      -3.864   3.073   0.000  0.00  0.00    +0.000 C 
ATOM     63  C   UNL     1      -4.652   2.826   0.000  0.00  0.00    +0.000 C 
ATOM     64  C   UNL     1      -4.834   2.017   0.000  0.00  0.00    +0.000 C 
ATOM     65  C   UNL     1      -2.469   2.759   0.000  0.00  0.00    +0.000 C 
ATOM     66  O   UNL     1      -3.683   3.879   0.000  0.00  0.00    +0.000 OA
ATOM     67  O   UNL     1      -5.622   1.768   0.000  0.00  0.00    +0.000 OA
ATOM     68  O   UNL     1      -5.260   3.385   0.000  0.00  0.00    +0.000 OA
ENDBRANCH  58  59
ENDBRANCH  51  58
ENDBRANCH  47  48
ENDBRANCH  46  47
ENDBRANCH  39  46
ENDBRANCH  36  37
ENDBRANCH   1  36
TORSDOF 10
