REMARK  Name = 
REMARK  3 active torsions:
REMARK  status: ('A' for Active; 'I' for Inactive)
REMARK    1  A    between atoms: C_2  and  O_3
REMARK    2  A    between atoms: O_3  and  C_4
REMARK    3  A    between atoms: C_4  and  C_6
REMARK                            x       y       z     vdW  Elec       q    Type
REMARK                         _______ _______ _______ _____ _____    ______ ____
ROOT
ATOM      1  C   UNL     1       0.573  -0.613   0.000  0.00  0.00    +0.000 A 
ATOM      2  C   UNL     1       1.334  -0.293   0.000  0.00  0.00    +0.000 A 
ATOM      3  C   UNL     1       1.486   0.518   0.000  0.00  0.00    +0.000 C 
ATOM      4  N   UNL     1       2.215   0.905   0.000  0.00  0.00    +0.000 N 
ATOM      5  C   UNL     1       2.182   1.729   0.000  0.00  0.00    +0.000 C 
ATOM      6  C   UNL     1       2.971   0.576   0.000  0.00  0.00    +0.000 C 
ATOM      7  O   UNL     1       3.596   1.115   0.000  0.00  0.00    +0.000 OA
ATOM      8  C   UNL     1       3.186  -0.221   0.000  0.00  0.00    +0.000 A 
ATOM      9  C   UNL     1       4.006  -0.311   0.000  0.00  0.00    +0.000 A 
ATOM     10  I   UNL     1       4.495   0.353   0.000  0.00  0.00    +0.000 I 
ATOM     11  C   UNL     1       4.337  -1.067   0.000  0.00  0.00    +0.000 A 
ATOM     12  C   UNL     1       3.848  -1.732   0.000  0.00  0.00    +0.000 A 
ATOM     13  C   UNL     1       3.028  -1.641   0.000  0.00  0.00    +0.000 A 
ATOM     14  C   UNL     1       2.697  -0.885   0.000  0.00  0.00    +0.000 A 
ATOM     15  N   UNL     1       1.873  -0.917   0.000  0.00  0.00    +0.000 N 
ATOM     16  C   UNL     1       1.446  -1.623   0.000  0.00  0.00    +0.000 A 
ATOM     17  N   UNL     1       0.642  -1.435   0.000  0.00  0.00    +0.000 NA
ENDROOT
BRANCH   1  18
ATOM     18  C   UNL     1      -0.133  -0.185   0.000  0.00  0.00    +0.000 C 
ATOM     19  O   UNL     1      -0.115   0.639   0.000  0.00  0.00    +0.000 OA
BRANCH  18  20
ATOM     20  O   UNL     1      -0.856  -0.583   0.000  0.00  0.00    +0.000 OA
BRANCH  20  22
ATOM     21  C   UNL     1      -2.284  -0.553   0.000  0.00  0.00    +0.000 C 
ATOM     22  C   UNL     1      -1.561  -0.156   0.000  0.00  0.00    +0.000 C 
ENDBRANCH  20  22
ENDBRANCH  18  20
ENDBRANCH   1  18
TORSDOF 3
