REMARK  Name = 
REMARK  9 active torsions:
REMARK  status: ('A' for Active; 'I' for Inactive)
REMARK    1  A    between atoms: C_2  and  C_3
REMARK    2  A    between atoms: C_3  and  C_4
REMARK    3  A    between atoms: C_4  and  C_5
REMARK    4  A    between atoms: C_5  and  N_6
REMARK    5  A    between atoms: N_6  and  C_7
REMARK    6  A    between atoms: C_7  and  C_8
REMARK    7  A    between atoms: C_8  and  C_9
REMARK    8  A    between atoms: C_9  and  P_12
REMARK    9  A    between atoms: C_9  and  P_13
REMARK                            x       y       z     vdW  Elec       q    Type
REMARK                         _______ _______ _______ _____ _____    ______ ____
ROOT
ATOM      1  C   UNL     1      -0.604  -2.062   0.000  0.00  0.00    +0.000 C 
ATOM      2  O   UNL     1      -0.604  -2.888   0.000  0.00  0.00    +0.000 OA
ENDROOT
BRANCH   1   3
ATOM      3  P   UNL     1      -1.429  -2.062   0.000  0.00  0.00    +0.000 P 
ATOM      4  O   UNL     1      -1.429  -2.888   0.000  0.00  0.00    +0.000 OA
ATOM      5  O   UNL     1      -2.254  -2.062   0.000  0.00  0.00    +0.000 OA
ATOM      6  O   UNL     1      -1.429  -1.238   0.000  0.00  0.00    +0.000 OA
ENDBRANCH   1   3
BRANCH   1   7
ATOM      7  P   UNL     1       0.221  -2.062   0.000  0.00  0.00    +0.000 P 
ATOM      8  O   UNL     1       1.046  -2.062   0.000  0.00  0.00    +0.000 OA
ATOM      9  O   UNL     1       0.221  -2.888   0.000  0.00  0.00    +0.000 OA
ATOM     10  O   UNL     1       0.221  -1.238   0.000  0.00  0.00    +0.000 OA
ENDBRANCH   1   7
BRANCH   1  11
ATOM     11  C   UNL     1      -0.604  -1.238   0.000  0.00  0.00    +0.000 C 
BRANCH  11  12
ATOM     12  C   UNL     1       0.111  -0.825   0.000  0.00  0.00    +0.000 C 
BRANCH  12  13
ATOM     13  N   UNL     1       0.111   0.000   0.000  0.00  0.00    +0.000 NA
ATOM     14  C   UNL     1      -0.604   0.412   0.000  0.00  0.00    +0.000 C 
BRANCH  13  15
ATOM     15  C   UNL     1       0.825   0.412   0.000  0.00  0.00    +0.000 C 
BRANCH  15  16
ATOM     16  C   UNL     1       0.825   1.237   0.000  0.00  0.00    +0.000 C 
BRANCH  16  17
ATOM     17  C   UNL     1       1.540   1.650   0.000  0.00  0.00    +0.000 C 
BRANCH  17  19
ATOM     18  C   UNL     1       2.254   2.887   0.000  0.00  0.00    +0.000 C 
ATOM     19  C   UNL     1       1.540   2.475   0.000  0.00  0.00    +0.000 C 
ENDBRANCH  17  19
ENDBRANCH  16  17
ENDBRANCH  15  16
ENDBRANCH  13  15
ENDBRANCH  12  13
ENDBRANCH  11  12
ENDBRANCH   1  11
TORSDOF 9
