REMARK  Name = 
REMARK  4 active torsions:
REMARK  status: ('A' for Active; 'I' for Inactive)
REMARK    1  A    between atoms: C_2  and  N_3
REMARK    2  A    between atoms: C_4  and  C_6
REMARK    3  A    between atoms: C_8  and  N_13
REMARK    4  A    between atoms: N_22  and  C_23
REMARK                            x       y       z     vdW  Elec       q    Type
REMARK                         _______ _______ _______ _____ _____    ______ ____
ROOT
ATOM      1  N   UNL     1      -0.143  -0.030   0.000  0.00  0.00    +0.000 N 
ATOM      2  C   UNL     1      -0.628  -0.698   0.000  0.00  0.00    +0.000 A 
ATOM      3  N   UNL     1      -0.143  -1.365   0.000  0.00  0.00    +0.000 NA
ATOM      4  C   UNL     1       0.641  -1.110   0.000  0.00  0.00    +0.000 A 
ATOM      5  C   UNL     1       0.641  -0.285   0.000  0.00  0.00    +0.000 A 
ATOM      6  N   UNL     1       1.356   0.127   0.000  0.00  0.00    +0.000 NA
ATOM      7  C   UNL     1       2.070  -0.285   0.000  0.00  0.00    +0.000 A 
ATOM      8  N   UNL     1       2.070  -1.110   0.000  0.00  0.00    +0.000 NA
ATOM      9  C   UNL     1       1.356  -1.523   0.000  0.00  0.00    +0.000 A 
ATOM     10  N   UNL     1       1.356  -2.348   0.000  0.00  0.00    +0.000 NA
ENDROOT
BRANCH   1  13
ATOM     11  C   UNL     1      -0.398   2.089   0.000  0.00  0.00    +0.000 C 
ATOM     12  O   UNL     1       0.086   1.422   0.000  0.00  0.00    +0.000 OA
ATOM     13  C   UNL     1      -0.398   0.754   0.000  0.00  0.00    +0.000 C 
ATOM     14  C   UNL     1      -1.183   1.009   0.000  0.00  0.00    +0.000 C 
ATOM     15  O   UNL     1      -1.851   0.524   0.000  0.00  0.00    +0.000 OA
ATOM     16  C   UNL     1      -1.183   1.834   0.000  0.00  0.00    +0.000 C 
ATOM     17  O   UNL     1      -1.851   2.319   0.000  0.00  0.00    +0.000 OA
BRANCH  11  19
ATOM     18  N   UNL     1      -0.696   3.487   0.000  0.00  0.00    +0.000 NA
ATOM     19  C   UNL     1      -0.143   2.874   0.000  0.00  0.00    +0.000 C 
ATOM     20  O   UNL     1       0.663   3.045   0.000  0.00  0.00    +0.000 OA
BRANCH  18  22
ATOM     21  C   UNL     1      -0.993   4.884   0.000  0.00  0.00    +0.000 C 
ATOM     22  C   UNL     1      -0.441   4.271   0.000  0.00  0.00    +0.000 C 
ENDBRANCH  18  22
ENDBRANCH  11  19
ENDBRANCH   1  13
BRANCH  10  23
ATOM     23  C   UNL     1       0.641  -2.760   0.000  0.00  0.00    +0.000 C 
ATOM     24  C   UNL     1       0.555  -3.581   0.000  0.00  0.00    +0.000 C 
ATOM     25  C   UNL     1      -0.252  -3.752   0.000  0.00  0.00    +0.000 C 
ATOM     26  C   UNL     1      -0.665  -3.038   0.000  0.00  0.00    +0.000 C 
ATOM     27  C   UNL     1      -0.113  -2.425   0.000  0.00  0.00    +0.000 C 
ENDBRANCH  10  23
TORSDOF 4
