REMARK  Name = 
REMARK  5 active torsions:
REMARK  status: ('A' for Active; 'I' for Inactive)
REMARK    1  A    between atoms: C_2  and  C_8
REMARK    2  A    between atoms: C_6  and  C_9
REMARK    3  A    between atoms: C_6  and  C_13
REMARK    4  A    between atoms: C_12  and  N_21
REMARK    5  A    between atoms: C_16  and  N_21
REMARK                            x       y       z     vdW  Elec       q    Type
REMARK                         _______ _______ _______ _____ _____    ______ ____
ROOT
ATOM      1  C   UNL     1       2.858   2.475   0.000  0.00  0.00    +0.000 A 
ATOM      2  C   UNL     1       2.858   3.300   0.000  0.00  0.00    +0.000 A 
ATOM      3  C   UNL     1       1.429   2.475   0.000  0.00  0.00    +0.000 A 
ATOM      4  C   UNL     1       2.143   2.062   0.000  0.00  0.00    +0.000 A 
ATOM      5  C   UNL     1       1.429   3.300   0.000  0.00  0.00    +0.000 A 
ATOM      6  C   UNL     1       2.143   3.712   0.000  0.00  0.00    +0.000 A 
ENDROOT
BRANCH   4   8
ATOM      7  C   UNL     1       1.429   0.825   0.000  0.00  0.00    +0.000 C 
ATOM      8  C   UNL     1       2.143   1.238   0.000  0.00  0.00    +0.000 C 
ENDBRANCH   4   8
BRANCH   5   9
ATOM      9  C   UNL     1       0.715   3.712   0.000  0.00  0.00    +0.000 C 
BRANCH   9  10
ATOM     10  C   UNL     1       0.000   3.300   0.000  0.00  0.00    +0.000 C 
ATOM     11  O   UNL     1       0.000   2.475   0.000  0.00  0.00    +0.000 OA
ATOM     12  O   UNL     1      -0.715   3.712   0.000  0.00  0.00    +0.000 OA
ENDBRANCH   9  10
ENDBRANCH   5   9
BRANCH   6  13
ATOM     13  N   UNL     1       2.143   4.537   0.000  0.00  0.00    +0.000 NA
BRANCH  13  19
ATOM     14  C   UNL     1       4.287   5.775   0.000  0.00  0.00    +0.000 A 
ATOM     15  C   UNL     1       3.572   6.188   0.000  0.00  0.00    +0.000 A 
ATOM     16  C   UNL     1       4.287   4.950   0.000  0.00  0.00    +0.000 A 
ATOM     17  C   UNL     1       2.858   5.775   0.000  0.00  0.00    +0.000 A 
ATOM     18  C   UNL     1       3.572   4.537   0.000  0.00  0.00    +0.000 A 
ATOM     19  C   UNL     1       2.858   4.950   0.000  0.00  0.00    +0.000 A 
ATOM     20  F   UNL     1       3.572   7.013   0.000  0.00  0.00    +0.000 F 
ATOM     21  F   UNL     1       5.001   4.537   0.000  0.00  0.00    +0.000 F 
ATOM     22  F   UNL     1       2.143   6.188   0.000  0.00  0.00    +0.000 F 
ATOM     23  F   UNL     1       3.572   3.712   0.000  0.00  0.00    +0.000 F 
ENDBRANCH  13  19
ENDBRANCH   6  13
TORSDOF 5
