REMARK  Name = 
REMARK  6 active torsions:
REMARK  status: ('A' for Active; 'I' for Inactive)
REMARK    1  A    between atoms: C_3  and  C_8
REMARK    2  A    between atoms: C_10  and  C_14
REMARK    3  A    between atoms: N_16  and  C_17
REMARK    4  A    between atoms: C_17  and  C_18
REMARK    5  A    between atoms: C_17  and  C_26
REMARK    6  A    between atoms: C_18  and  C_19
REMARK                            x       y       z     vdW  Elec       q    Type
REMARK                         _______ _______ _______ _____ _____    ______ ____
ROOT
ATOM      1  C   UNL     1       1.429  -3.300   0.000  0.00  0.00    +0.000 C 
ATOM      2  O   UNL     1       2.143  -3.712   0.000  0.00  0.00    +0.000 OA
ATOM      3  N   UNL     1       1.429  -2.475   0.000  0.00  0.00    +0.000 NA
ENDROOT
BRANCH   1   6
ATOM      4  C   UNL     1      -0.591  -3.990   0.000  0.00  0.00    +0.000 A 
ATOM      5  C   UNL     1      -0.039  -3.377   0.000  0.00  0.00    +0.000 A 
ATOM      6  C   UNL     1       0.715  -3.712   0.000  0.00  0.00    +0.000 A 
ATOM      7  S   UNL     1       0.628  -4.533   0.000  0.00  0.00    +0.000 S 
ATOM      8  C   UNL     1      -0.179  -4.705   0.000  0.00  0.00    +0.000 A 
ATOM      9 CL   UNL     1      -0.514  -5.458   0.000  0.00  0.00    +0.000 Cl
BRANCH   4  12
ATOM     10  C   UNL     1      -1.489  -2.436   0.000  0.00  0.00    +0.000 C 
ATOM     11  N   UNL     1      -1.824  -3.189   0.000  0.00  0.00    +0.000 N 
ATOM     12  C   UNL     1      -1.412  -3.904   0.000  0.00  0.00    +0.000 A 
ATOM     13  C   UNL     1      -1.964  -4.517   0.000  0.00  0.00    +0.000 A 
ATOM     14  C   UNL     1      -2.717  -4.181   0.000  0.00  0.00    +0.000 A 
ATOM     15  N   UNL     1      -2.631  -3.361   0.000  0.00  0.00    +0.000 NA
ATOM     16 CL   UNL     1      -1.792  -5.324   0.000  0.00  0.00    +0.000 Cl
ENDBRANCH   4  12
ENDBRANCH   1   6
BRANCH   3  17
ATOM     17  C   UNL     1       2.143  -2.062   0.000  0.00  0.00    +0.000 C 
BRANCH  17  18
ATOM     18  C   UNL     1       2.858  -2.475   0.000  0.00  0.00    +0.000 C 
ATOM     19  N   UNL     1       2.858  -3.300   0.000  0.00  0.00    +0.000 NA
ENDBRANCH  17  18
BRANCH  17  20
ATOM     20  C   UNL     1       2.143  -1.238   0.000  0.00  0.00    +0.000 C 
BRANCH  20  21
ATOM     21  C   UNL     1       2.858  -0.825   0.000  0.00  0.00    +0.000 A 
ATOM     22  C   UNL     1       2.858   0.000   0.000  0.00  0.00    +0.000 A 
ATOM     23  C   UNL     1       3.572   0.412   0.000  0.00  0.00    +0.000 A 
ATOM     24  C   UNL     1       4.287   0.000   0.000  0.00  0.00    +0.000 A 
ATOM     25  C   UNL     1       4.287  -0.825   0.000  0.00  0.00    +0.000 A 
ATOM     26  C   UNL     1       3.572  -1.238   0.000  0.00  0.00    +0.000 A 
ATOM     27  F   UNL     1       5.001  -1.238   0.000  0.00  0.00    +0.000 F 
ENDBRANCH  20  21
ENDBRANCH  17  20
ENDBRANCH   3  17
TORSDOF 6
