REMARK  Name = 
REMARK  7 active torsions:
REMARK  status: ('A' for Active; 'I' for Inactive)
REMARK    1  A    between atoms: C_10  and  N_11
REMARK    2  A    between atoms: N_14  and  C_17
REMARK    3  A    between atoms: C_17  and  C_18
REMARK    4  A    between atoms: C_18  and  C_19
REMARK    5  A    between atoms: C_19  and  C_20
REMARK    6  A    between atoms: C_20  and  O_21
REMARK    7  A    between atoms: O_21  and  C_22
REMARK                            x       y       z     vdW  Elec       q    Type
REMARK                         _______ _______ _______ _____ _____    ______ ____
ROOT
ATOM      1  N   UNL     1      -6.430  -1.238   0.000  0.00  0.00    +0.000 N 
ATOM      2  C   UNL     1      -6.430  -0.412   0.000  0.00  0.00    +0.000 C 
ATOM      3  C   UNL     1      -5.716   0.000   0.000  0.00  0.00    +0.000 C 
ATOM      4  N   UNL     1      -5.001  -0.412   0.000  0.00  0.00    +0.000 NA
ATOM      5  C   UNL     1      -5.001  -1.238   0.000  0.00  0.00    +0.000 C 
ATOM      6  C   UNL     1      -5.716  -1.650   0.000  0.00  0.00    +0.000 C 
ENDROOT
BRANCH   1  16
ATOM      7  C   UNL     1      -7.145  -4.125   0.000  0.00  0.00    +0.000 A 
ATOM      8  C   UNL     1      -6.430  -3.712   0.000  0.00  0.00    +0.000 A 
ATOM      9  C   UNL     1      -6.430  -2.888   0.000  0.00  0.00    +0.000 A 
ATOM     10  C   UNL     1      -7.145  -2.475   0.000  0.00  0.00    +0.000 A 
ATOM     11  C   UNL     1      -7.859  -2.888   0.000  0.00  0.00    +0.000 A 
ATOM     12  C   UNL     1      -7.859  -3.712   0.000  0.00  0.00    +0.000 A 
ATOM     13  C   UNL     1      -8.574  -2.475   0.000  0.00  0.00    +0.000 A 
ATOM     14  C   UNL     1      -8.574  -1.650   0.000  0.00  0.00    +0.000 A 
ATOM     15  C   UNL     1      -7.859  -1.238   0.000  0.00  0.00    +0.000 A 
ATOM     16  C   UNL     1      -7.145  -1.650   0.000  0.00  0.00    +0.000 A 
ENDBRANCH   1  16
BRANCH   4  17
ATOM     17  C   UNL     1      -4.287   0.000   0.000  0.00  0.00    +0.000 C 
BRANCH  17  18
ATOM     18  C   UNL     1      -3.572  -0.412   0.000  0.00  0.00    +0.000 C 
BRANCH  18  19
ATOM     19  C   UNL     1      -2.858   0.000   0.000  0.00  0.00    +0.000 C 
BRANCH  19  20
ATOM     20  C   UNL     1      -2.143  -0.412   0.000  0.00  0.00    +0.000 C 
BRANCH  20  21
ATOM     21  O   UNL     1      -1.429   0.000   0.000  0.00  0.00    +0.000 OA
BRANCH  21  22
ATOM     22  C   UNL     1      -0.715  -0.412   0.000  0.00  0.00    +0.000 A 
ATOM     23  C   UNL     1      -0.715  -1.238   0.000  0.00  0.00    +0.000 A 
ATOM     24  C   UNL     1       0.000  -1.650   0.000  0.00  0.00    +0.000 A 
ATOM     25  C   UNL     1       0.715  -1.238   0.000  0.00  0.00    +0.000 A 
ATOM     26  C   UNL     1       0.715  -0.412   0.000  0.00  0.00    +0.000 A 
ATOM     27  N   UNL     1       0.000   0.000   0.000  0.00  0.00    +0.000 NA
ATOM     28  N   UNL     1       1.429   0.000   0.000  0.00  0.00    +0.000 NA
ATOM     29  C   UNL     1       2.143  -0.412   0.000  0.00  0.00    +0.000 C 
ATOM     30  O   UNL     1       2.858   0.000   0.000  0.00  0.00    +0.000 OA
ATOM     31  C   UNL     1       2.143  -1.238   0.000  0.00  0.00    +0.000 C 
ATOM     32  C   UNL     1       1.429  -1.650   0.000  0.00  0.00    +0.000 C 
ENDBRANCH  21  22
ENDBRANCH  20  21
ENDBRANCH  19  20
ENDBRANCH  18  19
ENDBRANCH  17  18
ENDBRANCH   4  17
TORSDOF 7
