REMARK  Name = 
REMARK  1 active torsions:
REMARK  status: ('A' for Active; 'I' for Inactive)
REMARK    1  A    between atoms: C_1  and  C_7
REMARK                            x       y       z     vdW  Elec       q    Type
REMARK                         _______ _______ _______ _____ _____    ______ ____
ROOT
ATOM      1  C   UNL     1       0.000   0.619   0.000  0.00  0.00    +0.000 A 
ATOM      2  C   UNL     1       0.715   0.206   0.000  0.00  0.00    +0.000 A 
ATOM      3  C   UNL     1       0.715  -0.619   0.000  0.00  0.00    +0.000 A 
ATOM      4  C   UNL     1       0.000  -1.031   0.000  0.00  0.00    +0.000 A 
ATOM      5  C   UNL     1      -0.715  -0.619   0.000  0.00  0.00    +0.000 A 
ATOM      6  C   UNL     1      -0.715   0.206   0.000  0.00  0.00    +0.000 A 
ATOM      7  O   UNL     1       0.000  -1.856   0.000  0.00  0.00    +0.000 OA
ENDROOT
BRANCH   1   8
ATOM      8  C   UNL     1       0.000   1.444   0.000  0.00  0.00    +0.000 C 
ATOM      9  O   UNL     1      -0.715   1.856   0.000  0.00  0.00    +0.000 OA
ATOM     10  O   UNL     1       0.715   1.856   0.000  0.00  0.00    +0.000 OA
ENDBRANCH   1   8
TORSDOF 1
