REMARK  Name = 
REMARK  4 active torsions:
REMARK  status: ('A' for Active; 'I' for Inactive)
REMARK    1  A    between atoms: C_10  and  C_14
REMARK    2  A    between atoms: C_12  and  N_23
REMARK    3  A    between atoms: C_13  and  S_26
REMARK    4  A    between atoms: C_15  and  C_16
REMARK                            x       y       z     vdW  Elec       q    Type
REMARK                         _______ _______ _______ _____ _____    ______ ____
ROOT
ATOM      1  C   UNL     1       2.180  -0.833   0.000  0.00  0.00    +0.000 A 
ATOM      2  C   UNL     1       1.513  -0.348   0.000  0.00  0.00    +0.000 A 
ATOM      3  C   UNL     1       1.925  -1.617   0.000  0.00  0.00    +0.000 A 
ATOM      4  N   UNL     1       1.100  -1.617   0.000  0.00  0.00    +0.000 NA
ATOM      5  N   UNL     1       0.845  -0.833   0.000  0.00  0.00    +0.000 N 
ENDROOT
BRANCH   2  10
ATOM      6  C   UNL     1       2.227   0.890   0.000  0.00  0.00    +0.000 A 
ATOM      7  C   UNL     1       0.798   0.890   0.000  0.00  0.00    +0.000 A 
ATOM      8  C   UNL     1       2.227   1.715   0.000  0.00  0.00    +0.000 A 
ATOM      9  C   UNL     1       0.798   1.715   0.000  0.00  0.00    +0.000 A 
ATOM     10  C   UNL     1       1.513   0.477   0.000  0.00  0.00    +0.000 A 
ATOM     11  C   UNL     1       1.513   2.127   0.000  0.00  0.00    +0.000 A 
ATOM     12 CL   UNL     1       1.513   2.952   0.000  0.00  0.00    +0.000 Cl
ENDBRANCH   2  10
BRANCH   5  17
ATOM     13  C   UNL     1      -0.111   0.229   0.000  0.00  0.00    +0.000 A 
ATOM     14  C   UNL     1      -0.552  -1.130   0.000  0.00  0.00    +0.000 A 
ATOM     15  C   UNL     1      -0.895   0.484   0.000  0.00  0.00    +0.000 A 
ATOM     16  C   UNL     1      -1.337  -0.875   0.000  0.00  0.00    +0.000 A 
ATOM     17  C   UNL     1       0.061  -0.578   0.000  0.00  0.00    +0.000 A 
ATOM     18  C   UNL     1      -1.508  -0.068   0.000  0.00  0.00    +0.000 A 
BRANCH  18  22
ATOM     19  N   UNL     1      -3.078   0.442   0.000  0.00  0.00    +0.000 NA
ATOM     20  O   UNL     1      -2.038   0.972   0.000  0.00  0.00    +0.000 OA
ATOM     21  O   UNL     1      -2.548  -0.598   0.000  0.00  0.00    +0.000 OA
ATOM     22  S   UNL     1      -2.293   0.187   0.000  0.00  0.00    +0.000 S 
ENDBRANCH  18  22
ENDBRANCH   5  17
BRANCH   3  23
ATOM     23  C   UNL     1       2.410  -2.285   0.000  0.00  0.00    +0.000 C 
ATOM     24  F   UNL     1       2.895  -2.952   0.000  0.00  0.00    +0.000 F 
ATOM     25  F   UNL     1       1.743  -2.770   0.000  0.00  0.00    +0.000 F 
ATOM     26  F   UNL     1       3.078  -1.800   0.000  0.00  0.00    +0.000 F 
ENDBRANCH   3  23
TORSDOF 4
