REMARK  Name = 
REMARK  5 active torsions:
REMARK  status: ('A' for Active; 'I' for Inactive)
REMARK    1  A    between atoms: C_2  and  O_4
REMARK    2  A    between atoms: O_4  and  C_5
REMARK    3  A    between atoms: C_9  and  C_10
REMARK    4  A    between atoms: C_13  and  O_14
REMARK    5  A    between atoms: O_14  and  C_15
REMARK                            x       y       z     vdW  Elec       q    Type
REMARK                         _______ _______ _______ _____ _____    ______ ____
ROOT
ATOM      1  C   UNL     1       0.715   1.238   0.000  0.00  0.00    +0.000 A 
ATOM      2  C   UNL     1       1.429   0.825   0.000  0.00  0.00    +0.000 A 
ATOM      3  C   UNL     1       1.429   0.000   0.000  0.00  0.00    +0.000 A 
ATOM      4  C   UNL     1       0.715  -0.412   0.000  0.00  0.00    +0.000 A 
ATOM      5  C   UNL     1       0.000   0.000   0.000  0.00  0.00    +0.000 A 
ATOM      6  C   UNL     1       0.000   0.825   0.000  0.00  0.00    +0.000 A 
ENDROOT
BRANCH   5   7
ATOM      7  C   UNL     1      -0.715  -0.412   0.000  0.00  0.00    +0.000 C 
ATOM      8  O   UNL     1      -1.429   0.000   0.000  0.00  0.00    +0.000 OA
ATOM      9  O   UNL     1      -0.715  -1.238   0.000  0.00  0.00    +0.000 OA
ENDBRANCH   5   7
BRANCH   1  10
ATOM     10  O   UNL     1       0.715   2.062   0.000  0.00  0.00    +0.000 OA
BRANCH  10  12
ATOM     11  C   UNL     1       1.429   3.300   0.000  0.00  0.00    +0.000 C 
ATOM     12  C   UNL     1       1.429   2.475   0.000  0.00  0.00    +0.000 C 
ATOM     13  O   UNL     1       2.143   2.062   0.000  0.00  0.00    +0.000 OA
ENDBRANCH  10  12
ENDBRANCH   1  10
BRANCH   6  14
ATOM     14  O   UNL     1      -0.715   1.238   0.000  0.00  0.00    +0.000 OA
BRANCH  14  15
ATOM     15  C   UNL     1      -0.715   2.062   0.000  0.00  0.00    +0.000 C 
ATOM     16  O   UNL     1      -1.429   2.475   0.000  0.00  0.00    +0.000 OA
ATOM     17  C   UNL     1       0.000   2.475   0.000  0.00  0.00    +0.000 C 
ENDBRANCH  14  15
ENDBRANCH   6  14
TORSDOF 5
