REMARK  Name = 
REMARK  1 active torsions:
REMARK  status: ('A' for Active; 'I' for Inactive)
REMARK    1  A    between atoms: S_1  and  S_2
REMARK                            x       y       z     vdW  Elec       q    Type
REMARK                         _______ _______ _______ _____ _____    ______ ____
ROOT
ATOM      1  S   UNL     1       0.349   0.003   0.000  0.00  0.00    +0.000 S 
ATOM      2  O   UNL     1       0.338  -0.822   0.000  0.00  0.00    +0.000 OA
ATOM      3  O   UNL     1       0.338   0.822   0.000  0.00  0.00    +0.000 OA
ATOM      4  O   UNL     1       1.174   0.003   0.000  0.00  0.00    +0.000 OA
ENDROOT
BRANCH   1   5
ATOM      5  S   UNL     1      -0.480   0.003   0.000  0.00  0.00    +0.000 S 
ATOM      6  O   UNL     1      -1.305   0.003   0.000  0.00  0.00    +0.000 OA
ATOM      7  O   UNL     1      -0.480   0.822   0.000  0.00  0.00    +0.000 OA
ENDBRANCH   1   5
TORSDOF 1
REMARK  Name = 
REMARK  1 active torsions:
REMARK  status: ('A' for Active; 'I' for Inactive)
REMARK    1  A    between atoms: S_1  and  S_2
REMARK                            x       y       z     vdW  Elec       q    Type
REMARK                         _______ _______ _______ _____ _____    ______ ____
ROOT
ATOM      1  K   UNL     1       3.041   0.017   0.000  0.00  0.00    +0.000 K 
ENDROOT
TORSDOF 0
REMARK  Name = 
REMARK  1 active torsions:
REMARK  status: ('A' for Active; 'I' for Inactive)
REMARK    1  A    between atoms: S_1  and  S_2
REMARK                            x       y       z     vdW  Elec       q    Type
REMARK                         _______ _______ _______ _____ _____    ______ ____
ROOT
ATOM      1  K   UNL     1      -3.041   0.052   0.000  0.00  0.00    +0.000 K 
ENDROOT
TORSDOF 0
