REMARK  Name = 
REMARK  8 active torsions:
REMARK  status: ('A' for Active; 'I' for Inactive)
REMARK    1  A    between atoms: C_4  and  S_7
REMARK    2  A    between atoms: S_7  and  C_8
REMARK    3  A    between atoms: C_8  and  C_9
REMARK    4  A    between atoms: C_9  and  C_10
REMARK    5  A    between atoms: C_9  and  C_26
REMARK    6  A    between atoms: C_10  and  C_11
REMARK    7  A    between atoms: C_11  and  C_13
REMARK    8  A    between atoms: C_16  and  C_19
REMARK                            x       y       z     vdW  Elec       q    Type
REMARK                         _______ _______ _______ _____ _____    ______ ____
ROOT
ATOM      1  C   UNL     1       5.001  -6.188   0.000  0.00  0.00    +0.000 C 
ATOM      2  O   UNL     1       5.001  -5.362   0.000  0.00  0.00    +0.000 OA
ENDROOT
BRANCH   1   3
ATOM      3  C   UNL     1       5.716  -6.600   0.000  0.00  0.00    +0.000 A 
ATOM      4  C   UNL     1       6.430  -6.188   0.000  0.00  0.00    +0.000 A 
ATOM      5  C   UNL     1       7.145  -6.600   0.000  0.00  0.00    +0.000 A 
ATOM      6  C   UNL     1       7.145  -7.425   0.000  0.00  0.00    +0.000 A 
ATOM      7  C   UNL     1       6.430  -7.838   0.000  0.00  0.00    +0.000 A 
ATOM      8  C   UNL     1       5.716  -7.425   0.000  0.00  0.00    +0.000 A 
BRANCH   6   9
ATOM      9  C   UNL     1       7.859  -7.838   0.000  0.00  0.00    +0.000 A 
ATOM     10  C   UNL     1       8.574  -7.425   0.000  0.00  0.00    +0.000 A 
ATOM     11  C   UNL     1       9.288  -7.838   0.000  0.00  0.00    +0.000 A 
ATOM     12  C   UNL     1       9.288  -8.662   0.000  0.00  0.00    +0.000 A 
ATOM     13  C   UNL     1       8.574  -9.075   0.000  0.00  0.00    +0.000 A 
ATOM     14  C   UNL     1       7.859  -8.662   0.000  0.00  0.00    +0.000 A 
ATOM     15 CL   UNL     1      10.003  -9.075   0.000  0.00  0.00    +0.000 Cl
ENDBRANCH   6   9
ENDBRANCH   1   3
BRANCH   1  16
ATOM     16  C   UNL     1       4.287  -6.600   0.000  0.00  0.00    +0.000 C 
BRANCH  16  17
ATOM     17  C   UNL     1       3.572  -6.188   0.000  0.00  0.00    +0.000 C 
BRANCH  17  18
ATOM     18  C   UNL     1       3.572  -5.362   0.000  0.00  0.00    +0.000 C 
ATOM     19  O   UNL     1       4.287  -4.950   0.000  0.00  0.00    +0.000 OA
ATOM     20  O   UNL     1       2.858  -4.950   0.000  0.00  0.00    +0.000 OA
ENDBRANCH  17  18
BRANCH  17  21
ATOM     21  C   UNL     1       2.858  -6.600   0.000  0.00  0.00    +0.000 C 
BRANCH  21  22
ATOM     22  S   UNL     1       2.143  -6.188   0.000  0.00  0.00    +0.000 S 
BRANCH  22  26
ATOM     23  C   UNL     1       0.000  -7.425   0.000  0.00  0.00    +0.000 A 
ATOM     24  C   UNL     1       0.000  -6.600   0.000  0.00  0.00    +0.000 A 
ATOM     25  C   UNL     1       0.715  -6.188   0.000  0.00  0.00    +0.000 A 
ATOM     26  C   UNL     1       1.429  -6.600   0.000  0.00  0.00    +0.000 A 
ATOM     27  C   UNL     1       1.429  -7.425   0.000  0.00  0.00    +0.000 A 
ATOM     28  C   UNL     1       0.715  -7.838   0.000  0.00  0.00    +0.000 A 
ENDBRANCH  22  26
ENDBRANCH  21  22
ENDBRANCH  17  21
ENDBRANCH  16  17
ENDBRANCH   1  16
TORSDOF 8
