REMARK  Name = 
REMARK  3 active torsions:
REMARK  status: ('A' for Active; 'I' for Inactive)
REMARK    1  A    between atoms: N_1  and  C_6
REMARK    2  A    between atoms: N_1  and  C_7
REMARK    3  A    between atoms: N_1  and  C_8
REMARK                            x       y       z     vdW  Elec       q    Type
REMARK                         _______ _______ _______ _____ _____    ______ ____
ROOT
ATOM      1  N   UNL     1       0.406  -0.653   0.000  0.00  0.00    +0.000 N 
ATOM      2  N   UNL     1      -0.308  -1.891   0.000  0.00  0.00    +0.000 NA
ATOM      3  N   UNL     1       1.187  -0.402   0.000  0.00  0.00    +0.000 NA
ATOM      4  N   UNL     1       1.187  -1.729   0.000  0.00  0.00    +0.000 NA
ATOM      5  C   UNL     1      -0.308  -0.240   0.000  0.00  0.00    +0.000 A 
ATOM      6  C   UNL     1      -1.022  -0.653   0.000  0.00  0.00    +0.000 A 
ATOM      7  C   UNL     1       0.406  -1.478   0.000  0.00  0.00    +0.000 A 
ATOM      8  C   UNL     1      -1.022  -1.478   0.000  0.00  0.00    +0.000 A 
ATOM      9  C   UNL     1      -1.737  -1.891   0.000  0.00  0.00    +0.000 C 
ATOM     10  C   UNL     1       1.668  -1.065   0.000  0.00  0.00    +0.000 A 
ENDROOT
BRANCH   5  11
ATOM     11  N   UNL     1      -0.308   0.584   0.000  0.00  0.00    +0.000 N 
BRANCH  11  12
ATOM     12  C   UNL     1      -1.022   0.997   0.000  0.00  0.00    +0.000 C 
ATOM     13  C   UNL     1      -1.022   1.822   0.000  0.00  0.00    +0.000 C 
ENDBRANCH  11  12
BRANCH  11  14
ATOM     14  C   UNL     1       0.406   0.997   0.000  0.00  0.00    +0.000 C 
ATOM     15  C   UNL     1       0.406   1.822   0.000  0.00  0.00    +0.000 C 
ENDBRANCH  11  14
ENDBRANCH   5  11
TORSDOF 3
