REMARK  Name = 
REMARK  8 active torsions:
REMARK  status: ('A' for Active; 'I' for Inactive)
REMARK    1  A    between atoms: N_2  and  C_3
REMARK    2  A    between atoms: C_6  and  C_7
REMARK    3  A    between atoms: C_8  and  C_9
REMARK    4  A    between atoms: C_10  and  C_11
REMARK    5  A    between atoms: C_17  and  O_18
REMARK    6  A    between atoms: O_18  and  C_19
REMARK    7  A    between atoms: C_19  and  C_20
REMARK    8  A    between atoms: C_20  and  C_22
REMARK                            x       y       z     vdW  Elec       q    Type
REMARK                         _______ _______ _______ _____ _____    ______ ____
ROOT
ATOM      1  C   UNL     1      -2.699   2.062   0.000  0.00  0.00    +0.000 A 
ATOM      2  N   UNL     1      -2.214   1.395   0.000  0.00  0.00    +0.000 NA
ATOM      3  C   UNL     1      -1.429   1.650   0.000  0.00  0.00    +0.000 A 
ATOM      4  C   UNL     1      -1.429   2.475   0.000  0.00  0.00    +0.000 A 
ATOM      5  S   UNL     1      -2.214   2.730   0.000  0.00  0.00    +0.000 S 
ATOM      6  C   UNL     1      -0.715   2.888   0.000  0.00  0.00    +0.000 A 
ATOM      7  C   UNL     1       0.000   2.475   0.000  0.00  0.00    +0.000 A 
ATOM      8  C   UNL     1       0.000   1.650   0.000  0.00  0.00    +0.000 A 
ATOM      9  C   UNL     1      -0.715   1.238   0.000  0.00  0.00    +0.000 A 
ENDROOT
BRANCH   1  11
ATOM     10  C   UNL     1      -3.936   1.348   0.000  0.00  0.00    +0.000 C 
ATOM     11  C   UNL     1      -3.523   2.062   0.000  0.00  0.00    +0.000 C 
BRANCH  10  13
ATOM     12  C   UNL     1      -5.173   0.634   0.000  0.00  0.00    +0.000 C 
ATOM     13  C   UNL     1      -4.761   1.348   0.000  0.00  0.00    +0.000 C 
BRANCH  12  17
ATOM     14  C   UNL     1      -7.649   0.634   0.000  0.00  0.00    +0.000 A 
ATOM     15  C   UNL     1      -7.236   1.348   0.000  0.00  0.00    +0.000 A 
ATOM     16  C   UNL     1      -6.411   1.348   0.000  0.00  0.00    +0.000 A 
ATOM     17  C   UNL     1      -5.998   0.634   0.000  0.00  0.00    +0.000 A 
ATOM     18  C   UNL     1      -6.411  -0.081   0.000  0.00  0.00    +0.000 A 
ATOM     19  N   UNL     1      -7.236  -0.081   0.000  0.00  0.00    +0.000 NA
BRANCH  14  21
ATOM     20  C   UNL     1      -8.886  -0.081   0.000  0.00  0.00    +0.000 C 
ATOM     21  N   UNL     1      -8.473   0.634   0.000  0.00  0.00    +0.000 NA
ENDBRANCH  14  21
ENDBRANCH  12  17
ENDBRANCH  10  13
ENDBRANCH   1  11
BRANCH   7  22
ATOM     22  O   UNL     1       0.715   2.888   0.000  0.00  0.00    +0.000 OA
BRANCH  22  23
ATOM     23  C   UNL     1       1.429   2.475   0.000  0.00  0.00    +0.000 C 
BRANCH  23  24
ATOM     24  C   UNL     1       2.143   2.888   0.000  0.00  0.00    +0.000 C 
ATOM     25  O   UNL     1       2.143   3.712   0.000  0.00  0.00    +0.000 OA
BRANCH  24  26
ATOM     26  C   UNL     1       2.858   2.475   0.000  0.00  0.00    +0.000 C 
ATOM     27  F   UNL     1       3.572   2.888   0.000  0.00  0.00    +0.000 F 
ENDBRANCH  24  26
ENDBRANCH  23  24
ENDBRANCH  22  23
ENDBRANCH   7  22
TORSDOF 8
