REMARK  Name = 
REMARK  3 active torsions:
REMARK  status: ('A' for Active; 'I' for Inactive)
REMARK    1  A    between atoms: O_2  and  C_3
REMARK    2  A    between atoms: C_17  and  C_18
REMARK    3  A    between atoms: C_18  and  N_19
REMARK                            x       y       z     vdW  Elec       q    Type
REMARK                         _______ _______ _______ _____ _____    ______ ____
ROOT
ATOM      1  C   UNL     1       1.429  -2.475   0.000  0.00  0.00    +0.000 A 
ATOM      2  C   UNL     1       1.429  -1.650   0.000  0.00  0.00    +0.000 A 
ATOM      3  C   UNL     1       2.143  -1.238   0.000  0.00  0.00    +0.000 A 
ATOM      4  C   UNL     1       2.858  -1.650   0.000  0.00  0.00    +0.000 A 
ATOM      5  C   UNL     1       3.572  -1.238   0.000  0.00  0.00    +0.000 A 
ATOM      6  O   UNL     1       3.572  -0.412   0.000  0.00  0.00    +0.000 OA
ATOM      7  C   UNL     1       4.287  -1.650   0.000  0.00  0.00    +0.000 A 
ATOM      8  C   UNL     1       5.001  -1.238   0.000  0.00  0.00    +0.000 A 
ATOM      9  C   UNL     1       5.716  -1.650   0.000  0.00  0.00    +0.000 A 
ATOM     10  C   UNL     1       5.716  -2.475   0.000  0.00  0.00    +0.000 A 
ATOM     11  C   UNL     1       5.001  -2.888   0.000  0.00  0.00    +0.000 A 
ATOM     12  C   UNL     1       4.287  -2.475   0.000  0.00  0.00    +0.000 A 
ATOM     13  O   UNL     1       3.572  -2.888   0.000  0.00  0.00    +0.000 OA
ATOM     14  C   UNL     1       2.858  -2.475   0.000  0.00  0.00    +0.000 A 
ATOM     15  C   UNL     1       2.143  -2.888   0.000  0.00  0.00    +0.000 A 
ENDROOT
BRANCH   1  17
ATOM     16  C   UNL     1       0.000  -2.475   0.000  0.00  0.00    +0.000 C 
ATOM     17  O   UNL     1       0.715  -2.888   0.000  0.00  0.00    +0.000 OA
ENDBRANCH   1  17
BRANCH  15  18
ATOM     18  C   UNL     1       2.143  -3.712   0.000  0.00  0.00    +0.000 C 
BRANCH  18  19
ATOM     19  N   UNL     1       1.429  -4.125   0.000  0.00  0.00    +0.000 NA
ATOM     20  C   UNL     1       1.429  -4.950   0.000  0.00  0.00    +0.000 C 
ATOM     21  C   UNL     1       0.715  -5.362   0.000  0.00  0.00    +0.000 C 
ATOM     22  C   UNL     1       0.000  -4.950   0.000  0.00  0.00    +0.000 C 
ATOM     23  C   UNL     1       0.000  -4.125   0.000  0.00  0.00    +0.000 C 
ATOM     24  C   UNL     1       0.715  -3.712   0.000  0.00  0.00    +0.000 C 
ENDBRANCH  18  19
ENDBRANCH  15  18
TORSDOF 3
