REMARK  Name = 
REMARK  3 active torsions:
REMARK  status: ('A' for Active; 'I' for Inactive)
REMARK    1  A    between atoms: C_9  and  C_10
REMARK    2  A    between atoms: C_10  and  C_11
REMARK    3  A    between atoms: C_13  and  C_14
REMARK                            x       y       z     vdW  Elec       q    Type
REMARK                         _______ _______ _______ _____ _____    ______ ____
ROOT
ATOM      1  C   UNL     1      -2.472  -0.855   0.000  0.00  0.00    +0.000 A 
ATOM      2  C   UNL     1      -2.473  -1.682   0.000  0.00  0.00    +0.000 A 
ATOM      3  C   UNL     1      -1.760  -2.095   0.000  0.00  0.00    +0.000 A 
ATOM      4  C   UNL     1      -1.762  -0.442   0.000  0.00  0.00    +0.000 A 
ATOM      5  C   UNL     1      -1.044  -0.851   0.000  0.00  0.00    +0.000 A 
ATOM      6  C   UNL     1      -1.039  -1.682   0.000  0.00  0.00    +0.000 A 
ATOM      7  N   UNL     1      -0.247  -1.935   0.000  0.00  0.00    +0.000 NA
ATOM      8  C   UNL     1       0.238  -1.259   0.000  0.00  0.00    +0.000 A 
ATOM      9  C   UNL     1      -0.255  -0.589   0.000  0.00  0.00    +0.000 A 
ATOM     10 CL   UNL     1      -3.187  -0.443   0.000  0.00  0.00    +0.000 Cl
ENDROOT
BRANCH   9  11
ATOM     11  C   UNL     1      -0.005   0.197   0.000  0.00  0.00    +0.000 C 
ATOM     12  O   UNL     1      -0.561   0.806   0.000  0.00  0.00    +0.000 OA
BRANCH  11  13
ATOM     13  C   UNL     1       0.801   0.373   0.000  0.00  0.00    +0.000 C 
ATOM     14  C   UNL     1       1.051   1.160   0.000  0.00  0.00    +0.000 C 
ATOM     15  O   UNL     1       0.495   1.769   0.000  0.00  0.00    +0.000 OA
BRANCH  14  16
ATOM     16  C   UNL     1       1.856   1.336   0.000  0.00  0.00    +0.000 A 
ATOM     17  N   UNL     1       2.475   0.792   0.000  0.00  0.00    +0.000 NA
ATOM     18  N   UNL     1       3.187   1.208   0.000  0.00  0.00    +0.000 NA
ATOM     19  N   UNL     1       3.010   2.014   0.000  0.00  0.00    +0.000 NA
ATOM     20  N   UNL     1       2.189   2.095   0.000  0.00  0.00    +0.000 NA
ENDBRANCH  14  16
ENDBRANCH  11  13
ENDBRANCH   9  11
TORSDOF 3
