REMARK  Name = 
REMARK  5 active torsions:
REMARK  status: ('A' for Active; 'I' for Inactive)
REMARK    1  A    between atoms: O_2  and  C_3
REMARK    2  A    between atoms: C_5  and  N_10
REMARK    3  A    between atoms: C_16  and  C_18
REMARK    4  A    between atoms: C_18  and  N_19
REMARK    5  A    between atoms: C_26  and  C_28
REMARK                            x       y       z     vdW  Elec       q    Type
REMARK                         _______ _______ _______ _____ _____    ______ ____
ROOT
ATOM      1  N   UNL     1      -0.611  -5.117   0.000  0.00  0.00    +0.000 N 
ATOM      2  C   UNL     1      -1.163  -4.504   0.000  0.00  0.00    +0.000 C 
ATOM      3  C   UNL     1      -0.908  -3.719   0.000  0.00  0.00    +0.000 C 
ATOM      4  N   UNL     1      -0.101  -3.548   0.000  0.00  0.00    +0.000 N 
ATOM      5  C   UNL     1       0.451  -4.161   0.000  0.00  0.00    +0.000 C 
ATOM      6  C   UNL     1       0.196  -4.945   0.000  0.00  0.00    +0.000 C 
ATOM      7  C   UNL     1       0.154  -2.763   0.000  0.00  0.00    +0.000 C 
ATOM      8  O   UNL     1       0.961  -2.592   0.000  0.00  0.00    +0.000 OA
ENDROOT
BRANCH   1  11
ATOM      9  C   UNL     1      -1.928  -6.858   0.000  0.00  0.00    +0.000 A 
ATOM     10  C   UNL     1      -1.673  -6.073   0.000  0.00  0.00    +0.000 A 
ATOM     11  C   UNL     1      -0.866  -5.902   0.000  0.00  0.00    +0.000 A 
ATOM     12  C   UNL     1      -0.314  -6.515   0.000  0.00  0.00    +0.000 A 
ATOM     13  C   UNL     1      -0.569  -7.299   0.000  0.00  0.00    +0.000 A 
ATOM     14  C   UNL     1      -1.376  -7.471   0.000  0.00  0.00    +0.000 A 
ATOM     15 CL   UNL     1      -1.631  -8.255   0.000  0.00  0.00    +0.000 Cl
BRANCH   9  17
ATOM     16  C   UNL     1      -2.990  -7.814   0.000  0.00  0.00    +0.000 C 
ATOM     17  O   UNL     1      -2.735  -7.029   0.000  0.00  0.00    +0.000 OA
ENDBRANCH   9  17
ENDBRANCH   1  11
BRANCH   7  18
ATOM     18  C   UNL     1      -0.398  -2.150   0.000  0.00  0.00    +0.000 C 
BRANCH  18  19
ATOM     19  N   UNL     1      -0.143  -1.365   0.000  0.00  0.00    +0.000 N 
ATOM     20  C   UNL     1       0.641  -1.110   0.000  0.00  0.00    +0.000 A 
ATOM     21  C   UNL     1       0.641  -0.285   0.000  0.00  0.00    +0.000 A 
ATOM     22  C   UNL     1       1.356   0.127   0.000  0.00  0.00    +0.000 A 
ATOM     23  C   UNL     1       2.070  -0.285   0.000  0.00  0.00    +0.000 A 
ATOM     24  C   UNL     1       2.070  -1.110   0.000  0.00  0.00    +0.000 A 
ATOM     25  N   UNL     1       1.356  -1.523   0.000  0.00  0.00    +0.000 NA
ATOM     26  C   UNL     1      -0.143  -0.030   0.000  0.00  0.00    +0.000 A 
ATOM     27  N   UNL     1      -0.628  -0.698   0.000  0.00  0.00    +0.000 NA
BRANCH  26  28
ATOM     28  C   UNL     1      -0.398   0.754   0.000  0.00  0.00    +0.000 A 
ATOM     29  N   UNL     1      -1.183   1.009   0.000  0.00  0.00    +0.000 NA
ATOM     30  C   UNL     1      -1.183   1.834   0.000  0.00  0.00    +0.000 A 
ATOM     31  C   UNL     1      -0.398   2.089   0.000  0.00  0.00    +0.000 A 
ATOM     32  N   UNL     1       0.086   1.422   0.000  0.00  0.00    +0.000 NA
ENDBRANCH  26  28
ENDBRANCH  18  19
ENDBRANCH   7  18
TORSDOF 5
