REMARK  Name = 
REMARK  10 active torsions:
REMARK  status: ('A' for Active; 'I' for Inactive)
REMARK    1  A    between atoms: O_2  and  P_4
REMARK    2  A    between atoms: O_2  and  P_5
REMARK    3  A    between atoms: P_4  and  O_9
REMARK    4  A    between atoms: P_4  and  O_12
REMARK    5  A    between atoms: P_5  and  O_6
REMARK    6  A    between atoms: P_5  and  O_15
REMARK    7  A    between atoms: O_6  and  C_7
REMARK    8  A    between atoms: O_9  and  C_10
REMARK    9  A    between atoms: O_12  and  C_13
REMARK   10  A    between atoms: O_15  and  C_16
REMARK                            x       y       z     vdW  Elec       q    Type
REMARK                         _______ _______ _______ _____ _____    ______ ____
ROOT
ATOM      1  O   UNL     1       0.000   0.247   0.000  0.00  0.00    +0.000 OA
ENDROOT
BRANCH   1   3
ATOM      2  S   UNL     1      -0.714   1.484   0.000  0.00  0.00    +0.000 S 
ATOM      3  P   UNL     1      -0.714   0.659   0.000  0.00  0.00    +0.000 P 
BRANCH   3   4
ATOM      4  O   UNL     1      -1.429   0.247   0.000  0.00  0.00    +0.000 OA
BRANCH   4   5
ATOM      5  C   UNL     1      -2.143   0.659   0.000  0.00  0.00    +0.000 C 
ATOM      6  C   UNL     1      -2.858   0.247   0.000  0.00  0.00    +0.000 C 
ENDBRANCH   4   5
ENDBRANCH   3   4
BRANCH   3   7
ATOM      7  O   UNL     1      -1.127  -0.055   0.000  0.00  0.00    +0.000 OA
BRANCH   7   8
ATOM      8  C   UNL     1      -0.714  -0.770   0.000  0.00  0.00    +0.000 C 
ATOM      9  C   UNL     1      -1.127  -1.484   0.000  0.00  0.00    +0.000 C 
ENDBRANCH   7   8
ENDBRANCH   3   7
ENDBRANCH   1   3
BRANCH   1  11
ATOM     10  S   UNL     1       0.714   1.484   0.000  0.00  0.00    +0.000 S 
ATOM     11  P   UNL     1       0.714   0.659   0.000  0.00  0.00    +0.000 P 
BRANCH  11  12
ATOM     12  O   UNL     1       1.127  -0.055   0.000  0.00  0.00    +0.000 OA
BRANCH  12  13
ATOM     13  C   UNL     1       0.714  -0.770   0.000  0.00  0.00    +0.000 C 
ATOM     14  C   UNL     1       1.127  -1.484   0.000  0.00  0.00    +0.000 C 
ENDBRANCH  12  13
ENDBRANCH  11  12
BRANCH  11  15
ATOM     15  O   UNL     1       1.429   0.247   0.000  0.00  0.00    +0.000 OA
BRANCH  15  16
ATOM     16  C   UNL     1       2.143   0.659   0.000  0.00  0.00    +0.000 C 
ATOM     17  C   UNL     1       2.858   0.247   0.000  0.00  0.00    +0.000 C 
ENDBRANCH  15  16
ENDBRANCH  11  15
ENDBRANCH   1  11
TORSDOF 10
