REMARK  Name = 
REMARK  32 active torsions:
REMARK  status: ('A' for Active; 'I' for Inactive)
REMARK    1  A    between atoms: N_1  and  C_29
REMARK    2  A    between atoms: C_2  and  C_3
REMARK    3  A    between atoms: C_3  and  C_4
REMARK    4  A    between atoms: C_4  and  C_5
REMARK    5  A    between atoms: C_5  and  C_6
REMARK    6  A    between atoms: C_6  and  C_7
REMARK    7  A    between atoms: C_7  and  C_8
REMARK    8  A    between atoms: C_8  and  C_10
REMARK    9  A    between atoms: C_10  and  C_19
REMARK   10  A    between atoms: C_11  and  C_16
REMARK   11  A    between atoms: C_11  and  C_20
REMARK   12  A    between atoms: C_13  and  C_14
REMARK   13  A    between atoms: C_14  and  C_15
REMARK   14  A    between atoms: C_15  and  C_16
REMARK   15  A    between atoms: C_17  and  C_18
REMARK   16  A    between atoms: C_18  and  C_20
REMARK   17  A    between atoms: C_21  and  C_22
REMARK   18  A    between atoms: C_21  and  C_25
REMARK   19  A    between atoms: C_22  and  C_23
REMARK   20  A    between atoms: C_23  and  C_33
REMARK   21  A    between atoms: C_24  and  C_25
REMARK   22  A    between atoms: C_24  and  C_27
REMARK   23  A    between atoms: C_26  and  C_27
REMARK   24  A    between atoms: C_26  and  C_28
REMARK   25  A    between atoms: C_28  and  C_29
REMARK   26  A    between atoms: C_29  and  C_30
REMARK   27  A    between atoms: C_33  and  C_34
REMARK   28  A    between atoms: C_34  and  C_35
REMARK   29  A    between atoms: C_35  and  C_36
REMARK   30  A    between atoms: C_36  and  C_37
REMARK   31  A    between atoms: C_37  and  C_38
REMARK   32  A    between atoms: C_38  and  C_39
REMARK                            x       y       z     vdW  Elec       q    Type
REMARK                         _______ _______ _______ _____ _____    ______ ____
ROOT
ATOM      1  C   UNK A   1       3.878   3.045   0.000  0.00  0.00    +0.000 C 
ENDROOT
BRANCH   1   2
ATOM      2  N   UNK A   1       3.878   2.220   0.000  0.00  0.00    +0.000 NA
ATOM      3  C   UNK A   0       4.606   1.831   0.000  0.00  0.00    +0.000 C 
ATOM      4  O   UNK A   0       5.294   2.244   0.000  0.00  0.00    +0.000 OA
BRANCH   3   5
ATOM      5  C   UNK A   0       4.606   1.006   0.000  0.00  0.00    +0.000 C 
BRANCH   5   6
ATOM      6  C   UNK A   0       5.334   0.618   0.000  0.00  0.00    +0.000 C 
BRANCH   6   7
ATOM      7  C   UNK A   0       5.334  -0.207   0.000  0.00  0.00    +0.000 C 
BRANCH   7   8
ATOM      8  C   UNK A   0       6.062  -0.595   0.000  0.00  0.00    +0.000 C 
BRANCH   8   9
ATOM      9  C   UNK A   0       6.062  -1.420   0.000  0.00  0.00    +0.000 C 
BRANCH   9  10
ATOM     10  C   UNK A   0       6.790  -1.808   0.000  0.00  0.00    +0.000 C 
BRANCH  10  11
ATOM     11  C   UNK A   0       6.818  -2.633   0.000  0.00  0.00    +0.000 C 
BRANCH  11  13
ATOM     12  C   UNK A   0       7.553  -3.858   0.000  0.00  0.00    +0.000 C 
ATOM     13  C   UNK A   0       7.539  -3.033   0.000  0.00  0.00    +0.000 C 
BRANCH  12  14
ATOM     14  C   UNK A   0       6.846  -4.282   0.000  0.00  0.00    +0.000 C 
BRANCH  14  15
ATOM     15  C   UNK A   0       6.124  -3.882   0.000  0.00  0.00    +0.000 C 
BRANCH  15  16
ATOM     16  C   UNK A   0       6.118  -3.069   0.000  0.00  0.00    +0.000 C 
BRANCH  16  17
ATOM     17  C   UNK A   0       5.383  -2.694   0.000  0.00  0.00    +0.000 C 
BRANCH  17  18
ATOM     18  C   UNK A   0       5.360  -1.857   0.000  0.00  0.00    +0.000 C 
BRANCH  18  19
ATOM     19  C   UNK A   0       4.632  -1.469   0.000  0.00  0.00    +0.000 C 
BRANCH  19  21
ATOM     20  C   UNK A   0       3.904  -0.256   0.000  0.00  0.00    +0.000 C 
ATOM     21  C   UNK A   0       4.632  -0.644   0.000  0.00  0.00    +0.000 C 
ENDBRANCH  19  21
ENDBRANCH  18  19
ENDBRANCH  17  18
ENDBRANCH  16  17
ENDBRANCH  15  16
ENDBRANCH  14  15
ENDBRANCH  12  14
ENDBRANCH  11  13
ENDBRANCH  10  11
ENDBRANCH   9  10
ENDBRANCH   8   9
ENDBRANCH   7   8
ENDBRANCH   6   7
ENDBRANCH   5   6
ENDBRANCH   3   5
ENDBRANCH   1   2
BRANCH   1  22
ATOM     22  C   UNK A   1       4.593   3.457   0.000  0.00  0.00    +0.000 C 
ATOM     23  O   UNK A   1       5.307   3.045   0.000  0.00  0.00    +0.000 OA
ENDBRANCH   1  22
BRANCH   1  24
ATOM     24  C   UNK A   1       3.164   3.457   0.000  0.00  0.00    +0.000 C 
ATOM     25  O   UNK A   1       3.164   4.282   0.000  0.00  0.00    +0.000 OA
BRANCH  24  26
ATOM     26  C   UNK A   1       2.450   3.045   0.000  0.00  0.00    +0.000 C 
ATOM     27  O   UNK A   1       2.450   2.220   0.000  0.00  0.00    +0.000 OA
BRANCH  26  28
ATOM     28  C   UNK A   1       1.735   3.457   0.000  0.00  0.00    +0.000 C 
BRANCH  28  29
ATOM     29  C   UNK A   1       1.020   3.045   0.000  0.00  0.00    +0.000 C 
BRANCH  29  30
ATOM     30  C   UNK A   1       0.306   3.457   0.000  0.00  0.00    +0.000 C 
BRANCH  30  31
ATOM     31  C   UNK A   1      -0.408   3.045   0.000  0.00  0.00    +0.000 C 
BRANCH  31  32
ATOM     32  C   UNK A   1      -1.123   3.457   0.000  0.00  0.00    +0.000 C 
BRANCH  32  33
ATOM     33  C   UNK A   1      -1.837   3.045   0.000  0.00  0.00    +0.000 C 
BRANCH  33  34
ATOM     34  C   UNK A   1      -2.552   3.457   0.000  0.00  0.00    +0.000 C 
BRANCH  34  35
ATOM     35  C   UNK A   1      -3.266   3.045   0.000  0.00  0.00    +0.000 C 
BRANCH  35  36
ATOM     36  C   UNK A   1      -3.981   3.457   0.000  0.00  0.00    +0.000 C 
BRANCH  36  37
ATOM     37  C   UNK A   1      -4.695   3.045   0.000  0.00  0.00    +0.000 C 
BRANCH  37  38
ATOM     38  C   UNK A   1      -5.410   3.457   0.000  0.00  0.00    +0.000 C 
BRANCH  38  39
ATOM     39  C   UNK A   1      -6.124   3.045   0.000  0.00  0.00    +0.000 C 
BRANCH  39  40
ATOM     40  C   UNK A   1      -6.839   3.457   0.000  0.00  0.00    +0.000 C 
ATOM     41  C   UNK A   1      -7.553   3.045   0.000  0.00  0.00    +0.000 C 
ENDBRANCH  39  40
ENDBRANCH  38  39
ENDBRANCH  37  38
ENDBRANCH  36  37
ENDBRANCH  35  36
ENDBRANCH  34  35
ENDBRANCH  33  34
ENDBRANCH  32  33
ENDBRANCH  31  32
ENDBRANCH  30  31
ENDBRANCH  29  30
ENDBRANCH  28  29
ENDBRANCH  26  28
ENDBRANCH  24  26
ENDBRANCH   1  24
TORSDOF 32
