REMARK  Name = 
REMARK  7 active torsions:
REMARK  status: ('A' for Active; 'I' for Inactive)
REMARK    1  A    between atoms: C_1  and  C_3
REMARK    2  A    between atoms: N_2  and  C_5
REMARK    3  A    between atoms: C_5  and  C_6
REMARK    4  A    between atoms: N_7  and  C_9
REMARK    5  A    between atoms: C_9  and  C_10
REMARK    6  A    between atoms: C_9  and  B_11
REMARK    7  A    between atoms: C_10  and  C_12
REMARK                            x       y       z     vdW  Elec       q    Type
REMARK                         _______ _______ _______ _____ _____    ______ ____
ROOT
ATOM      1  C   UNL     1       0.021   0.455   0.000  0.00  0.00    +0.000 C 
ENDROOT
BRANCH   1   3
ATOM      2  C   UNL     1      -1.401   0.455   0.000  0.00  0.00    +0.000 C 
ATOM      3  N   UNL     1      -0.690   0.037   0.000  0.00  0.00    +0.000 NA
ATOM      4  O   UNL     1      -1.401   1.292   0.000  0.00  0.00    +0.000 OA
BRANCH   2   5
ATOM      5  C   UNL     1      -2.154   0.037   0.000  0.00  0.00    +0.000 A 
ATOM      6  C   UNL     1      -2.865   0.455   0.000  0.00  0.00    +0.000 A 
ATOM      7  C   UNL     1      -3.576   0.037   0.000  0.00  0.00    +0.000 A 
ATOM      8  C   UNL     1      -3.576  -0.800   0.000  0.00  0.00    +0.000 A 
ATOM      9  C   UNL     1      -2.865  -1.218   0.000  0.00  0.00    +0.000 A 
ATOM     10  C   UNL     1      -2.154  -0.800   0.000  0.00  0.00    +0.000 A 
ATOM     11 CL   UNL     1      -1.401  -1.260   0.000  0.00  0.00    +0.000 Cl
ATOM     12 CL   UNL     1      -4.329   0.455   0.000  0.00  0.00    +0.000 Cl
ENDBRANCH   2   5
ENDBRANCH   1   3
BRANCH   1  13
ATOM     13  C   UNL     1       0.732   0.037   0.000  0.00  0.00    +0.000 C 
ATOM     14  N   UNL     1       1.485   0.455   0.000  0.00  0.00    +0.000 NA
ATOM     15  O   UNL     1       0.732  -0.800   0.000  0.00  0.00    +0.000 OA
BRANCH  14  16
ATOM     16  C   UNL     1       2.196   0.037   0.000  0.00  0.00    +0.000 C 
BRANCH  16  17
ATOM     17  B   UNL     1       2.196  -0.800   0.000  0.00  0.00    +0.000 B 
ATOM     18  O   UNL     1       1.519  -1.292   0.000  0.00  0.00    +0.000 OA
ATOM     19  O   UNL     1       2.873  -1.292   0.000  0.00  0.00    +0.000 OA
ENDBRANCH  16  17
BRANCH  16  20
ATOM     20  C   UNL     1       2.907   0.455   0.000  0.00  0.00    +0.000 C 
BRANCH  20  21
ATOM     21  C   UNL     1       3.618   0.037   0.000  0.00  0.00    +0.000 C 
ATOM     22  C   UNL     1       4.329   0.455   0.000  0.00  0.00    +0.000 C 
ATOM     23  C   UNL     1       3.618  -0.800   0.000  0.00  0.00    +0.000 C 
ENDBRANCH  20  21
ENDBRANCH  16  20
ENDBRANCH  14  16
ENDBRANCH   1  13
TORSDOF 7
