REMARK  Name = 
REMARK  14 active torsions:
REMARK  status: ('A' for Active; 'I' for Inactive)
REMARK    1  A    between atoms: O_3  and  C_23
REMARK    2  A    between atoms: O_3  and  C_31
REMARK    3  A    between atoms: N_10  and  C_24
REMARK    4  A    between atoms: N_11  and  C_25
REMARK    5  A    between atoms: N_12  and  C_29
REMARK    6  A    between atoms: N_14  and  C_36
REMARK    7  A    between atoms: C_22  and  C_27
REMARK    8  A    between atoms: C_24  and  C_26
REMARK    9  A    between atoms: C_25  and  C_28
REMARK   10  A    between atoms: C_26  and  C_29
REMARK   11  A    between atoms: C_28  and  C_30
REMARK   12  A    between atoms: C_33  and  C_34
REMARK   13  A    between atoms: C_38  and  C_39
REMARK   14  A    between atoms: C_39  and  C_40
REMARK                            x       y       z     vdW  Elec       q    Type
REMARK                         _______ _______ _______ _____ _____    ______ ____
ROOT
ATOM      1  C   UNL     1       0.937  -3.015   0.000  0.00  0.00    +0.000 A 
ATOM      2  C   UNL     1       0.222  -2.603   0.000  0.00  0.00    +0.000 A 
ATOM      3  C   UNL     1       0.222  -1.778   0.000  0.00  0.00    +0.000 A 
ATOM      4  C   UNL     1       1.651  -2.603   0.000  0.00  0.00    +0.000 A 
ATOM      5  C   UNL     1       1.651  -1.778   0.000  0.00  0.00    +0.000 A 
ATOM      6  C   UNL     1       0.937  -1.365   0.000  0.00  0.00    +0.000 A 
ENDROOT
BRANCH   3   9
ATOM      7  O   UNL     1      -1.207  -1.778   0.000  0.00  0.00    +0.000 OA
ATOM      8  N   UNL     1      -0.492  -0.540   0.000  0.00  0.00    +0.000 NA
ATOM      9  C   UNL     1      -0.492  -1.365   0.000  0.00  0.00    +0.000 C 
BRANCH   8  10
ATOM     10  C   UNL     1      -1.207  -0.128   0.000  0.00  0.00    +0.000 C 
BRANCH  10  11
ATOM     11  C   UNL     1      -1.207   0.697   0.000  0.00  0.00    +0.000 C 
BRANCH  11  12
ATOM     12  C   UNL     1      -1.921   1.110   0.000  0.00  0.00    +0.000 C 
BRANCH  12  13
ATOM     13  N   UNL     1      -1.921   1.935   0.000  0.00  0.00    +0.000 NA
ATOM     14  N   UNL     1      -1.921   3.585   0.000  0.00  0.00    +0.000 NA
ATOM     15  C   UNL     1      -1.207   2.347   0.000  0.00  0.00    +0.000 C 
ATOM     16  C   UNL     1      -2.636   2.347   0.000  0.00  0.00    +0.000 C 
ATOM     17  C   UNL     1      -1.207   3.172   0.000  0.00  0.00    +0.000 C 
ATOM     18  C   UNL     1      -2.636   3.172   0.000  0.00  0.00    +0.000 C 
BRANCH  14  19
ATOM     19  C   UNL     1      -1.921   4.410   0.000  0.00  0.00    +0.000 C 
BRANCH  19  20
ATOM     20  C   UNL     1      -2.636   4.822   0.000  0.00  0.00    +0.000 C 
BRANCH  20  22
ATOM     21  N   UNL     1      -3.350   6.060   0.000  0.00  0.00    +0.000 NA
ATOM     22  C   UNL     1      -2.636   5.647   0.000  0.00  0.00    +0.000 C 
ENDBRANCH  20  22
ENDBRANCH  19  20
ENDBRANCH  14  19
ENDBRANCH  12  13
ENDBRANCH  11  12
ENDBRANCH  10  11
ENDBRANCH   8  10
ENDBRANCH   3   9
BRANCH   5  24
ATOM     23  O   UNL     1       1.651  -0.128   0.000  0.00  0.00    +0.000 OA
ATOM     24  N   UNL     1       2.365  -1.365   0.000  0.00  0.00    +0.000 NA
ATOM     25  C   UNL     1       2.365  -0.540   0.000  0.00  0.00    +0.000 C 
BRANCH  25  26
ATOM     26  C   UNL     1       3.080  -0.128   0.000  0.00  0.00    +0.000 C 
BRANCH  26  28
ATOM     27  S   UNL     1       3.747   1.182   0.000  0.00  0.00    +0.000 S 
ATOM     28  C   UNL     1       3.080   0.697   0.000  0.00  0.00    +0.000 A 
ATOM     29  C   UNL     1       2.413   1.182   0.000  0.00  0.00    +0.000 A 
ATOM     30  C   UNL     1       2.667   1.967   0.000  0.00  0.00    +0.000 A 
ATOM     31  C   UNL     1       3.493   1.967   0.000  0.00  0.00    +0.000 A 
ENDBRANCH  26  28
ENDBRANCH  25  26
ENDBRANCH   5  24
BRANCH   1  32
ATOM     32  O   UNL     1       0.937  -3.840   0.000  0.00  0.00    +0.000 OA
BRANCH  32  41
ATOM     33  O   UNL     1      -0.492  -3.840   0.000  0.00  0.00    +0.000 OA
ATOM     34  O   UNL     1      -0.492  -6.315   0.000  0.00  0.00    +0.000 OA
ATOM     35  O   UNL     1      -1.921  -5.490   0.000  0.00  0.00    +0.000 OA
ATOM     36  O   UNL     1       0.937  -5.490   0.000  0.00  0.00    +0.000 OA
ATOM     37  C   UNL     1      -0.492  -5.490   0.000  0.00  0.00    +0.000 C 
ATOM     38  C   UNL     1      -1.207  -5.078   0.000  0.00  0.00    +0.000 C 
ATOM     39  C   UNL     1       0.222  -5.078   0.000  0.00  0.00    +0.000 C 
ATOM     40  C   UNL     1      -1.207  -4.253   0.000  0.00  0.00    +0.000 C 
ATOM     41  C   UNL     1       0.222  -4.253   0.000  0.00  0.00    +0.000 C 
BRANCH  40  43
ATOM     42  O   UNL     1      -1.921  -3.015   0.000  0.00  0.00    +0.000 OA
ATOM     43  C   UNL     1      -1.921  -3.840   0.000  0.00  0.00    +0.000 C 
ENDBRANCH  40  43
ENDBRANCH  32  41
ENDBRANCH   1  32
TORSDOF 14
