REMARK  Name = 
REMARK  7 active torsions:
REMARK  status: ('A' for Active; 'I' for Inactive)
REMARK    1  A    between atoms: C_1  and  C_2
REMARK    2  A    between atoms: C_1  and  C_3
REMARK    3  A    between atoms: C_2  and  C_6
REMARK    4  A    between atoms: C_3  and  C_9
REMARK    5  A    between atoms: C_6  and  C_12
REMARK    6  A    between atoms: C_9  and  C_15
REMARK    7  A    between atoms: C_12  and  C_18
REMARK                            x       y       z     vdW  Elec       q    Type
REMARK                         _______ _______ _______ _____ _____    ______ ____
ROOT
ATOM      1  C   UNL     1      -0.414   0.007   0.000  0.00  0.00    +0.000 C 
ATOM      2  F   UNL     1      -0.414   0.832   0.000  0.00  0.00    +0.000 F 
ATOM      3  F   UNL     1      -0.414  -0.832   0.000  0.00  0.00    +0.000 F 
ENDROOT
BRANCH   1   4
ATOM      4  C   UNL     1      -1.239   0.007   0.000  0.00  0.00    +0.000 C 
ATOM      5  F   UNL     1      -1.239   0.832   0.000  0.00  0.00    +0.000 F 
ATOM      6  F   UNL     1      -1.239  -0.832   0.000  0.00  0.00    +0.000 F 
BRANCH   4   7
ATOM      7  C   UNL     1      -2.077   0.007   0.000  0.00  0.00    +0.000 C 
ATOM      8  F   UNL     1      -2.077   0.832   0.000  0.00  0.00    +0.000 F 
ATOM      9  F   UNL     1      -2.077  -0.832   0.000  0.00  0.00    +0.000 F 
BRANCH   7  10
ATOM     10  C   UNL     1      -2.902   0.007   0.000  0.00  0.00    +0.000 C 
ATOM     11  F   UNL     1      -2.902   0.832   0.000  0.00  0.00    +0.000 F 
ATOM     12  F   UNL     1      -3.746   0.007   0.000  0.00  0.00    +0.000 F 
ATOM     13  F   UNL     1      -2.902  -0.832   0.000  0.00  0.00    +0.000 F 
ENDBRANCH   7  10
ENDBRANCH   4   7
ENDBRANCH   1   4
BRANCH   1  14
ATOM     14  C   UNL     1       0.410   0.007   0.000  0.00  0.00    +0.000 C 
ATOM     15  F   UNL     1       0.410   0.832   0.000  0.00  0.00    +0.000 F 
ATOM     16  F   UNL     1       0.410  -0.832   0.000  0.00  0.00    +0.000 F 
BRANCH  14  17
ATOM     17  C   UNL     1       1.260   0.007   0.000  0.00  0.00    +0.000 C 
ATOM     18  F   UNL     1       1.260   0.832   0.000  0.00  0.00    +0.000 F 
ATOM     19  F   UNL     1       1.260  -0.832   0.000  0.00  0.00    +0.000 F 
BRANCH  17  20
ATOM     20  C   UNL     1       2.077   0.007   0.000  0.00  0.00    +0.000 C 
ATOM     21  F   UNL     1       2.077   0.832   0.000  0.00  0.00    +0.000 F 
ATOM     22  F   UNL     1       2.077  -0.832   0.000  0.00  0.00    +0.000 F 
BRANCH  20  23
ATOM     23  C   UNL     1       2.921   0.007   0.000  0.00  0.00    +0.000 C 
ATOM     24  F   UNL     1       2.921   0.832   0.000  0.00  0.00    +0.000 F 
ATOM     25  F   UNL     1       3.746   0.007   0.000  0.00  0.00    +0.000 F 
ATOM     26  F   UNL     1       2.921  -0.832   0.000  0.00  0.00    +0.000 F 
ENDBRANCH  20  23
ENDBRANCH  17  20
ENDBRANCH  14  17
ENDBRANCH   1  14
TORSDOF 7
