REMARK  Name = 
REMARK  15 active torsions:
REMARK  status: ('A' for Active; 'I' for Inactive)
REMARK    1  A    between atoms: C_5  and  C_7
REMARK    2  A    between atoms: C_7  and  C_16
REMARK    3  A    between atoms: C_8  and  O_9
REMARK    4  A    between atoms: O_9  and  C_10
REMARK    5  A    between atoms: C_10  and  C_11
REMARK    6  A    between atoms: N_12  and  C_13
REMARK    7  A    between atoms: C_13  and  C_14
REMARK    8  A    between atoms: C_13  and  C_29
REMARK    9  A    between atoms: C_14  and  C_15
REMARK   10  A    between atoms: C_15  and  C_16
REMARK   11  A    between atoms: C_16  and  N_17
REMARK   12  A    between atoms: C_18  and  C_19
REMARK   13  A    between atoms: C_19  and  N_20
REMARK   14  A    between atoms: C_19  and  C_38
REMARK   15  A    between atoms: C_29  and  C_30
REMARK                            x       y       z     vdW  Elec       q    Type
REMARK                         _______ _______ _______ _____ _____    ______ ____
ROOT
ATOM      1  C   UNL     1       0.000   0.036   0.000  0.00  0.00    +0.000 C 
ATOM      2  O   UNL     1       0.003  -0.788   0.000  0.00  0.00    +0.000 OA
ENDROOT
BRANCH   1   3
ATOM      3  C   UNL     1       0.714   0.450   0.000  0.00  0.00    +0.000 C 
BRANCH   3   5
ATOM      4  C   UNL     1       2.142   0.450   0.000  0.00  0.00    +0.000 C 
ATOM      5  N   UNL     1       1.428   0.036   0.000  0.00  0.00    +0.000 NA
ATOM      6  O   UNL     1       2.142   1.276   0.000  0.00  0.00    +0.000 OA
BRANCH   4   7
ATOM      7  C   UNL     1       2.856   0.036   0.000  0.00  0.00    +0.000 C 
BRANCH   7   8
ATOM      8  O   UNL     1       3.570   0.450   0.000  0.00  0.00    +0.000 OA
BRANCH   8   9
ATOM      9  C   UNL     1       4.284   0.036   0.000  0.00  0.00    +0.000 A 
ATOM     10  C   UNL     1       4.999   0.448   0.000  0.00  0.00    +0.000 A 
ATOM     11  C   UNL     1       5.713   0.035   0.000  0.00  0.00    +0.000 A 
ATOM     12  C   UNL     1       5.712  -0.790   0.000  0.00  0.00    +0.000 A 
ATOM     13  C   UNL     1       4.997  -1.202   0.000  0.00  0.00    +0.000 A 
ATOM     14  C   UNL     1       4.283  -0.789   0.000  0.00  0.00    +0.000 A 
ATOM     15  C   UNL     1       5.000   1.275   0.000  0.00  0.00    +0.000 C 
ATOM     16  C   UNL     1       3.566  -1.201   0.000  0.00  0.00    +0.000 C 
ENDBRANCH   8   9
ENDBRANCH   7   8
ENDBRANCH   4   7
ENDBRANCH   3   5
BRANCH   3  17
ATOM     17  C   UNL     1       0.714   1.276   0.000  0.00  0.00    +0.000 C 
BRANCH  17  18
ATOM     18  C   UNL     1      -0.002   1.690   0.000  0.00  0.00    +0.000 A 
ATOM     19  C   UNL     1      -0.713   1.277   0.000  0.00  0.00    +0.000 A 
ATOM     20  C   UNL     1      -1.429   1.690   0.000  0.00  0.00    +0.000 A 
ATOM     21  C   UNL     1      -1.429   2.517   0.000  0.00  0.00    +0.000 A 
ATOM     22  C   UNL     1      -0.713   2.930   0.000  0.00  0.00    +0.000 A 
ATOM     23  C   UNL     1       0.003   2.517   0.000  0.00  0.00    +0.000 A 
ENDBRANCH  17  18
ENDBRANCH   3  17
ENDBRANCH   1   3
BRANCH   1  24
ATOM     24  C   UNL     1      -0.714   0.450   0.000  0.00  0.00    +0.000 C 
BRANCH  24  25
ATOM     25  C   UNL     1      -1.428   0.036   0.000  0.00  0.00    +0.000 C 
BRANCH  25  26
ATOM     26  N   UNL     1      -2.142   0.450   0.000  0.00  0.00    +0.000 NA
ATOM     27  C   UNL     1      -2.856   0.036   0.000  0.00  0.00    +0.000 C 
ATOM     28  O   UNL     1      -2.856  -0.790   0.000  0.00  0.00    +0.000 OA
BRANCH  27  29
ATOM     29  C   UNL     1      -3.570   0.450   0.000  0.00  0.00    +0.000 C 
BRANCH  29  30
ATOM     30  N   UNL     1      -4.284   0.036   0.000  0.00  0.00    +0.000 N 
ATOM     31  C   UNL     1      -4.283  -0.789   0.000  0.00  0.00    +0.000 C 
ATOM     32  C   UNL     1      -4.997  -1.202   0.000  0.00  0.00    +0.000 C 
ATOM     33  C   UNL     1      -5.712  -0.790   0.000  0.00  0.00    +0.000 C 
ATOM     34  N   UNL     1      -5.713   0.035   0.000  0.00  0.00    +0.000 NA
ATOM     35  C   UNL     1      -4.999   0.448   0.000  0.00  0.00    +0.000 C 
ATOM     36  O   UNL     1      -5.000   1.275   0.000  0.00  0.00    +0.000 OA
ENDBRANCH  29  30
BRANCH  29  37
ATOM     37  C   UNL     1      -3.570   1.565   0.000  0.00  0.00    +0.000 C 
ATOM     38  C   UNL     1      -4.286   1.978   0.000  0.00  0.00    +0.000 C 
ATOM     39  C   UNL     1      -2.854   1.978   0.000  0.00  0.00    +0.000 C 
ENDBRANCH  29  37
ENDBRANCH  27  29
ENDBRANCH  25  26
BRANCH  25  40
ATOM     40  C   UNL     1      -1.428  -0.790   0.000  0.00  0.00    +0.000 C 
BRANCH  40  45
ATOM     41  C   UNL     1       0.224  -2.214   0.000  0.00  0.00    +0.000 A 
ATOM     42  C   UNL     1      -0.185  -2.928   0.000  0.00  0.00    +0.000 A 
ATOM     43  C   UNL     1      -1.008  -2.930   0.000  0.00  0.00    +0.000 A 
ATOM     44  C   UNL     1      -1.421  -2.219   0.000  0.00  0.00    +0.000 A 
ATOM     45  C   UNL     1      -1.012  -1.505   0.000  0.00  0.00    +0.000 A 
ATOM     46  C   UNL     1      -0.189  -1.502   0.000  0.00  0.00    +0.000 A 
ENDBRANCH  40  45
ENDBRANCH  25  40
ENDBRANCH  24  25
ENDBRANCH   1  24
TORSDOF 15
