REMARK  Name = 
REMARK  8 active torsions:
REMARK  status: ('A' for Active; 'I' for Inactive)
REMARK    1  A    between atoms: P_1  and  O_4
REMARK    2  A    between atoms: P_1  and  O_5
REMARK    3  A    between atoms: O_4  and  C_21
REMARK    4  A    between atoms: O_5  and  C_29
REMARK    5  A    between atoms: N_14  and  C_28
REMARK    6  A    between atoms: N_15  and  C_23
REMARK    7  A    between atoms: C_24  and  C_29
REMARK    8  A    between atoms: C_27  and  C_30
REMARK                            x       y       z     vdW  Elec       q    Type
REMARK                         _______ _______ _______ _____ _____    ______ ____
ROOT
ATOM      1  P   UNL     1       0.941   0.612   0.000  0.00  0.00    +0.000 P 
ATOM      2  O   UNL     1       1.425  -0.057   0.000  0.00  0.00    +0.000 OA
ATOM      3  O   UNL     1       0.457   1.280   0.000  0.00  0.00    +0.000 OA
ENDROOT
BRANCH   1   4
ATOM      4  O   UNL     1       0.273   0.128   0.000  0.00  0.00    +0.000 OA
BRANCH   4   5
ATOM      5  C   UNL     1      -0.480   0.465   0.000  0.00  0.00    +0.000 C 
BRANCH   5   9
ATOM      6  O   UNL     1      -1.150  -0.844   0.000  0.00  0.00    +0.000 OA
ATOM      7  O   UNL     1      -2.186   1.022   0.000  0.00  0.00    +0.000 OA
ATOM      8  O   UNL     1      -3.244  -0.428   0.000  0.00  0.00    +0.000 OA
ATOM      9  C   UNL     1      -1.149  -0.019   0.000  0.00  0.00    +0.000 C 
ATOM     10  C   UNL     1      -1.933   0.237   0.000  0.00  0.00    +0.000 C 
ATOM     11  C   UNL     1      -2.419  -0.429   0.000  0.00  0.00    +0.000 C 
ATOM     12  C   UNL     1      -1.935  -1.097   0.000  0.00  0.00    +0.000 C 
BRANCH  12  13
ATOM     13  N   UNL     1      -2.192  -1.882   0.000  0.00  0.00    +0.000 N 
ATOM     14  N   UNL     1      -2.192  -3.209   0.000  0.00  0.00    +0.000 NA
ATOM     15  N   UNL     1      -3.687  -1.720   0.000  0.00  0.00    +0.000 NA
ATOM     16  N   UNL     1      -4.401  -2.958   0.000  0.00  0.00    +0.000 NA
ATOM     17  N   UNL     1      -3.687  -4.196   0.000  0.00  0.00    +0.000 NA
ATOM     18  C   UNL     1      -2.972  -2.133   0.000  0.00  0.00    +0.000 A 
ATOM     19  C   UNL     1      -1.710  -2.546   0.000  0.00  0.00    +0.000 A 
ATOM     20  C   UNL     1      -2.972  -2.958   0.000  0.00  0.00    +0.000 A 
ATOM     21  C   UNL     1      -3.687  -3.370   0.000  0.00  0.00    +0.000 A 
ATOM     22  C   UNL     1      -4.401  -2.133   0.000  0.00  0.00    +0.000 A 
ENDBRANCH  12  13
ENDBRANCH   5   9
ENDBRANCH   4   5
ENDBRANCH   1   4
BRANCH   1  23
ATOM     23  O   UNL     1       1.609   1.096   0.000  0.00  0.00    +0.000 OA
BRANCH  23  26
ATOM     24  O   UNL     1       3.690   0.617   0.000  0.00  0.00    +0.000 OA
ATOM     25  O   UNL     1       1.979  -0.661   0.000  0.00  0.00    +0.000 OA
ATOM     26  C   UNL     1       2.362   0.759   0.000  0.00  0.00    +0.000 C 
ATOM     27  C   UNL     1       2.533  -0.049   0.000  0.00  0.00    +0.000 C 
ATOM     28  C   UNL     1       3.078   1.170   0.000  0.00  0.00    +0.000 C 
ATOM     29  C   UNL     1       3.353  -0.136   0.000  0.00  0.00    +0.000 C 
BRANCH  28  32
ATOM     30  O   UNL     1       4.586   1.838   0.000  0.00  0.00    +0.000 OA
ATOM     31  O   UNL     1       3.428   4.451   0.000  0.00  0.00    +0.000 OA
ATOM     32  N   UNL     1       3.165   1.990   0.000  0.00  0.00    +0.000 N 
ATOM     33  N   UNL     1       4.007   3.145   0.000  0.00  0.00    +0.000 NA
ATOM     34  C   UNL     1       3.919   2.325   0.000  0.00  0.00    +0.000 A 
ATOM     35  C   UNL     1       2.498   2.476   0.000  0.00  0.00    +0.000 A 
ATOM     36  C   UNL     1       2.586   3.297   0.000  0.00  0.00    +0.000 A 
ATOM     37  C   UNL     1       3.341   3.631   0.000  0.00  0.00    +0.000 A 
ENDBRANCH  28  32
BRANCH  29  39
ATOM     38  O   UNL     1       4.589  -0.853   0.000  0.00  0.00    +0.000 OA
ATOM     39  C   UNL     1       3.764  -0.851   0.000  0.00  0.00    +0.000 C 
ENDBRANCH  29  39
ENDBRANCH  23  26
ENDBRANCH   1  23
TORSDOF 8
