REMARK  Name = 
REMARK  6 active torsions:
REMARK  status: ('A' for Active; 'I' for Inactive)
REMARK    1  A    between atoms: C_3  and  C_24
REMARK    2  A    between atoms: C_6  and  S_9
REMARK    3  A    between atoms: C_11  and  C_13
REMARK    4  A    between atoms: C_13  and  C_14
REMARK    5  A    between atoms: N_19  and  C_22
REMARK    6  A    between atoms: C_28  and  O_30
REMARK                            x       y       z     vdW  Elec       q    Type
REMARK                         _______ _______ _______ _____ _____    ______ ____
ROOT
ATOM      1  C   UNL     1      -0.773  -1.499   0.000  0.00  0.00    +0.000 A 
ATOM      2  C   UNL     1      -0.059  -1.087   0.000  0.00  0.00    +0.000 A 
ATOM      3  C   UNL     1      -1.488  -0.262   0.000  0.00  0.00    +0.000 A 
ATOM      4  C   UNL     1      -0.773   0.151   0.000  0.00  0.00    +0.000 A 
ATOM      5  C   UNL     1      -0.773   0.976   0.000  0.00  0.00    +0.000 C 
ATOM      6  C   UNL     1      -1.488  -1.087   0.000  0.00  0.00    +0.000 A 
ATOM      7  C   UNL     1      -0.059  -0.262   0.000  0.00  0.00    +0.000 A 
ENDROOT
BRANCH   3   8
ATOM      8  C   UNL     1      -2.202   0.151   0.000  0.00  0.00    +0.000 A 
ATOM      9  C   UNL     1      -3.631   0.151   0.000  0.00  0.00    +0.000 A 
ATOM     10  C   UNL     1      -2.917  -0.262   0.000  0.00  0.00    +0.000 A 
ATOM     11  C   UNL     1      -2.202   0.976   0.000  0.00  0.00    +0.000 A 
ATOM     12  C   UNL     1      -3.631   0.976   0.000  0.00  0.00    +0.000 A 
ATOM     13  C   UNL     1      -2.917   1.389   0.000  0.00  0.00    +0.000 A 
BRANCH  12  14
ATOM     14  O   UNL     1      -4.346   1.389   0.000  0.00  0.00    +0.000 OA
ATOM     15  C   UNL     1      -4.346   2.214   0.000  0.00  0.00    +0.000 C 
ENDBRANCH  12  14
ENDBRANCH   3   8
BRANCH   6  18
ATOM     16  O   UNL     1      -2.615  -0.784   0.000  0.00  0.00    +0.000 OA
ATOM     17  O   UNL     1      -1.790  -2.214   0.000  0.00  0.00    +0.000 OA
ATOM     18  S   UNL     1      -2.202  -1.499   0.000  0.00  0.00    +0.000 S 
ATOM     19  C   UNL     1      -2.917  -1.912   0.000  0.00  0.00    +0.000 C 
ENDBRANCH   6  18
BRANCH   7  21
ATOM     20  O   UNL     1       0.656   0.976   0.000  0.00  0.00    +0.000 OA
ATOM     21  C   UNL     1       0.656   0.151   0.000  0.00  0.00    +0.000 C 
BRANCH  21  22
ATOM     22  C   UNL     1       1.370  -0.262   0.000  0.00  0.00    +0.000 A 
ATOM     23  C   UNL     1       1.425  -1.085   0.000  0.00  0.00    +0.000 A 
ATOM     24  C   UNL     1       2.136   0.045   0.000  0.00  0.00    +0.000 A 
ATOM     25  O   UNL     1       2.136   0.870   0.000  0.00  0.00    +0.000 OA
ATOM     26  N   UNL     1       2.224  -1.287   0.000  0.00  0.00    +0.000 NA
ATOM     27  N   UNL     1       2.664  -0.589   0.000  0.00  0.00    +0.000 N 
BRANCH  27  30
ATOM     28  C   UNL     1       3.378   0.343   0.000  0.00  0.00    +0.000 C 
ATOM     29  C   UNL     1       3.538  -1.459   0.000  0.00  0.00    +0.000 C 
ATOM     30  C   UNL     1       3.458  -0.527   0.000  0.00  0.00    +0.000 C 
ATOM     31  C   UNL     1       4.346  -0.464   0.000  0.00  0.00    +0.000 C 
ENDBRANCH  27  30
ENDBRANCH  21  22
ENDBRANCH   7  21
TORSDOF 6
