REMARK  Name = 
REMARK  9 active torsions:
REMARK  status: ('A' for Active; 'I' for Inactive)
REMARK    1  A    between atoms: C_2  and  C_3
REMARK    2  A    between atoms: C_3  and  C_4
REMARK    3  A    between atoms: C_3  and  C_6
REMARK    4  A    between atoms: C_6  and  O_7
REMARK    5  A    between atoms: O_7  and  C_8
REMARK    6  A    between atoms: C_8  and  C_10
REMARK    7  A    between atoms: C_14  and  O_20
REMARK    8  A    between atoms: O_20  and  C_21
REMARK    9  A    between atoms: C_26  and  C_27
REMARK                            x       y       z     vdW  Elec       q    Type
REMARK                         _______ _______ _______ _____ _____    ______ ____
ROOT
ATOM      1  C   UNL     1       6.460  -4.427   0.000  0.00  0.00    +0.000 C 
ATOM      2  C   UNL     1       7.285  -4.427   0.000  0.00  0.00    +0.000 C 
ATOM      3  C   UNL     1       7.697  -5.141   0.000  0.00  0.00    +0.000 C 
ATOM      4  C   UNL     1       8.522  -5.141   0.000  0.00  0.00    +0.000 C 
ATOM      5  C   UNL     1       8.935  -5.856   0.000  0.00  0.00    +0.000 C 
ATOM      6  C   UNL     1       8.522  -6.570   0.000  0.00  0.00    +0.000 C 
ATOM      7  C   UNL     1       7.697  -6.570   0.000  0.00  0.00    +0.000 C 
ATOM      8  C   UNL     1       7.285  -5.856   0.000  0.00  0.00    +0.000 C 
ATOM      9  C   UNL     1       6.460  -5.856   0.000  0.00  0.00    +0.000 C 
ATOM     10  N   UNL     1       6.047  -5.141   0.000  0.00  0.00    +0.000 NA
ENDROOT
BRANCH   1  11
ATOM     11  C   UNL     1       6.047  -3.712   0.000  0.00  0.00    +0.000 C 
ATOM     12  O   UNL     1       6.460  -2.998   0.000  0.00  0.00    +0.000 OA
BRANCH  11  13
ATOM     13  O   UNL     1       5.222  -3.712   0.000  0.00  0.00    +0.000 OA
BRANCH  13  14
ATOM     14  C   UNL     1       4.810  -2.998   0.000  0.00  0.00    +0.000 C 
BRANCH  14  15
ATOM     15  C   UNL     1       3.985  -2.998   0.000  0.00  0.00    +0.000 C 
BRANCH  15  17
ATOM     16  C   UNL     1       2.747  -2.284   0.000  0.00  0.00    +0.000 C 
ATOM     17  C   UNL     1       3.572  -2.284   0.000  0.00  0.00    +0.000 C 
ENDBRANCH  15  17
BRANCH  15  18
ATOM     18  C   UNL     1       3.572  -3.712   0.000  0.00  0.00    +0.000 C 
ATOM     19  C   UNL     1       2.747  -3.712   0.000  0.00  0.00    +0.000 C 
ENDBRANCH  15  18
ENDBRANCH  14  15
ENDBRANCH  13  14
ENDBRANCH  11  13
ENDBRANCH   1  11
BRANCH   5  20
ATOM     20  O   UNL     1       9.760  -5.856   0.000  0.00  0.00    +0.000 OA
BRANCH  20  21
ATOM     21  C   UNL     1      10.172  -5.141   0.000  0.00  0.00    +0.000 A 
ATOM     22  C   UNL     1       9.760  -4.427   0.000  0.00  0.00    +0.000 A 
ATOM     23  C   UNL     1      10.172  -3.712   0.000  0.00  0.00    +0.000 A 
ATOM     24  C   UNL     1      10.997  -3.712   0.000  0.00  0.00    +0.000 A 
ATOM     25  C   UNL     1      11.410  -4.427   0.000  0.00  0.00    +0.000 A 
ATOM     26  C   UNL     1      10.997  -5.141   0.000  0.00  0.00    +0.000 A 
ATOM     27 CL   UNL     1      12.235  -4.427   0.000  0.00  0.00    +0.000 Cl
BRANCH  26  28
ATOM     28  C   UNL     1      11.410  -5.856   0.000  0.00  0.00    +0.000 A 
ATOM     29  N   UNL     1      12.230  -5.942   0.000  0.00  0.00    +0.000 NA
ATOM     30  N   UNL     1      12.402  -6.749   0.000  0.00  0.00    +0.000 NA
ATOM     31  N   UNL     1      11.687  -7.162   0.000  0.00  0.00    +0.000 NA
ATOM     32  N   UNL     1      11.074  -6.610   0.000  0.00  0.00    +0.000 NA
ENDBRANCH  26  28
ENDBRANCH  20  21
ENDBRANCH   5  20
TORSDOF 9
