REMARK  Name = 
REMARK  4 active torsions:
REMARK  status: ('A' for Active; 'I' for Inactive)
REMARK    1  A    between atoms: C_1  and  C_2
REMARK    2  A    between atoms: C_1  and  C_3
REMARK    3  A    between atoms: C_2  and  S_10
REMARK    4  A    between atoms: C_3  and  S_11
REMARK                            x       y       z     vdW  Elec       q    Type
REMARK                         _______ _______ _______ _____ _____    ______ ____
ROOT
ATOM      1  C   UNL     1       0.055   0.055   0.000  0.00  0.00    +0.000 C 
ENDROOT
BRANCH   1   2
ATOM      2  C   UNL     1       0.055   0.880   0.000  0.00  0.00    +0.000 C 
BRANCH   2   6
ATOM      3  O   UNL     1       1.484   1.705   0.000  0.00  0.00    +0.000 OA
ATOM      4  O   UNL     1       0.357   2.007   0.000  0.00  0.00    +0.000 OA
ATOM      5  O   UNL     1       1.182   0.578   0.000  0.00  0.00    +0.000 OA
ATOM      6  S   UNL     1       0.770   1.293   0.000  0.00  0.00    +0.000 S 
ENDBRANCH   2   6
ENDBRANCH   1   2
BRANCH   1   7
ATOM      7  C   UNL     1      -0.659  -0.357   0.000  0.00  0.00    +0.000 C 
BRANCH   7  11
ATOM      8  O   UNL     1      -0.659  -2.007   0.000  0.00  0.00    +0.000 OA
ATOM      9  O   UNL     1      -1.484  -1.182   0.000  0.00  0.00    +0.000 OA
ATOM     10  O   UNL     1       0.166  -1.182   0.000  0.00  0.00    +0.000 OA
ATOM     11  S   UNL     1      -0.659  -1.182   0.000  0.00  0.00    +0.000 S 
ENDBRANCH   7  11
ENDBRANCH   1   7
TORSDOF 4
