REMARK  Name = 
REMARK  1 active torsions:
REMARK  status: ('A' for Active; 'I' for Inactive)
REMARK    1  A    between atoms: C_4  and  C_15
REMARK                            x       y       z     vdW  Elec       q    Type
REMARK                         _______ _______ _______ _____ _____    ______ ____
ROOT
ATOM      1  C   UNL     1       1.476   0.273   0.000  0.00  0.00    +0.000 C 
ATOM      2  C   UNL     1       0.050  -0.553   0.000  0.00  0.00    +0.000 C 
ATOM      3  C   UNL     1      -0.661  -0.958   0.000  0.00  0.00    +0.000 C 
ATOM      4  C   UNL     1       2.173   0.711   0.000  0.00  0.00    +0.000 C 
ATOM      5  C   UNL     1       1.462  -0.567   0.000  0.00  0.00    +0.000 C 
ATOM      6  C   UNL     1      -0.661  -1.801   0.000  0.00  0.00    +0.000 C 
ATOM      7  C   UNL     1       0.765  -0.958   0.000  0.00  0.00    +0.000 C 
ATOM      8  C   UNL     1      -1.358  -2.214   0.000  0.00  0.00    +0.000 C 
ATOM      9  C   UNL     1       0.744   0.694   0.000  0.00  0.00    +0.000 C 
ATOM     10  C   UNL     1       0.050   0.273   0.000  0.00  0.00    +0.000 C 
ATOM     11  C   UNL     1       2.817   0.240   0.000  0.00  0.00    +0.000 C 
ATOM     12  C   UNL     1       2.817  -0.567   0.000  0.00  0.00    +0.000 C 
ATOM     13  C   UNL     1      -1.380  -0.553   0.000  0.00  0.00    +0.000 C 
ATOM     14  C   UNL     1       0.765  -1.801   0.000  0.00  0.00    +0.000 C 
ATOM     15  C   UNL     1       0.066  -2.214   0.000  0.00  0.00    +0.000 C 
ATOM     16  C   UNL     1      -2.099  -1.801   0.000  0.00  0.00    +0.000 C 
ATOM     17  O   UNL     1      -2.817  -2.214   0.000  0.00  0.00    +0.000 OA
ATOM     18  C   UNL     1      -2.099  -0.958   0.000  0.00  0.00    +0.000 C 
ATOM     19  C   UNL     1       1.476   1.093   0.000  0.00  0.00    +0.000 C 
ATOM     20  C   UNL     1       2.479   1.495   0.000  0.00  0.00    +0.000 C 
ENDROOT
BRANCH   4  21
ATOM     21  C   UNL     1       1.823   1.471   0.000  0.00  0.00    +0.000 C 
ATOM     22  O   UNL     1       2.297   2.214   0.000  0.00  0.00    +0.000 OA
ATOM     23  C   UNL     1       1.030   1.603   0.000  0.00  0.00    +0.000 C 
ENDBRANCH   4  21
TORSDOF 1
