REMARK  Name = 
REMARK  3 active torsions:
REMARK  status: ('A' for Active; 'I' for Inactive)
REMARK    1  A    between atoms: S_1  and  C_2
REMARK    2  A    between atoms: C_2  and  C_6
REMARK    3  A    between atoms: C_6  and  C_7
REMARK                            x       y       z     vdW  Elec       q    Type
REMARK                         _______ _______ _______ _____ _____    ______ ____
ROOT
ATOM      1  C   UNL     1       0.347  -0.456   0.000  0.00  0.00    +0.000 C 
ENDROOT
BRANCH   1   2
ATOM      2  S   UNL     1       1.075  -0.054   0.000  0.00  0.00    +0.000 S 
ATOM      3  O   UNL     1       1.790   0.364   0.000  0.00  0.00    +0.000 OA
ATOM      4  O   UNL     1       0.654   0.669   0.000  0.00  0.00    +0.000 OA
ATOM      5  O   UNL     1       1.486  -0.765   0.000  0.00  0.00    +0.000 OA
ENDBRANCH   1   2
BRANCH   1   6
ATOM      6  C   UNL     1      -0.369  -0.044   0.000  0.00  0.00    +0.000 C 
ATOM      7  S   UNL     1      -0.369   0.765   0.000  0.00  0.00    +0.000 S 
BRANCH   6   8
ATOM      8  C   UNL     1      -1.076  -0.468   0.000  0.00  0.00    +0.000 C 
ATOM      9  S   UNL     1      -1.790  -0.101   0.000  0.00  0.00    +0.000 S 
ENDBRANCH   6   8
ENDBRANCH   1   6
TORSDOF 3
