REMARK  Name = 
REMARK  8 active torsions:
REMARK  status: ('A' for Active; 'I' for Inactive)
REMARK    1  A    between atoms: C_1  and  O_2
REMARK    2  A    between atoms: C_1  and  C_3
REMARK    3  A    between atoms: C_1  and  C_4
REMARK    4  A    between atoms: O_2  and  C_5
REMARK    5  A    between atoms: C_3  and  C_6
REMARK    6  A    between atoms: C_4  and  C_8
REMARK    7  A    between atoms: C_6  and  C_12
REMARK    8  A    between atoms: C_15  and  C_21
REMARK                            x       y       z     vdW  Elec       q    Type
REMARK                         _______ _______ _______ _____ _____    ______ ____
ROOT
ATOM      1  C   UNL     1      -0.246   1.394   0.000  0.00  0.00    +0.000 C 
ENDROOT
BRANCH   1   2
ATOM      2  C   UNL     1       0.466   1.801   0.000  0.00  0.00    +0.000 C 
ATOM      3  O   UNL     1       0.473   2.648   0.000  0.00  0.00    +0.000 OA
BRANCH   2   4
ATOM      4  C   UNL     1       1.182   1.390   0.000  0.00  0.00    +0.000 C 
ATOM      5  O   UNL     1       1.192   0.707   0.000  0.00  0.00    +0.000 OA
BRANCH   4   6
ATOM      6  C   UNL     1       1.914   1.807   0.000  0.00  0.00    +0.000 C 
ATOM      7  O   UNL     1       2.403   1.571   0.000  0.00  0.00    +0.000 OA
ATOM      8  O   UNL     1       1.907   2.654   0.000  0.00  0.00    +0.000 OA
ENDBRANCH   4   6
ENDBRANCH   2   4
ENDBRANCH   1   2
BRANCH   1   9
ATOM      9  C   UNL     1      -0.949   1.850   0.000  0.00  0.00    +0.000 C 
ATOM     10  O   UNL     1      -0.939   2.680   0.000  0.00  0.00    +0.000 OA
BRANCH   9  11
ATOM     11  C   UNL     1      -1.661   1.440   0.000  0.00  0.00    +0.000 C 
ATOM     12  O   UNL     1      -2.403   1.856   0.000  0.00  0.00    +0.000 OA
ENDBRANCH   9  11
ENDBRANCH   1   9
BRANCH   1  13
ATOM     13  O   UNL     1      -0.220   0.602   0.000  0.00  0.00    +0.000 OA
BRANCH  13  14
ATOM     14  C   UNL     1      -0.263  -0.307   0.000  0.00  0.00    +0.000 C 
ATOM     15  O   UNL     1      -0.949  -0.674   0.000  0.00  0.00    +0.000 OA
ATOM     16  C   UNL     1       0.473  -0.757   0.000  0.00  0.00    +0.000 C 
ATOM     17  C   UNL     1      -0.965  -1.518   0.000  0.00  0.00    +0.000 C 
ATOM     18  C   UNL     1       0.453  -1.604   0.000  0.00  0.00    +0.000 C 
ATOM     19  O   UNL     1       1.165  -0.402   0.000  0.00  0.00    +0.000 OA
ATOM     20  C   UNL     1      -0.276  -1.975   0.000  0.00  0.00    +0.000 C 
ATOM     21  O   UNL     1       1.050  -1.988   0.000  0.00  0.00    +0.000 OA
ATOM     22  O   UNL     1      -0.292  -2.680   0.000  0.00  0.00    +0.000 OA
BRANCH  17  23
ATOM     23  C   UNL     1      -1.435  -1.998   0.000  0.00  0.00    +0.000 C 
ATOM     24  O   UNL     1      -2.075  -1.679   0.000  0.00  0.00    +0.000 OA
ENDBRANCH  17  23
ENDBRANCH  13  14
ENDBRANCH   1  13
TORSDOF 8
