REMARK  Name = 
REMARK  4 active torsions:
REMARK  status: ('A' for Active; 'I' for Inactive)
REMARK    1  A    between atoms: C_6  and  O_7
REMARK    2  A    between atoms: O_7  and  C_8
REMARK    3  A    between atoms: C_11  and  C_14
REMARK    4  A    between atoms: N_20  and  C_23
REMARK                            x       y       z     vdW  Elec       q    Type
REMARK                         _______ _______ _______ _____ _____    ______ ____
ROOT
ATOM      1  C   UNL     1      -0.911   6.401   0.000  0.00  0.00    +0.000 A 
ATOM      2  C   UNL     1      -0.446   7.082   0.000  0.00  0.00    +0.000 A 
ATOM      3  C   UNL     1       0.376   7.021   0.000  0.00  0.00    +0.000 A 
ATOM      4  C   UNL     1       0.734   6.277   0.000  0.00  0.00    +0.000 A 
ATOM      5  C   UNL     1       0.270   5.596   0.000  0.00  0.00    +0.000 A 
ATOM      6  N   UNL     1      -0.553   5.657   0.000  0.00  0.00    +0.000 NA
ENDROOT
BRANCH   4   7
ATOM      7  C   UNL     1       1.557   6.216   0.000  0.00  0.00    +0.000 C 
ATOM      8  O   UNL     1       2.022   6.897   0.000  0.00  0.00    +0.000 OA
ATOM      9  N   UNL     1       1.915   5.473   0.000  0.00  0.00    +0.000 N 
ATOM     10  C   UNL     1       2.740   5.473   0.000  0.00  0.00    +0.000 C 
ATOM     11  C   UNL     1       3.254   4.827   0.000  0.00  0.00    +0.000 C 
ATOM     12  C   UNL     1       3.071   4.023   0.000  0.00  0.00    +0.000 C 
ATOM     13  N   UNL     1       2.327   3.665   0.000  0.00  0.00    +0.000 NA
ATOM     14  C   UNL     1       1.584   4.023   0.000  0.00  0.00    +0.000 C 
ATOM     15  C   UNL     1       1.401   4.827   0.000  0.00  0.00    +0.000 C 
BRANCH  13  16
ATOM     16  C   UNL     1       2.327   2.840   0.000  0.00  0.00    +0.000 C 
ATOM     17  C   UNL     1       2.911   2.257   0.000  0.00  0.00    +0.000 C 
ATOM     18  C   UNL     1       2.327   1.673   0.000  0.00  0.00    +0.000 C 
ATOM     19  C   UNL     1       1.744   2.257   0.000  0.00  0.00    +0.000 C 
ENDBRANCH  13  16
ENDBRANCH   4   7
BRANCH   1  20
ATOM     20  O   UNL     1      -1.734   6.463   0.000  0.00  0.00    +0.000 OA
BRANCH  20  26
ATOM     21  C   UNL     1      -2.914   7.267   0.000  0.00  0.00    +0.000 A 
ATOM     22  C   UNL     1      -3.272   8.011   0.000  0.00  0.00    +0.000 A 
ATOM     23  C   UNL     1      -2.808   8.692   0.000  0.00  0.00    +0.000 A 
ATOM     24  C   UNL     1      -1.985   8.631   0.000  0.00  0.00    +0.000 A 
ATOM     25  C   UNL     1      -1.627   7.887   0.000  0.00  0.00    +0.000 A 
ATOM     26  C   UNL     1      -2.092   7.206   0.000  0.00  0.00    +0.000 A 
ATOM     27  F   UNL     1      -3.166   9.436   0.000  0.00  0.00    +0.000 F 
ENDBRANCH  20  26
ENDBRANCH   1  20
TORSDOF 4
