REMARK  Name = 
REMARK  2 active torsions:
REMARK  status: ('A' for Active; 'I' for Inactive)
REMARK    1  A    between atoms: O_2  and  C_3
REMARK    2  A    between atoms: C_4  and  C_10
REMARK                            x       y       z     vdW  Elec       q    Type
REMARK                         _______ _______ _______ _____ _____    ______ ____
ROOT
ATOM      1  C   UNL     1       3.408   1.197   0.000  0.00  0.00    +0.000 C 
ATOM      2  N   UNL     1       3.960   0.584   0.000  0.00  0.00    +0.000 N 
ATOM      3  C   UNL     1       3.705  -0.201   0.000  0.00  0.00    +0.000 C 
ATOM      4  C   UNL     1       2.898  -0.372   0.000  0.00  0.00    +0.000 C 
ATOM      5  C   UNL     1       3.070  -1.179   0.000  0.00  0.00    +0.000 C 
ATOM      6  C   UNL     1       2.285  -0.924   0.000  0.00  0.00    +0.000 C 
ATOM      7  C   UNL     1       2.346   0.241   0.000  0.00  0.00    +0.000 A 
ATOM      8  C   UNL     1       2.601   1.026   0.000  0.00  0.00    +0.000 A 
ATOM      9  N   UNL     1       1.934   1.510   0.000  0.00  0.00    +0.000 NA
ATOM     10  C   UNL     1       1.266   1.026   0.000  0.00  0.00    +0.000 A 
ATOM     11  C   UNL     1       1.521   0.241   0.000  0.00  0.00    +0.000 A 
ATOM     12  C   UNL     1       0.969  -0.372   0.000  0.00  0.00    +0.000 A 
ATOM     13  F   UNL     1       1.224  -1.157   0.000  0.00  0.00    +0.000 F 
ATOM     14  C   UNL     1       0.162  -0.201   0.000  0.00  0.00    +0.000 A 
ATOM     15  C   UNL     1      -0.092   0.584   0.000  0.00  0.00    +0.000 A 
ATOM     16  C   UNL     1       0.460   1.197   0.000  0.00  0.00    +0.000 A 
ATOM     17  C   UNL     1       4.767   0.756   0.000  0.00  0.00    +0.000 C 
ATOM     18  C   UNL     1       5.319   0.142   0.000  0.00  0.00    +0.000 C 
ATOM     19  O   UNL     1       5.022   1.540   0.000  0.00  0.00    +0.000 OA
ENDROOT
BRANCH   1  21
ATOM     20  C   UNL     1       3.111   2.595   0.000  0.00  0.00    +0.000 A 
ATOM     21  C   UNL     1       3.663   1.982   0.000  0.00  0.00    +0.000 A 
ATOM     22  C   UNL     1       4.470   2.153   0.000  0.00  0.00    +0.000 A 
ATOM     23  C   UNL     1       4.725   2.938   0.000  0.00  0.00    +0.000 A 
ATOM     24  C   UNL     1       4.173   3.551   0.000  0.00  0.00    +0.000 A 
ATOM     25 CL   UNL     1       4.428   4.336   0.000  0.00  0.00    +0.000 Cl
ATOM     26  C   UNL     1       3.366   3.380   0.000  0.00  0.00    +0.000 A 
BRANCH  20  28
ATOM     27  C   UNL     1       1.752   3.036   0.000  0.00  0.00    +0.000 C 
ATOM     28  O   UNL     1       2.304   2.423   0.000  0.00  0.00    +0.000 OA
ENDBRANCH  20  28
ENDBRANCH   1  21
TORSDOF 2
