REMARK  Name = 
REMARK  3 active torsions:
REMARK  status: ('A' for Active; 'I' for Inactive)
REMARK    1  A    between atoms: C_7  and  N_8
REMARK    2  A    between atoms: N_8  and  S_9
REMARK    3  A    between atoms: N_16  and  C_19
REMARK                            x       y       z     vdW  Elec       q    Type
REMARK                         _______ _______ _______ _____ _____    ______ ____
ROOT
ATOM      1  C   UNL     1       0.432   0.363   0.000  0.00  0.00    +0.000 C 
ATOM      2  C   UNL     1       0.715  -0.412   0.000  0.00  0.00    +0.000 C 
ATOM      3  C   UNL     1      -0.098  -0.556   0.000  0.00  0.00    +0.000 C 
ATOM      4  O   UNL     1       1.429   0.000   0.000  0.00  0.00    +0.000 OA
ATOM      5  C   UNL     1       2.143  -0.412   0.000  0.00  0.00    +0.000 A 
ATOM      6  C   UNL     1       2.858   0.000   0.000  0.00  0.00    +0.000 A 
ATOM      7  C   UNL     1       3.572  -0.412   0.000  0.00  0.00    +0.000 A 
ATOM      8  C   UNL     1       3.572  -1.238   0.000  0.00  0.00    +0.000 A 
ATOM      9  C   UNL     1       2.858  -1.650   0.000  0.00  0.00    +0.000 A 
ATOM     10  C   UNL     1       2.143  -1.238   0.000  0.00  0.00    +0.000 A 
ATOM     11  N   UNL     1       1.429  -1.650   0.000  0.00  0.00    +0.000 N 
ATOM     12  C   UNL     1       0.715  -1.238   0.000  0.00  0.00    +0.000 C 
ATOM     13  O   UNL     1       0.000  -1.650   0.000  0.00  0.00    +0.000 OA
ENDROOT
BRANCH  11  14
ATOM     14  C   UNL     1       1.429  -2.475   0.000  0.00  0.00    +0.000 A 
ATOM     15  C   UNL     1       2.143  -2.888   0.000  0.00  0.00    +0.000 A 
ATOM     16  C   UNL     1       2.143  -3.712   0.000  0.00  0.00    +0.000 A 
ATOM     17  C   UNL     1       1.429  -4.125   0.000  0.00  0.00    +0.000 A 
ATOM     18  F   UNL     1       1.429  -4.950   0.000  0.00  0.00    +0.000 F 
ATOM     19  C   UNL     1       0.715  -3.712   0.000  0.00  0.00    +0.000 A 
ATOM     20  C   UNL     1       0.715  -2.888   0.000  0.00  0.00    +0.000 A 
ENDBRANCH  11  14
BRANCH   7  21
ATOM     21  N   UNL     1       4.287   0.000   0.000  0.00  0.00    +0.000 NA
BRANCH  21  22
ATOM     22  S   UNL     1       5.001  -0.412   0.000  0.00  0.00    +0.000 S 
ATOM     23  C   UNL     1       5.716  -0.825   0.000  0.00  0.00    +0.000 C 
ATOM     24  O   UNL     1       5.414   0.302   0.000  0.00  0.00    +0.000 OA
ATOM     25  O   UNL     1       4.589  -1.127   0.000  0.00  0.00    +0.000 OA
ENDBRANCH  21  22
ENDBRANCH   7  21
TORSDOF 3
