REMARK  Name = 
REMARK  6 active torsions:
REMARK  status: ('A' for Active; 'I' for Inactive)
REMARK    1  A    between atoms: C_1  and  C_4
REMARK    2  A    between atoms: C_1  and  C_5
REMARK    3  A    between atoms: C_2  and  O_8
REMARK    4  A    between atoms: C_6  and  C_10
REMARK    5  A    between atoms: O_8  and  C_19
REMARK    6  A    between atoms: C_9  and  O_20
REMARK                            x       y       z     vdW  Elec       q    Type
REMARK                         _______ _______ _______ _____ _____    ______ ____
ROOT
ATOM      1  C   UNL     1      -1.202   0.383   0.000  0.00  0.00    +0.000 A 
ATOM      2  C   UNL     1       0.031  -0.342   0.000  0.00  0.00    +0.000 A 
ATOM      3  C   UNL     1      -0.377   0.379   0.000  0.00  0.00    +0.000 A 
ATOM      4  C   UNL     1      -1.619  -0.329   0.000  0.00  0.00    +0.000 A 
ATOM      5  C   UNL     1      -0.381  -1.050   0.000  0.00  0.00    +0.000 A 
ATOM      6  C   UNL     1      -1.206  -1.050   0.000  0.00  0.00    +0.000 A 
ENDROOT
BRANCH   2   7
ATOM      7  C   UNL     1       0.856  -0.346   0.000  0.00  0.00    +0.000 C 
ATOM      8  C   UNL     1       2.277   0.479   0.000  0.00  0.00    +0.000 C 
ATOM      9  C   UNL     1       1.565  -0.754   0.000  0.00  0.00    +0.000 C 
ATOM     10  C   UNL     1       0.856   0.479   0.000  0.00  0.00    +0.000 C 
ATOM     11  C   UNL     1       1.565   0.896   0.000  0.00  0.00    +0.000 C 
ATOM     12  C   UNL     1       2.277  -0.346   0.000  0.00  0.00    +0.000 C 
BRANCH   8  13
ATOM     13  C   UNL     1       2.994   0.892   0.000  0.00  0.00    +0.000 C 
ATOM     14  O   UNL     1       2.998   1.717   0.000  0.00  0.00    +0.000 OA
ATOM     15  O   UNL     1       3.706   0.475   0.000  0.00  0.00    +0.000 OA
ENDBRANCH   8  13
BRANCH   7  17
ATOM     16  N   UNL     1       0.019  -1.771   0.000  0.00  0.00    +0.000 NA
ATOM     17  C   UNL     1       0.440  -1.058   0.000  0.00  0.00    +0.000 C 
ENDBRANCH   7  17
ENDBRANCH   2   7
BRANCH   4  18
ATOM     18  O   UNL     1      -2.444  -0.325   0.000  0.00  0.00    +0.000 OA
ATOM     19  C   UNL     1      -2.860  -1.037   0.000  0.00  0.00    +0.000 C 
ENDBRANCH   4  18
BRANCH   1  20
ATOM     20  O   UNL     1      -1.610   1.100   0.000  0.00  0.00    +0.000 OA
BRANCH  20  21
ATOM     21  C   UNL     1      -2.435   1.104   0.000  0.00  0.00    +0.000 C 
ATOM     22  C   UNL     1      -2.915   1.771   0.000  0.00  0.00    +0.000 C 
ATOM     23  C   UNL     1      -2.923   0.438   0.000  0.00  0.00    +0.000 C 
ATOM     24  C   UNL     1      -3.706   0.696   0.000  0.00  0.00    +0.000 C 
ATOM     25  C   UNL     1      -3.702   1.521   0.000  0.00  0.00    +0.000 C 
ENDBRANCH  20  21
ENDBRANCH   1  20
TORSDOF 6
