REMARK  Name = 
REMARK  2 active torsions:
REMARK  status: ('A' for Active; 'I' for Inactive)
REMARK    1  A    between atoms: N_8  and  C_11
REMARK    2  A    between atoms: C_11  and  C_12
REMARK                            x       y       z     vdW  Elec       q    Type
REMARK                         _______ _______ _______ _____ _____    ______ ____
ROOT
ATOM      1  C   UNL     1       1.148  -0.609   0.000  0.00  0.00    +0.000 A 
ATOM      2  C   UNL     1       1.148  -1.442   0.000  0.00  0.00    +0.000 A 
ATOM      3  C   UNL     1       0.429  -0.197   0.000  0.00  0.00    +0.000 A 
ATOM      4  N   UNL     1       1.943  -0.352   0.000  0.00  0.00    +0.000 NA
ATOM      5  N   UNL     1       1.939  -1.691   0.000  0.00  0.00    +0.000 NA
ATOM      6  N   UNL     1       0.429  -1.862   0.000  0.00  0.00    +0.000 NA
ATOM      7  N   UNL     1      -0.286  -0.609   0.000  0.00  0.00    +0.000 NA
ATOM      8  N   UNL     1       0.426   0.628   0.000  0.00  0.00    +0.000 NA
ATOM      9  C   UNL     1       2.424  -1.029   0.000  0.00  0.00    +0.000 A 
ATOM     10  C   UNL     1      -0.286  -1.442   0.000  0.00  0.00    +0.000 A 
ENDROOT
BRANCH   8  11
ATOM     11  C   UNL     1      -0.286   1.037   0.000  0.00  0.00    +0.000 C 
BRANCH  11  12
ATOM     12  C   UNL     1      -1.001   0.628   0.000  0.00  0.00    +0.000 C 
ATOM     13  C   UNL     1      -1.712   1.037   0.000  0.00  0.00    +0.000 C 
ATOM     14  C   UNL     1      -2.424   0.628   0.000  0.00  0.00    +0.000 C 
ATOM     15  C   UNL     1      -1.712   1.862   0.000  0.00  0.00    +0.000 C 
ENDBRANCH  11  12
ENDBRANCH   8  11
TORSDOF 2
