REMARK  Name = 
REMARK  4 active torsions:
REMARK  status: ('A' for Active; 'I' for Inactive)
REMARK    1  A    between atoms: O_2  and  C_3
REMARK    2  A    between atoms: C_6  and  C_12
REMARK    3  A    between atoms: C_14  and  C_22
REMARK    4  A    between atoms: C_25  and  C_28
REMARK                            x       y       z     vdW  Elec       q    Type
REMARK                         _______ _______ _______ _____ _____    ______ ____
ROOT
ATOM      1  C   UNL     1      -0.143  -0.030   0.000  0.00  0.00    +0.000 A 
ATOM      2  N   UNL     1      -0.628  -0.698   0.000  0.00  0.00    +0.000 NA
ATOM      3  C   UNL     1      -0.143  -1.365   0.000  0.00  0.00    +0.000 A 
ATOM      4  N   UNL     1       0.641  -1.110   0.000  0.00  0.00    +0.000 N 
ATOM      5  C   UNL     1       0.641  -0.285   0.000  0.00  0.00    +0.000 A 
ATOM      6  C   UNL     1       1.356   0.127   0.000  0.00  0.00    +0.000 A 
ATOM      7  N   UNL     1       2.070  -0.285   0.000  0.00  0.00    +0.000 NA
ATOM      8  C   UNL     1       2.070  -1.110   0.000  0.00  0.00    +0.000 A 
ATOM      9  N   UNL     1       1.356  -1.523   0.000  0.00  0.00    +0.000 NA
ATOM     10  N   UNL     1       1.356   0.952   0.000  0.00  0.00    +0.000 NA
ENDROOT
BRANCH   1  14
ATOM     11  C   UNL     1      -0.227   2.896   0.000  0.00  0.00    +0.000 A 
ATOM     12  C   UNL     1      -0.398   2.089   0.000  0.00  0.00    +0.000 A 
ATOM     13  N   UNL     1       0.086   1.422   0.000  0.00  0.00    +0.000 NA
ATOM     14  C   UNL     1      -0.398   0.754   0.000  0.00  0.00    +0.000 A 
ATOM     15  C   UNL     1      -1.183   1.009   0.000  0.00  0.00    +0.000 A 
ATOM     16  C   UNL     1      -1.183   1.834   0.000  0.00  0.00    +0.000 A 
ATOM     17  C   UNL     1      -1.796   2.386   0.000  0.00  0.00    +0.000 A 
ATOM     18  C   UNL     1      -1.625   3.193   0.000  0.00  0.00    +0.000 A 
ATOM     19  C   UNL     1      -0.840   3.448   0.000  0.00  0.00    +0.000 A 
BRANCH  11  21
ATOM     20  C   UNL     1       0.729   3.958   0.000  0.00  0.00    +0.000 C 
ATOM     21  O   UNL     1       0.558   3.151   0.000  0.00  0.00    +0.000 OA
ENDBRANCH  11  21
ENDBRANCH   1  14
BRANCH   3  22
ATOM     22  C   UNL     1      -0.398  -2.150   0.000  0.00  0.00    +0.000 C 
ATOM     23  C   UNL     1       0.154  -2.763   0.000  0.00  0.00    +0.000 C 
ATOM     24  C   UNL     1      -0.101  -3.548   0.000  0.00  0.00    +0.000 C 
ATOM     25  C   UNL     1      -0.908  -3.719   0.000  0.00  0.00    +0.000 C 
ATOM     26  C   UNL     1      -1.460  -3.106   0.000  0.00  0.00    +0.000 C 
ATOM     27  C   UNL     1      -1.205  -2.321   0.000  0.00  0.00    +0.000 C 
BRANCH  25  28
ATOM     28  C   UNL     1      -1.163  -4.504   0.000  0.00  0.00    +0.000 C 
ATOM     29  O   UNL     1      -0.611  -5.117   0.000  0.00  0.00    +0.000 OA
ATOM     30  O   UNL     1      -1.970  -4.675   0.000  0.00  0.00    +0.000 OA
ENDBRANCH  25  28
ENDBRANCH   3  22
TORSDOF 4
