REMARK  Name = 
REMARK  6 active torsions:
REMARK  status: ('A' for Active; 'I' for Inactive)
REMARK    1  A    between atoms: C_2  and  C_4
REMARK    2  A    between atoms: C_7  and  C_23
REMARK    3  A    between atoms: C_9  and  C_10
REMARK    4  A    between atoms: C_13  and  O_14
REMARK    5  A    between atoms: O_14  and  C_15
REMARK    6  A    between atoms: C_29  and  C_31
REMARK                            x       y       z     vdW  Elec       q    Type
REMARK                         _______ _______ _______ _____ _____    ______ ____
ROOT
ATOM      1  C   UNL     1       0.715  -1.238   0.000  0.00  0.00    +0.000 A 
ATOM      2  C   UNL     1       1.429  -1.650   0.000  0.00  0.00    +0.000 A 
ATOM      3  C   UNL     1       1.429  -2.475   0.000  0.00  0.00    +0.000 A 
ATOM      4  C   UNL     1       0.715  -2.888   0.000  0.00  0.00    +0.000 A 
ATOM      5  N   UNL     1       0.000  -2.475   0.000  0.00  0.00    +0.000 NA
ATOM      6  C   UNL     1       0.000  -1.650   0.000  0.00  0.00    +0.000 A 
ENDROOT
BRANCH   4   7
ATOM      7  C   UNL     1       0.715  -3.712   0.000  0.00  0.00    +0.000 C 
ATOM      8  C   UNL     1       1.429  -4.125   0.000  0.00  0.00    +0.000 C 
ATOM      9  C   UNL     1       1.429  -4.950   0.000  0.00  0.00    +0.000 C 
ATOM     10  N   UNL     1       0.715  -5.362   0.000  0.00  0.00    +0.000 N 
ATOM     11  C   UNL     1       0.000  -4.950   0.000  0.00  0.00    +0.000 C 
ATOM     12  C   UNL     1       0.000  -4.125   0.000  0.00  0.00    +0.000 C 
ATOM     13  C   UNL     1       0.715  -6.188   0.000  0.00  0.00    +0.000 C 
ATOM     14  O   UNL     1       1.429  -6.600   0.000  0.00  0.00    +0.000 OA
BRANCH  13  15
ATOM     15  C   UNL     1       0.000  -6.600   0.000  0.00  0.00    +0.000 C 
ATOM     16  C   UNL     1       0.000  -7.425   0.000  0.00  0.00    +0.000 C 
ENDBRANCH  13  15
ENDBRANCH   4   7
BRANCH   6  17
ATOM     17  C   UNL     1      -0.715  -1.238   0.000  0.00  0.00    +0.000 A 
ATOM     18  C   UNL     1      -1.429  -1.650   0.000  0.00  0.00    +0.000 A 
ATOM     19  C   UNL     1      -2.143  -1.238   0.000  0.00  0.00    +0.000 A 
ATOM     20  C   UNL     1      -2.143  -0.412   0.000  0.00  0.00    +0.000 A 
ATOM     21  C   UNL     1      -1.429   0.000   0.000  0.00  0.00    +0.000 A 
ATOM     22  C   UNL     1      -0.715  -0.412   0.000  0.00  0.00    +0.000 A 
BRANCH  20  23
ATOM     23  O   UNL     1      -2.858   0.000   0.000  0.00  0.00    +0.000 OA
BRANCH  23  24
ATOM     24  C   UNL     1      -2.858   0.825   0.000  0.00  0.00    +0.000 A 
ATOM     25  C   UNL     1      -3.572   1.238   0.000  0.00  0.00    +0.000 A 
ATOM     26  C   UNL     1      -3.572   2.062   0.000  0.00  0.00    +0.000 A 
ATOM     27  C   UNL     1      -2.858   2.475   0.000  0.00  0.00    +0.000 A 
ATOM     28  C   UNL     1      -2.143   2.062   0.000  0.00  0.00    +0.000 A 
ATOM     29  C   UNL     1      -2.143   1.238   0.000  0.00  0.00    +0.000 A 
ENDBRANCH  23  24
ENDBRANCH  20  23
ENDBRANCH   6  17
BRANCH   1  31
ATOM     30  N   UNL     1       0.000   0.000   0.000  0.00  0.00    +0.000 NA
ATOM     31  C   UNL     1       0.715  -0.412   0.000  0.00  0.00    +0.000 C 
ATOM     32  O   UNL     1       1.429   0.000   0.000  0.00  0.00    +0.000 OA
ENDBRANCH   1  31
TORSDOF 6
