REMARK  Name = 
REMARK  4 active torsions:
REMARK  status: ('A' for Active; 'I' for Inactive)
REMARK    1  A    between atoms: C_1  and  C_6
REMARK    2  A    between atoms: C_9  and  O_24
REMARK    3  A    between atoms: C_12  and  O_26
REMARK    4  A    between atoms: C_13  and  O_25
REMARK                            x       y       z     vdW  Elec       q    Type
REMARK                         _______ _______ _______ _____ _____    ______ ____
ROOT
ATOM      1  C   UNL     1       0.715  -1.108   0.000  0.00  0.00    +0.000 C 
ATOM      2  C   UNL     1       1.431  -1.521   0.000  0.00  0.00    +0.000 C 
ATOM      3  C   UNL     1      -0.002  -1.521   0.000  0.00  0.00    +0.000 A 
ATOM      4  C   UNL     1       1.431  -2.346   0.000  0.00  0.00    +0.000 C 
ATOM      5  C   UNL     1      -0.002  -2.346   0.000  0.00  0.00    +0.000 A 
ATOM      6  C   UNL     1       2.215  -1.266   0.000  0.00  0.00    +0.000 C 
ATOM      7  C   UNL     1      -0.715  -1.108   0.000  0.00  0.00    +0.000 A 
ATOM      8  C   UNL     1       0.715  -2.758   0.000  0.00  0.00    +0.000 C 
ATOM      9  O   UNL     1       2.698  -1.933   0.000  0.00  0.00    +0.000 OA
ATOM     10  C   UNL     1      -1.427  -1.521   0.000  0.00  0.00    +0.000 A 
ATOM     11  C   UNL     1      -1.427  -2.346   0.000  0.00  0.00    +0.000 A 
ATOM     12  C   UNL     1      -0.715  -2.758   0.000  0.00  0.00    +0.000 A 
ATOM     13  C   UNL     1       2.215  -2.600   0.000  0.00  0.00    +0.000 C 
ATOM     14  O   UNL     1      -2.215  -1.266   0.000  0.00  0.00    +0.000 OA
ATOM     15  O   UNL     1      -2.215  -2.600   0.000  0.00  0.00    +0.000 OA
ATOM     16  C   UNL     1      -2.698  -1.933   0.000  0.00  0.00    +0.000 C 
ATOM     17  O   UNL     1       2.469  -0.479   0.000  0.00  0.00    +0.000 OA
ENDROOT
BRANCH   1  18
ATOM     18  C   UNL     1       0.715  -0.283   0.000  0.00  0.00    +0.000 A 
ATOM     19  C   UNL     1       0.715   1.367   0.000  0.00  0.00    +0.000 A 
ATOM     20  C   UNL     1      -0.002   0.954   0.000  0.00  0.00    +0.000 A 
ATOM     21  C   UNL     1       1.431   0.954   0.000  0.00  0.00    +0.000 A 
ATOM     22  C   UNL     1      -0.002   0.129   0.000  0.00  0.00    +0.000 A 
ATOM     23  C   UNL     1       1.431   0.129   0.000  0.00  0.00    +0.000 A 
BRANCH  19  24
ATOM     24  O   UNL     1       0.715   2.346   0.000  0.00  0.00    +0.000 OA
ATOM     25  C   UNL     1       1.431   2.758   0.000  0.00  0.00    +0.000 C 
ENDBRANCH  19  24
BRANCH  21  26
ATOM     26  O   UNL     1       2.144   1.367   0.000  0.00  0.00    +0.000 OA
ATOM     27  C   UNL     1       2.144   2.192   0.000  0.00  0.00    +0.000 C 
ENDBRANCH  21  26
BRANCH  20  28
ATOM     28  O   UNL     1      -0.715   1.367   0.000  0.00  0.00    +0.000 OA
ATOM     29  C   UNL     1      -0.715   2.192   0.000  0.00  0.00    +0.000 C 
ENDBRANCH  20  28
ENDBRANCH   1  18
TORSDOF 4
