REMARK  Name = 
REMARK  8 active torsions:
REMARK  status: ('A' for Active; 'I' for Inactive)
REMARK    1  A    between atoms: O_2  and  C_3
REMARK    2  A    between atoms: C_4  and  C_13
REMARK    3  A    between atoms: C_6  and  C_7
REMARK    4  A    between atoms: C_14  and  C_15
REMARK    5  A    between atoms: C_15  and  N_16
REMARK    6  A    between atoms: C_19  and  C_23
REMARK    7  A    between atoms: C_25  and  C_33
REMARK    8  A    between atoms: C_27  and  C_29
REMARK                            x       y       z     vdW  Elec       q    Type
REMARK                         _______ _______ _______ _____ _____    ______ ____
ROOT
ATOM      1  C   UNL     1       0.715  -0.412   0.000  0.00  0.00    +0.000 C 
ENDROOT
BRANCH   1   3
ATOM      2  C   UNL     1       0.000   0.825   0.000  0.00  0.00    +0.000 C 
ATOM      3  C   UNL     1       0.000   0.000   0.000  0.00  0.00    +0.000 C 
ATOM      4  C   UNL     1      -0.715  -0.412   0.000  0.00  0.00    +0.000 C 
ATOM      5  C   UNL     1      -1.429   0.000   0.000  0.00  0.00    +0.000 C 
ATOM      6  C   UNL     1      -1.711  -0.775   0.000  0.00  0.00    +0.000 C 
ATOM      7  C   UNL     1      -2.241   0.143   0.000  0.00  0.00    +0.000 C 
ATOM      8  C   UNL     1      -1.429   0.825   0.000  0.00  0.00    +0.000 C 
ATOM      9  C   UNL     1      -0.715   1.238   0.000  0.00  0.00    +0.000 C 
BRANCH   2  11
ATOM     10  C   UNL     1       1.429   0.825   0.000  0.00  0.00    +0.000 A 
ATOM     11  C   UNL     1       0.715   1.238   0.000  0.00  0.00    +0.000 A 
ATOM     12  C   UNL     1       0.715   2.062   0.000  0.00  0.00    +0.000 A 
ATOM     13  C   UNL     1       1.429   2.475   0.000  0.00  0.00    +0.000 A 
ATOM     14  C   UNL     1       2.143   2.062   0.000  0.00  0.00    +0.000 A 
ATOM     15  F   UNL     1       2.858   2.475   0.000  0.00  0.00    +0.000 F 
ATOM     16  C   UNL     1       2.143   1.238   0.000  0.00  0.00    +0.000 A 
BRANCH  13  17
ATOM     17  C   UNL     1       1.429   3.300   0.000  0.00  0.00    +0.000 C 
ATOM     18  C   UNL     1       2.143   3.712   0.000  0.00  0.00    +0.000 C 
ATOM     19  C   UNL     1       0.715   3.712   0.000  0.00  0.00    +0.000 C 
ENDBRANCH  13  17
BRANCH  10  21
ATOM     20  C   UNL     1       2.143  -0.412   0.000  0.00  0.00    +0.000 C 
ATOM     21  O   UNL     1       1.429   0.000   0.000  0.00  0.00    +0.000 OA
ENDBRANCH  10  21
ENDBRANCH   2  11
ENDBRANCH   1   3
BRANCH   1  22
ATOM     22  N   UNL     1       0.715  -1.238   0.000  0.00  0.00    +0.000 N 
ATOM     23  C   UNL     1       1.382  -1.722   0.000  0.00  0.00    +0.000 C 
ATOM     24  C   UNL     1       2.167  -1.468   0.000  0.00  0.00    +0.000 C 
ATOM     25  C   UNL     1       1.127  -2.507   0.000  0.00  0.00    +0.000 C 
ATOM     26  O   UNL     1       0.302  -2.507   0.000  0.00  0.00    +0.000 OA
ATOM     27  C   UNL     1       0.047  -1.722   0.000  0.00  0.00    +0.000 C 
ATOM     28  O   UNL     1      -0.738  -1.468   0.000  0.00  0.00    +0.000 OA
BRANCH  25  29
ATOM     29  C   UNL     1       1.612  -3.175   0.000  0.00  0.00    +0.000 A 
ATOM     30  C   UNL     1       2.432  -3.088   0.000  0.00  0.00    +0.000 A 
ATOM     31  C   UNL     1       2.917  -3.756   0.000  0.00  0.00    +0.000 A 
ATOM     32  C   UNL     1       2.582  -4.509   0.000  0.00  0.00    +0.000 A 
ATOM     33  C   UNL     1       1.761  -4.596   0.000  0.00  0.00    +0.000 A 
ATOM     34  C   UNL     1       1.276  -3.928   0.000  0.00  0.00    +0.000 A 
BRANCH  33  35
ATOM     35  C   UNL     1       1.426  -5.349   0.000  0.00  0.00    +0.000 C 
ATOM     36  F   UNL     1       1.090  -6.103   0.000  0.00  0.00    +0.000 F 
ATOM     37  F   UNL     1       0.672  -5.014   0.000  0.00  0.00    +0.000 F 
ATOM     38  F   UNL     1       2.179  -5.685   0.000  0.00  0.00    +0.000 F 
ENDBRANCH  33  35
BRANCH  31  39
ATOM     39  C   UNL     1       3.738  -3.670   0.000  0.00  0.00    +0.000 C 
ATOM     40  F   UNL     1       4.558  -3.583   0.000  0.00  0.00    +0.000 F 
ATOM     41  F   UNL     1       3.824  -4.490   0.000  0.00  0.00    +0.000 F 
ATOM     42  F   UNL     1       3.651  -2.849   0.000  0.00  0.00    +0.000 F 
ENDBRANCH  31  39
ENDBRANCH  25  29
ENDBRANCH   1  22
TORSDOF 8
