REMARK  Name = 
REMARK  11 active torsions:
REMARK  status: ('A' for Active; 'I' for Inactive)
REMARK    1  A    between atoms: C_2  and  O_4
REMARK    2  A    between atoms: O_4  and  C_5
REMARK    3  A    between atoms: C_8  and  C_11
REMARK    4  A    between atoms: C_22  and  O_24
REMARK    5  A    between atoms: O_24  and  C_25
REMARK    6  A    between atoms: C_31  and  C_55
REMARK    7  A    between atoms: C_41  and  N_46
REMARK    8  A    between atoms: C_47  and  O_49
REMARK    9  A    between atoms: O_49  and  C_50
REMARK   10  A    between atoms: N_57  and  S_58
REMARK   11  A    between atoms: S_58  and  C_61
REMARK                            x       y       z     vdW  Elec       q    Type
REMARK                         _______ _______ _______ _____ _____    ______ ____
ROOT
ATOM      1  C   UNL     1      -0.288  -1.016   0.000  0.00  0.00    +0.000 C 
ATOM      2  C   UNL     1       0.507  -0.794   0.000  0.00  0.00    +0.000 C 
ATOM      3  C   UNL     1       0.963  -1.481   0.000  0.00  0.00    +0.000 C 
ATOM      4  C   UNL     1       1.694  -1.098   0.000  0.00  0.00    +0.000 C 
ATOM      5  O   UNL     1       1.472  -0.304   0.000  0.00  0.00    +0.000 OA
ATOM      6  N   UNL     1       2.518  -1.046   0.000  0.00  0.00    +0.000 NA
ATOM      7  C   UNL     1       3.291  -1.333   0.000  0.00  0.00    +0.000 C 
ATOM      8  C   UNL     1       4.086  -1.111   0.000  0.00  0.00    +0.000 C 
ATOM      9  C   UNL     1       3.881  -1.910   0.000  0.00  0.00    +0.000 C 
ATOM     10  C   UNL     1       4.185  -2.677   0.000  0.00  0.00    +0.000 C 
ATOM     11  C   UNL     1       4.151  -3.502   0.000  0.00  0.00    +0.000 C 
ATOM     12  C   UNL     1       3.784  -4.241   0.000  0.00  0.00    +0.000 C 
ATOM     13  C   UNL     1       3.148  -4.767   0.000  0.00  0.00    +0.000 C 
ATOM     14  C   UNL     1       2.354  -4.989   0.000  0.00  0.00    +0.000 C 
ATOM     15  C   UNL     1       1.538  -4.869   0.000  0.00  0.00    +0.000 C 
ATOM     16  C   UNL     1       0.841  -4.427   0.000  0.00  0.00    +0.000 C 
ATOM     17  C   UNL     1       0.384  -3.740   0.000  0.00  0.00    +0.000 C 
ATOM     18  C   UNL     1       0.246  -2.927   0.000  0.00  0.00    +0.000 C 
ATOM     19  O   UNL     1      -0.578  -2.892   0.000  0.00  0.00    +0.000 OA
ATOM     20  N   UNL     1       0.451  -2.127   0.000  0.00  0.00    +0.000 N 
ATOM     21  C   UNL     1      -0.322  -1.840   0.000  0.00  0.00    +0.000 C 
ENDROOT
BRANCH   7  22
ATOM     22  C   UNL     1       3.325  -0.509   0.000  0.00  0.00    +0.000 C 
ATOM     23  O   UNL     1       2.628  -0.067   0.000  0.00  0.00    +0.000 OA
ATOM     24  N   UNL     1       4.056  -0.127   0.000  0.00  0.00    +0.000 NA
BRANCH  24  25
ATOM     25  S   UNL     1       4.090   0.698   0.000  0.00  0.00    +0.000 S 
ATOM     26  O   UNL     1       4.915   0.663   0.000  0.00  0.00    +0.000 OA
ATOM     27  O   UNL     1       3.266   0.732   0.000  0.00  0.00    +0.000 OA
BRANCH  25  28
ATOM     28  C   UNL     1       4.125   1.522   0.000  0.00  0.00    +0.000 C 
ATOM     29  C   UNL     1       4.439   2.285   0.000  0.00  0.00    +0.000 C 
ATOM     30  C   UNL     1       4.942   1.631   0.000  0.00  0.00    +0.000 C 
ATOM     31  C   UNL     1       3.319   1.699   0.000  0.00  0.00    +0.000 C 
ENDBRANCH  25  28
ENDBRANCH  24  25
ENDBRANCH   7  22
BRANCH  17  32
ATOM     32  N   UNL     1      -0.383  -4.044   0.000  0.00  0.00    +0.000 NA
ATOM     33  C   UNL     1      -0.503  -4.860   0.000  0.00  0.00    +0.000 C 
ATOM     34  O   UNL     1      -1.270  -5.164   0.000  0.00  0.00    +0.000 OA
BRANCH  33  35
ATOM     35  O   UNL     1       0.144  -5.372   0.000  0.00  0.00    +0.000 OA
BRANCH  35  36
ATOM     36  C   UNL     1       0.024  -6.189   0.000  0.00  0.00    +0.000 C 
ATOM     37  C   UNL     1       0.613  -6.766   0.000  0.00  0.00    +0.000 C 
ATOM     38  C   UNL     1       0.247  -7.505   0.000  0.00  0.00    +0.000 C 
ATOM     39  C   UNL     1      -0.569  -7.385   0.000  0.00  0.00    +0.000 C 
ATOM     40  C   UNL     1      -0.707  -6.571   0.000  0.00  0.00    +0.000 C 
ENDBRANCH  35  36
ENDBRANCH  33  35
ENDBRANCH  17  32
BRANCH   1  41
ATOM     41  O   UNL     1      -0.935  -0.504   0.000  0.00  0.00    +0.000 OA
BRANCH  41  53
ATOM     42  C   UNL     1       0.073   1.433   0.000  0.00  0.00    +0.000 A 
ATOM     43  N   UNL     1      -0.574   1.945   0.000  0.00  0.00    +0.000 NA
ATOM     44  C   UNL     1      -1.341   1.641   0.000  0.00  0.00    +0.000 A 
ATOM     45  C   UNL     1      -2.080   2.007   0.000  0.00  0.00    +0.000 A 
ATOM     46  C   UNL     1      -2.302   2.802   0.000  0.00  0.00    +0.000 A 
ATOM     47  C   UNL     1      -3.102   3.007   0.000  0.00  0.00    +0.000 A 
ATOM     48  C   UNL     1      -3.679   2.417   0.000  0.00  0.00    +0.000 A 
ATOM     49  C   UNL     1      -3.456   1.623   0.000  0.00  0.00    +0.000 A 
ATOM     50  C   UNL     1      -2.657   1.418   0.000  0.00  0.00    +0.000 A 
ATOM     51  O   UNL     1      -2.275   0.687   0.000  0.00  0.00    +0.000 OA
ATOM     52  C   UNL     1      -1.461   0.825   0.000  0.00  0.00    +0.000 A 
ATOM     53  C   UNL     1      -0.815   0.312   0.000  0.00  0.00    +0.000 A 
ATOM     54  N   UNL     1      -0.048   0.617   0.000  0.00  0.00    +0.000 NA
BRANCH  42  58
ATOM     55  C   UNL     1       2.373   2.345   0.000  0.00  0.00    +0.000 A 
ATOM     56  C   UNL     1       2.253   1.528   0.000  0.00  0.00    +0.000 A 
ATOM     57  C   UNL     1       1.486   1.224   0.000  0.00  0.00    +0.000 A 
ATOM     58  C   UNL     1       0.840   1.737   0.000  0.00  0.00    +0.000 A 
ATOM     59  C   UNL     1       0.960   2.553   0.000  0.00  0.00    +0.000 A 
ATOM     60  C   UNL     1       1.727   2.857   0.000  0.00  0.00    +0.000 A 
BRANCH  55  61
ATOM     61  O   UNL     1       3.140   2.649   0.000  0.00  0.00    +0.000 OA
BRANCH  61  63
ATOM     62  C   UNL     1       4.027   3.769   0.000  0.00  0.00    +0.000 C 
ATOM     63  C   UNL     1       3.261   3.465   0.000  0.00  0.00    +0.000 C 
ATOM     64  C   UNL     1       2.614   3.977   0.000  0.00  0.00    +0.000 C 
ENDBRANCH  61  63
ENDBRANCH  55  61
ENDBRANCH  42  58
ENDBRANCH  41  53
ENDBRANCH   1  41
TORSDOF 11
