REMARK  Name = 
REMARK  8 active torsions:
REMARK  status: ('A' for Active; 'I' for Inactive)
REMARK    1  A    between atoms: C_2  and  O_3
REMARK    2  A    between atoms: C_2  and  C_36
REMARK    3  A    between atoms: O_3  and  C_4
REMARK    4  A    between atoms: C_7  and  N_8
REMARK    5  A    between atoms: N_8  and  C_9
REMARK    6  A    between atoms: C_11  and  N_12
REMARK    7  A    between atoms: C_22  and  C_23
REMARK    8  A    between atoms: C_30  and  C_31
REMARK                            x       y       z     vdW  Elec       q    Type
REMARK                         _______ _______ _______ _____ _____    ______ ____
ROOT
ATOM      1  C   UNL     1       0.500   1.319   0.000  0.00  0.00    +0.000 A 
ATOM      2  C   UNL     1       0.249   0.530   0.000  0.00  0.00    +0.000 A 
ATOM      3  C   UNL     1      -0.560   0.364   0.000  0.00  0.00    +0.000 A 
ATOM      4  C   UNL     1      -1.114   0.976   0.000  0.00  0.00    +0.000 A 
ATOM      5  C   UNL     1      -0.862   1.759   0.000  0.00  0.00    +0.000 A 
ATOM      6  C   UNL     1      -0.057   1.931   0.000  0.00  0.00    +0.000 A 
ENDROOT
BRANCH   3   7
ATOM      7  N   UNL     1      -0.812  -0.419   0.000  0.00  0.00    +0.000 N 
ATOM      8  C   UNL     1      -1.600  -0.678   0.000  0.00  0.00    +0.000 A 
ATOM      9  C   UNL     1      -2.316  -0.261   0.000  0.00  0.00    +0.000 C 
ATOM     10  C   UNL     1      -3.031  -0.678   0.000  0.00  0.00    +0.000 C 
ATOM     11  C   UNL     1      -3.314   0.097   0.000  0.00  0.00    +0.000 C 
ATOM     12  C   UNL     1      -3.837  -0.821   0.000  0.00  0.00    +0.000 C 
ATOM     13  C   UNL     1      -3.031  -1.504   0.000  0.00  0.00    +0.000 C 
ATOM     14  C   UNL     1      -2.316  -1.912   0.000  0.00  0.00    +0.000 C 
ATOM     15  O   UNL     1      -2.316  -2.734   0.000  0.00  0.00    +0.000 OA
ATOM     16  C   UNL     1      -1.600  -1.505   0.000  0.00  0.00    +0.000 A 
ATOM     17  C   UNL     1      -0.812  -1.760   0.000  0.00  0.00    +0.000 A 
ATOM     18  N   UNL     1      -0.326  -1.089   0.000  0.00  0.00    +0.000 NA
BRANCH  17  19
ATOM     19  C   UNL     1      -0.561  -2.543   0.000  0.00  0.00    +0.000 C 
ATOM     20  F   UNL     1       0.222  -2.287   0.000  0.00  0.00    +0.000 F 
ATOM     21  F   UNL     1      -1.339  -2.799   0.000  0.00  0.00    +0.000 F 
ATOM     22  F   UNL     1      -0.304  -3.326   0.000  0.00  0.00    +0.000 F 
ENDBRANCH  17  19
ENDBRANCH   3   7
BRANCH   6  23
ATOM     23  C   UNL     1       0.193   2.716   0.000  0.00  0.00    +0.000 C 
ATOM     24  N   UNL     1       0.998   2.891   0.000  0.00  0.00    +0.000 NA
ATOM     25  O   UNL     1      -0.361   3.326   0.000  0.00  0.00    +0.000 OA
ENDBRANCH   6  23
BRANCH   1  26
ATOM     26  N   UNL     1       1.300   1.496   0.000  0.00  0.00    +0.000 NA
BRANCH  26  30
ATOM     27  C   UNL     1       2.968  -0.332   0.000  0.00  0.00    +0.000 C 
ATOM     28  C   UNL     1       2.164  -0.515   0.000  0.00  0.00    +0.000 C 
ATOM     29  C   UNL     1       1.607   0.099   0.000  0.00  0.00    +0.000 C 
ATOM     30  C   UNL     1       1.856   0.887   0.000  0.00  0.00    +0.000 C 
ATOM     31  C   UNL     1       2.661   1.061   0.000  0.00  0.00    +0.000 C 
ATOM     32  C   UNL     1       3.217   0.457   0.000  0.00  0.00    +0.000 C 
BRANCH  27  33
ATOM     33  O   UNL     1       3.524  -0.936   0.000  0.00  0.00    +0.000 OA
BRANCH  33  35
ATOM     34  O   UNL     1       2.473  -1.902   0.000  0.00  0.00    +0.000 OA
ATOM     35  C   UNL     1       3.276  -1.724   0.000  0.00  0.00    +0.000 C 
BRANCH  35  36
ATOM     36  C   UNL     1       3.837  -2.329   0.000  0.00  0.00    +0.000 C 
ATOM     37  N   UNL     1       3.589  -3.111   0.000  0.00  0.00    +0.000 NA
ENDBRANCH  35  36
ENDBRANCH  33  35
ENDBRANCH  27  33
ENDBRANCH  26  30
ENDBRANCH   1  26
TORSDOF 8
