REMARK  Name = 
REMARK  4 active torsions:
REMARK  status: ('A' for Active; 'I' for Inactive)
REMARK    1  A    between atoms: C_2  and  CA_5
REMARK    2  A    between atoms: C_3  and  C_4
REMARK    3  A    between atoms: C_3  and  S_7
REMARK    4  A    between atoms: C_4  and  CA_5
REMARK                            x       y       z     vdW  Elec       q    Type
REMARK                         _______ _______ _______ _____ _____    ______ ____
ROOT
ATOM      1  C   UNL     1       0.000   0.206   0.000  0.00  0.00    +0.000 C 
ENDROOT
BRANCH   1   2
ATOM      2  CA  UNL     1       0.715  -0.206   0.000  0.00  0.00    +0.000 C 
ATOM      3  N   UNL     1       0.714  -1.031   0.000  0.00  0.00    +0.000 NA
BRANCH   2   5
ATOM      4  O   UNL     1       2.143  -0.206   0.000  0.00  0.00    +0.000 OA
ATOM      5  C   UNL     1       1.429   0.206   0.000  0.00  0.00    +0.000 C 
ATOM      6  OXT UNL     1       1.429   1.031   0.000  0.00  0.00    +0.000 OA
ENDBRANCH   2   5
ENDBRANCH   1   2
BRANCH   1   7
ATOM      7  C   UNL     1      -0.715  -0.206   0.000  0.00  0.00    +0.000 C 
BRANCH   7   9
ATOM      8  N   UNL     1      -2.143  -0.206   0.000  0.00  0.00    +0.000 NA
ATOM      9  S   UNL     1      -1.429   0.206   0.000  0.00  0.00    +0.000 S 
ATOM     10  O   UNL     1      -1.429   1.031   0.000  0.00  0.00    +0.000 OA
ATOM     11  C   UNL     1      -1.429  -0.619   0.000  0.00  0.00    +0.000 C 
ENDBRANCH   7   9
ENDBRANCH   1   7
TORSDOF 4
