REMARK  Name = 
REMARK  9 active torsions:
REMARK  status: ('A' for Active; 'I' for Inactive)
REMARK    1  A    between atoms: C_4  and  C_14
REMARK    2  A    between atoms: C_7  and  O_8
REMARK    3  A    between atoms: O_8  and  C_9
REMARK    4  A    between atoms: C_9  and  C_10
REMARK    5  A    between atoms: C_14  and  C_15
REMARK    6  A    between atoms: C_15  and  N_16
REMARK    7  A    between atoms: N_16  and  C_17
REMARK    8  A    between atoms: C_17  and  C_19
REMARK    9  A    between atoms: C_19  and  C_20
REMARK                            x       y       z     vdW  Elec       q    Type
REMARK                         _______ _______ _______ _____ _____    ______ ____
ROOT
ATOM      1  C   UNL     1       2.143  -3.712   0.000  0.00  0.00    +0.000 C 
ENDROOT
BRANCH   1   5
ATOM      2  C   UNL     1      -0.715  -3.712   0.000  0.00  0.00    +0.000 C 
ATOM      3  C   UNL     1       0.000  -4.125   0.000  0.00  0.00    +0.000 A 
ATOM      4  C   UNL     1       0.715  -3.712   0.000  0.00  0.00    +0.000 A 
ATOM      5  C   UNL     1       1.429  -4.125   0.000  0.00  0.00    +0.000 A 
ATOM      6  C   UNL     1       1.429  -4.950   0.000  0.00  0.00    +0.000 A 
ATOM      7  C   UNL     1       0.715  -5.362   0.000  0.00  0.00    +0.000 A 
ATOM      8  C   UNL     1       0.000  -4.950   0.000  0.00  0.00    +0.000 A 
ATOM      9  C   UNL     1       2.143  -5.362   0.000  0.00  0.00    +0.000 C 
BRANCH   8  10
ATOM     10  O   UNL     1      -0.715  -5.362   0.000  0.00  0.00    +0.000 OA
BRANCH  10  11
ATOM     11  C   UNL     1      -0.715  -6.188   0.000  0.00  0.00    +0.000 C 
BRANCH  11  12
ATOM     12  C   UNL     1      -1.429  -6.600   0.000  0.00  0.00    +0.000 C 
ATOM     13  O   UNL     1      -1.429  -7.425   0.000  0.00  0.00    +0.000 OA
ATOM     14  O   UNL     1      -2.143  -6.188   0.000  0.00  0.00    +0.000 OA
ENDBRANCH  11  12
ENDBRANCH  10  11
ENDBRANCH   8  10
ENDBRANCH   1   5
BRANCH   1  15
ATOM     15  C   UNL     1       2.858  -4.125   0.000  0.00  0.00    +0.000 C 
BRANCH  15  16
ATOM     16  N   UNL     1       3.572  -3.712   0.000  0.00  0.00    +0.000 NA
BRANCH  16  17
ATOM     17  C   UNL     1       4.287  -4.125   0.000  0.00  0.00    +0.000 C 
ATOM     18  C   UNL     1       4.287  -4.950   0.000  0.00  0.00    +0.000 C 
BRANCH  17  19
ATOM     19  C   UNL     1       5.001  -3.712   0.000  0.00  0.00    +0.000 C 
ATOM     20  O   UNL     1       5.001  -2.888   0.000  0.00  0.00    +0.000 OA
BRANCH  19  21
ATOM     21  C   UNL     1       5.716  -4.125   0.000  0.00  0.00    +0.000 A 
ATOM     22  C   UNL     1       6.430  -3.712   0.000  0.00  0.00    +0.000 A 
ATOM     23  C   UNL     1       7.145  -4.125   0.000  0.00  0.00    +0.000 A 
ATOM     24  C   UNL     1       7.145  -4.950   0.000  0.00  0.00    +0.000 A 
ATOM     25  C   UNL     1       6.430  -5.362   0.000  0.00  0.00    +0.000 A 
ATOM     26  C   UNL     1       5.716  -4.950   0.000  0.00  0.00    +0.000 A 
ATOM     27  O   UNL     1       7.859  -5.362   0.000  0.00  0.00    +0.000 OA
ENDBRANCH  19  21
ENDBRANCH  17  19
ENDBRANCH  16  17
ENDBRANCH  15  16
ENDBRANCH   1  15
TORSDOF 9
