REMARK  Name = 
REMARK  2 active torsions:
REMARK  status: ('A' for Active; 'I' for Inactive)
REMARK    1  A    between atoms: C_17  and  C_19
REMARK    2  A    between atoms: C_17  and  N_30
REMARK                            x       y       z     vdW  Elec       q    Type
REMARK                         _______ _______ _______ _____ _____    ______ ____
ROOT
ATOM      1  C   UNL     1      -0.911   1.398   0.000  0.00  0.00    +0.000 A 
ATOM      2  C   UNL     1      -0.306   0.837   0.000  0.00  0.00    +0.000 A 
ATOM      3  C   UNL     1       0.996   0.435   0.000  0.00  0.00    +0.000 C 
ATOM      4  C   UNL     1       1.821   0.435   0.000  0.00  0.00    +0.000 C 
ATOM      5  C   UNL     1       3.545   2.202   0.000  0.00  0.00    +0.000 A 
ATOM      6  C   UNL     1       2.757   2.445   0.000  0.00  0.00    +0.000 A 
ATOM      7  C   UNL     1       2.123   3.479   0.000  0.00  0.00    +0.000 C 
ATOM      8  C   UNL     1       0.694   3.479   0.000  0.00  0.00    +0.000 C 
ATOM      9  C   UNL     1      -0.728   2.202   0.000  0.00  0.00    +0.000 A 
ATOM     10  C   UNL     1       2.123   4.304   0.000  0.00  0.00    +0.000 C 
ATOM     11  C   UNL     1       0.694   4.304   0.000  0.00  0.00    +0.000 C 
ATOM     12  C   UNL     1       3.124   0.837   0.000  0.00  0.00    +0.000 A 
ATOM     13  C   UNL     1       1.409   3.067   0.000  0.00  0.00    +0.000 C 
ATOM     14  C   UNL     1       0.482   1.079   0.000  0.00  0.00    +0.000 A 
ATOM     15  C   UNL     1       2.336   1.079   0.000  0.00  0.00    +0.000 A 
ATOM     16  C   UNL     1       3.729   1.398   0.000  0.00  0.00    +0.000 A 
ATOM     17  C   UNL     1       2.152   1.884   0.000  0.00  0.00    +0.000 A 
ATOM     18  C   UNL     1       1.409   2.242   0.000  0.00  0.00    +0.000 C 
ATOM     19  C   UNL     1       0.665   1.884   0.000  0.00  0.00    +0.000 A 
ATOM     20 CL   UNL     1       4.517   1.154   0.000  0.00  0.00    +0.000 Cl
ATOM     21  N   UNL     1       0.061   2.445   0.000  0.00  0.00    +0.000 NA
ATOM     22  N   UNL     1       1.409   4.717   0.000  0.00  0.00    +0.000 NA
ENDROOT
BRANCH  22  23
ATOM     23  C   UNL     1       1.409   5.542   0.000  0.00  0.00    +0.000 C 
BRANCH  23  29
ATOM     24  C   UNL     1      -0.020   8.017   0.000  0.00  0.00    +0.000 C 
ATOM     25  C   UNL     1       0.694   6.779   0.000  0.00  0.00    +0.000 A 
ATOM     26  C   UNL     1      -0.735   6.779   0.000  0.00  0.00    +0.000 A 
ATOM     27  C   UNL     1      -0.020   5.542   0.000  0.00  0.00    +0.000 A 
ATOM     28  C   UNL     1      -0.020   7.192   0.000  0.00  0.00    +0.000 A 
ATOM     29  C   UNL     1       0.694   5.954   0.000  0.00  0.00    +0.000 A 
ATOM     30  N   UNL     1      -0.735   5.954   0.000  0.00  0.00    +0.000 NA
ENDBRANCH  23  29
ENDBRANCH  22  23
TORSDOF 2
