REMARK  Name = 
REMARK  0 active torsions:
REMARK  status: ('A' for Active; 'I' for Inactive)
REMARK                            x       y       z     vdW  Elec       q    Type
REMARK                         _______ _______ _______ _____ _____    ______ ____
ROOT
ATOM      1  O   UNL     1       0.000  -0.824   0.000  0.00  0.00    +0.000 OA
ATOM      2  C   UNL     1      -0.712  -0.409   0.000  0.00  0.00    +0.000 C 
ATOM      3  C   UNL     1       0.712  -0.409   0.000  0.00  0.00    +0.000 C 
ATOM      4  C   UNL     1      -0.712   0.416   0.000  0.00  0.00    +0.000 C 
ATOM      5  C   UNL     1      -1.428  -0.824   0.000  0.00  0.00    +0.000 C 
ATOM      6  C   UNL     1       0.712   0.416   0.000  0.00  0.00    +0.000 C 
ATOM      7  O   UNL     1       1.428  -0.824   0.000  0.00  0.00    +0.000 OA
ATOM      8  C   UNL     1       0.000   0.824   0.000  0.00  0.00    +0.000 C 
ENDROOT
TORSDOF 0
