REMARK  Name = 
REMARK  24 active torsions:
REMARK  status: ('A' for Active; 'I' for Inactive)
REMARK    1  A    between atoms: C_3  and  C_4
REMARK    2  A    between atoms: C_4  and  C_6
REMARK    3  A    between atoms: C_6  and  N_7
REMARK    4  A    between atoms: C_8  and  C_10
REMARK    5  A    between atoms: C_10  and  C_11
REMARK    6  A    between atoms: C_11  and  C_12
REMARK    7  A    between atoms: C_12  and  N_13
REMARK    8  A    between atoms: C_12  and  C_56
REMARK    9  A    between atoms: N_16  and  C_42
REMARK   10  A    between atoms: N_24  and  C_27
REMARK   11  A    between atoms: C_27  and  C_28
REMARK   12  A    between atoms: C_27  and  C_38
REMARK   13  A    between atoms: C_28  and  C_29
REMARK   14  A    between atoms: C_29  and  C_30
REMARK   15  A    between atoms: N_32  and  C_33
REMARK   16  A    between atoms: C_33  and  C_34
REMARK   17  A    between atoms: C_34  and  C_36
REMARK   18  A    between atoms: C_42  and  C_43
REMARK   19  A    between atoms: C_42  and  C_53
REMARK   20  A    between atoms: C_43  and  C_44
REMARK   21  A    between atoms: C_44  and  C_45
REMARK   22  A    between atoms: N_47  and  C_48
REMARK   23  A    between atoms: C_48  and  C_49
REMARK   24  A    between atoms: C_49  and  C_51
REMARK                            x       y       z     vdW  Elec       q    Type
REMARK                         _______ _______ _______ _____ _____    ______ ____
ROOT
ATOM      1 GD   UNL     1       0.808   4.286   0.000  0.00  0.00    +0.000 Gd
ENDROOT
TORSDOF 0
REMARK  Name = 
REMARK  24 active torsions:
REMARK  status: ('A' for Active; 'I' for Inactive)
REMARK    1  A    between atoms: C_3  and  C_4
REMARK    2  A    between atoms: C_4  and  C_6
REMARK    3  A    between atoms: C_6  and  N_7
REMARK    4  A    between atoms: C_8  and  C_10
REMARK    5  A    between atoms: C_10  and  C_11
REMARK    6  A    between atoms: C_11  and  C_12
REMARK    7  A    between atoms: C_12  and  N_13
REMARK    8  A    between atoms: C_12  and  C_56
REMARK    9  A    between atoms: N_16  and  C_42
REMARK   10  A    between atoms: N_24  and  C_27
REMARK   11  A    between atoms: C_27  and  C_28
REMARK   12  A    between atoms: C_27  and  C_38
REMARK   13  A    between atoms: C_28  and  C_29
REMARK   14  A    between atoms: C_29  and  C_30
REMARK   15  A    between atoms: N_32  and  C_33
REMARK   16  A    between atoms: C_33  and  C_34
REMARK   17  A    between atoms: C_34  and  C_36
REMARK   18  A    between atoms: C_42  and  C_43
REMARK   19  A    between atoms: C_42  and  C_53
REMARK   20  A    between atoms: C_43  and  C_44
REMARK   21  A    between atoms: C_44  and  C_45
REMARK   22  A    between atoms: N_47  and  C_48
REMARK   23  A    between atoms: C_48  and  C_49
REMARK   24  A    between atoms: C_49  and  C_51
REMARK                            x       y       z     vdW  Elec       q    Type
REMARK                         _______ _______ _______ _____ _____    ______ ____
ROOT
ATOM      1  N   UNL     1      -0.349   0.806   0.000  0.00  0.00    +0.000 NA
ATOM      2  C   UNL     1       0.077   0.100   0.000  0.00  0.00    +0.000 C 
ATOM      3  C   UNL     1       0.902   0.115   0.000  0.00  0.00    +0.000 C 
ATOM      4  N   UNL     1       1.301   0.838   0.000  0.00  0.00    +0.000 NA
ATOM      5  C   UNL     1       2.007   1.264   0.000  0.00  0.00    +0.000 C 
ATOM      6  C   UNL     1       1.991   2.089   0.000  0.00  0.00    +0.000 A 
ATOM      7  C   UNL     1       2.563   2.683   0.000  0.00  0.00    +0.000 A 
ATOM      8  C   UNL     1       2.334   3.476   0.000  0.00  0.00    +0.000 A 
ATOM      9  C   UNL     1       1.534   3.674   0.000  0.00  0.00    +0.000 A 
ATOM     10  C   UNL     1       0.843   3.194   0.000  0.00  0.00    +0.000 A 
ATOM     11  C   UNL     1       0.018   3.178   0.000  0.00  0.00    +0.000 C 
ATOM     12  N   UNL     1      -0.381   2.456   0.000  0.00  0.00    +0.000 NA
ATOM     13  C   UNL     1      -1.087   2.030   0.000  0.00  0.00    +0.000 C 
ATOM     14  C   UNL     1      -1.071   1.205   0.000  0.00  0.00    +0.000 C 
ATOM     15  N   UNL     1       1.269   2.487   0.000  0.00  0.00    +0.000 NA
ENDROOT
BRANCH   1  16
ATOM     16  C   UNL     1      -0.921   0.211   0.000  0.00  0.00    +0.000 C 
BRANCH  16  17
ATOM     17  C   UNL     1      -0.692  -0.581   0.000  0.00  0.00    +0.000 C 
ATOM     18  O   UNL     1       0.109  -0.779   0.000  0.00  0.00    +0.000 OA
ATOM     19  O   UNL     1      -1.264  -1.176   0.000  0.00  0.00    +0.000 OA
ENDBRANCH  16  17
BRANCH  16  20
ATOM     20  C   UNL     1      -1.722   0.410   0.000  0.00  0.00    +0.000 C 
BRANCH  20  21
ATOM     21  C   UNL     1      -2.294  -0.185   0.000  0.00  0.00    +0.000 C 
BRANCH  21  23
ATOM     22  N   UNL     1      -3.667  -0.581   0.000  0.00  0.00    +0.000 NA
ATOM     23  C   UNL     1      -3.095   0.013   0.000  0.00  0.00    +0.000 C 
ATOM     24  O   UNL     1      -3.324   0.806   0.000  0.00  0.00    +0.000 OA
BRANCH  22  25
ATOM     25  C   UNL     1      -4.468  -0.383   0.000  0.00  0.00    +0.000 C 
BRANCH  25  26
ATOM     26  C   UNL     1      -5.040  -0.978   0.000  0.00  0.00    +0.000 C 
ATOM     27  O   UNL     1      -4.811  -1.770   0.000  0.00  0.00    +0.000 OA
BRANCH  26  29
ATOM     28  O   UNL     1      -6.413  -1.374   0.000  0.00  0.00    +0.000 OA
ATOM     29  C   UNL     1      -5.841  -0.779   0.000  0.00  0.00    +0.000 C 
ENDBRANCH  26  29
ENDBRANCH  25  26
ENDBRANCH  22  25
ENDBRANCH  21  23
ENDBRANCH  20  21
ENDBRANCH  16  20
ENDBRANCH   1  16
BRANCH   4  30
ATOM     30  C   UNL     1       1.895   0.266   0.000  0.00  0.00    +0.000 C 
BRANCH  30  31
ATOM     31  C   UNL     1       2.688   0.494   0.000  0.00  0.00    +0.000 C 
ATOM     32  O   UNL     1       2.886   1.295   0.000  0.00  0.00    +0.000 OA
ATOM     33  O   UNL     1       3.282  -0.078   0.000  0.00  0.00    +0.000 OA
ENDBRANCH  30  31
BRANCH  30  34
ATOM     34  C   UNL     1       1.697  -0.535   0.000  0.00  0.00    +0.000 C 
BRANCH  34  35
ATOM     35  C   UNL     1       2.291  -1.107   0.000  0.00  0.00    +0.000 C 
BRANCH  35  36
ATOM     36  C   UNL     1       2.093  -1.908   0.000  0.00  0.00    +0.000 C 
ATOM     37  O   UNL     1       1.301  -2.137   0.000  0.00  0.00    +0.000 OA
ATOM     38  N   UNL     1       2.688  -2.480   0.000  0.00  0.00    +0.000 NA
BRANCH  38  39
ATOM     39  C   UNL     1       2.490  -3.281   0.000  0.00  0.00    +0.000 C 
BRANCH  39  40
ATOM     40  C   UNL     1       3.084  -3.853   0.000  0.00  0.00    +0.000 C 
ATOM     41  O   UNL     1       3.877  -3.624   0.000  0.00  0.00    +0.000 OA
BRANCH  40  42
ATOM     42  C   UNL     1       2.886  -4.654   0.000  0.00  0.00    +0.000 C 
ATOM     43  O   UNL     1       3.480  -5.226   0.000  0.00  0.00    +0.000 OA
ENDBRANCH  40  42
ENDBRANCH  39  40
ENDBRANCH  38  39
ENDBRANCH  35  36
ENDBRANCH  34  35
ENDBRANCH  30  34
ENDBRANCH   4  30
BRANCH  12  44
ATOM     44  C   UNL     1      -0.975   3.028   0.000  0.00  0.00    +0.000 C 
BRANCH  44  45
ATOM     45  C   UNL     1      -0.777   3.829   0.000  0.00  0.00    +0.000 C 
ATOM     46  O   UNL     1       0.015   4.057   0.000  0.00  0.00    +0.000 OA
ATOM     47  O   UNL     1      -1.372   4.401   0.000  0.00  0.00    +0.000 OA
ENDBRANCH  44  45
BRANCH  44  48
ATOM     48  C   UNL     1      -1.768   2.799   0.000  0.00  0.00    +0.000 C 
BRANCH  48  49
ATOM     49  C   UNL     1      -2.362   3.371   0.000  0.00  0.00    +0.000 C 
BRANCH  49  50
ATOM     50  C   UNL     1      -3.155   3.142   0.000  0.00  0.00    +0.000 C 
ATOM     51  O   UNL     1      -3.353   2.341   0.000  0.00  0.00    +0.000 OA
ATOM     52  N   UNL     1      -3.749   3.714   0.000  0.00  0.00    +0.000 NA
BRANCH  52  53
ATOM     53  C   UNL     1      -4.542   3.485   0.000  0.00  0.00    +0.000 C 
BRANCH  53  54
ATOM     54  C   UNL     1      -5.137   4.057   0.000  0.00  0.00    +0.000 C 
ATOM     55  O   UNL     1      -5.929   3.829   0.000  0.00  0.00    +0.000 OA
BRANCH  54  56
ATOM     56  C   UNL     1      -4.939   4.858   0.000  0.00  0.00    +0.000 C 
ATOM     57  O   UNL     1      -5.533   5.430   0.000  0.00  0.00    +0.000 OA
ENDBRANCH  54  56
ENDBRANCH  53  54
ENDBRANCH  52  53
ENDBRANCH  49  50
ENDBRANCH  48  49
ENDBRANCH  44  48
ENDBRANCH  12  44
TORSDOF 24
