REMARK  Name = 
REMARK  6 active torsions:
REMARK  status: ('A' for Active; 'I' for Inactive)
REMARK    1  A    between atoms: C_7  and  C_17
REMARK    2  A    between atoms: C_8  and  C_10
REMARK    3  A    between atoms: C_17  and  O_19
REMARK    4  A    between atoms: N_21  and  C_22
REMARK    5  A    between atoms: C_22  and  C_23
REMARK    6  A    between atoms: C_23  and  C_24
REMARK                            x       y       z     vdW  Elec       q    Type
REMARK                         _______ _______ _______ _____ _____    ______ ____
ROOT
ATOM      1  C   UNL     1       1.276   0.836   0.000  0.00  0.00    +0.000 C 
ATOM      2  C   UNL     1       0.631   0.322   0.000  0.00  0.00    +0.000 C 
ATOM      3  C   UNL     1       0.631  -0.503   0.000  0.00  0.00    +0.000 C 
ATOM      4  C   UNL     1       1.276  -1.017   0.000  0.00  0.00    +0.000 C 
ATOM      5  C   UNL     1       2.080  -0.834   0.000  0.00  0.00    +0.000 C 
ATOM      6  C   UNL     1       2.438  -0.090   0.000  0.00  0.00    +0.000 C 
ATOM      7  C   UNL     1       2.080   0.653   0.000  0.00  0.00    +0.000 C 
ATOM      8  N   UNL     1       1.044  -0.090   0.000  0.00  0.00    +0.000 NA
ENDROOT
BRANCH   6   9
ATOM      9  C   UNL     1       3.263  -0.090   0.000  0.00  0.00    +0.000 A 
ATOM     10  C   UNL     1       3.675   0.624   0.000  0.00  0.00    +0.000 A 
ATOM     11  C   UNL     1       4.500   0.624   0.000  0.00  0.00    +0.000 A 
ATOM     12  C   UNL     1       4.913  -0.090   0.000  0.00  0.00    +0.000 A 
ATOM     13  I   UNL     1       5.738  -0.090   0.000  0.00  0.00    +0.000 I 
ATOM     14  C   UNL     1       4.500  -0.805   0.000  0.00  0.00    +0.000 A 
ATOM     15  C   UNL     1       3.675  -0.805   0.000  0.00  0.00    +0.000 A 
ENDBRANCH   6   9
BRANCH   5  16
ATOM     16  C   UNL     1       2.594  -1.479   0.000  0.00  0.00    +0.000 C 
ATOM     17  O   UNL     1       3.410  -1.356   0.000  0.00  0.00    +0.000 OA
BRANCH  16  18
ATOM     18  O   UNL     1       2.293  -2.247   0.000  0.00  0.00    +0.000 OA
ATOM     19  C   UNL     1       1.477  -2.370   0.000  0.00  0.00    +0.000 C 
ENDBRANCH  16  18
ENDBRANCH   5  16
BRANCH   8  20
ATOM     20  C   UNL     1       0.219  -0.090   0.000  0.00  0.00    +0.000 C 
BRANCH  20  21
ATOM     21  C   UNL     1      -0.194   0.624   0.000  0.00  0.00    +0.000 C 
BRANCH  21  22
ATOM     22  C   UNL     1       0.219   1.339   0.000  0.00  0.00    +0.000 C 
ATOM     23  F   UNL     1      -0.194   2.053   0.000  0.00  0.00    +0.000 F 
ENDBRANCH  21  22
ENDBRANCH  20  21
ENDBRANCH   8  20
TORSDOF 6
