REMARK  Name = 
REMARK  4 active torsions:
REMARK  status: ('A' for Active; 'I' for Inactive)
REMARK    1  A    between atoms: C_11  and  C_16
REMARK    2  A    between atoms: C_15  and  C_18
REMARK    3  A    between atoms: C_16  and  C_17
REMARK    4  A    between atoms: C_17  and  C_19
REMARK                            x       y       z     vdW  Elec       q    Type
REMARK                         _______ _______ _______ _____ _____    ______ ____
ROOT
ATOM      1  F   UNL     1      -2.501   0.523   0.000  0.00  0.00    +0.000 F 
ATOM      2  O   UNL     1      -0.357   0.111   0.000  0.00  0.00    +0.000 OA
ATOM      3  O   UNL     1      -1.072  -1.952   0.000  0.00  0.00    +0.000 OA
ATOM      4  O   UNL     1      -2.501  -1.127   0.000  0.00  0.00    +0.000 OA
ATOM      5  O   UNL     1      -1.484   1.238   0.000  0.00  0.00    +0.000 OA
ATOM      6  C   UNL     1      -0.357  -0.715   0.000  0.00  0.00    +0.000 C 
ATOM      7  C   UNL     1      -1.072  -1.127   0.000  0.00  0.00    +0.000 C 
ATOM      8  C   UNL     1      -1.786  -0.715   0.000  0.00  0.00    +0.000 C 
ATOM      9  C   UNL     1      -1.786   0.111   0.000  0.00  0.00    +0.000 C 
ATOM     10  C   UNL     1      -1.072   0.523   0.000  0.00  0.00    +0.000 C 
ENDROOT
BRANCH  10  13
ATOM     11  O   UNL     1       0.166   1.238   0.000  0.00  0.00    +0.000 OA
ATOM     12  O   UNL     1      -1.072   1.952   0.000  0.00  0.00    +0.000 OA
ATOM     13  C   UNL     1      -0.659   1.238   0.000  0.00  0.00    +0.000 C 
ENDBRANCH  10  13
BRANCH   6  15
ATOM     14  O   UNL     1       0.357  -1.952   0.000  0.00  0.00    +0.000 OA
ATOM     15  C   UNL     1       0.357  -1.127   0.000  0.00  0.00    +0.000 C 
BRANCH  15  17
ATOM     16  O   UNL     1       1.072   0.111   0.000  0.00  0.00    +0.000 OA
ATOM     17  C   UNL     1       1.072  -0.715   0.000  0.00  0.00    +0.000 C 
BRANCH  17  19
ATOM     18  O   UNL     1       2.501  -0.715   0.000  0.00  0.00    +0.000 OA
ATOM     19  C   UNL     1       1.786  -1.127   0.000  0.00  0.00    +0.000 C 
ENDBRANCH  17  19
ENDBRANCH  15  17
ENDBRANCH   6  15
TORSDOF 4
