REMARK  Name = 
REMARK  2 active torsions:
REMARK  status: ('A' for Active; 'I' for Inactive)
REMARK    1  A    between atoms: P_11  and  O_14
REMARK    2  A    between atoms: O_14  and  P_15
REMARK                            x       y       z     vdW  Elec       q    Type
REMARK                         _______ _______ _______ _____ _____    ______ ____
ROOT
ATOM      1 PT   UNL     1      -1.572  -1.320   0.000  0.00  0.00    +0.000 Pt
ENDROOT
TORSDOF 0
REMARK  Name = 
REMARK  2 active torsions:
REMARK  status: ('A' for Active; 'I' for Inactive)
REMARK    1  A    between atoms: P_11  and  O_14
REMARK    2  A    between atoms: O_14  and  P_15
REMARK                            x       y       z     vdW  Elec       q    Type
REMARK                         _______ _______ _______ _____ _____    ______ ____
ROOT
ATOM      1  N   UNL     1       5.183   1.341   0.000  0.00  0.00    +0.000 NA
ATOM      2  C   UNL     1       5.183   0.516   0.000  0.00  0.00    +0.000 C 
ATOM      3  C   UNL     1       5.897   0.103   0.000  0.00  0.00    +0.000 C 
ATOM      4  C   UNL     1       5.897  -0.722   0.000  0.00  0.00    +0.000 C 
ATOM      5  C   UNL     1       5.183  -1.134   0.000  0.00  0.00    +0.000 C 
ATOM      6  C   UNL     1       4.468  -0.722   0.000  0.00  0.00    +0.000 C 
ATOM      7  C   UNL     1       4.468   0.103   0.000  0.00  0.00    +0.000 C 
ATOM      8  N   UNL     1       3.754   0.516   0.000  0.00  0.00    +0.000 NA
ENDROOT
TORSDOF 0
REMARK  Name = 
REMARK  2 active torsions:
REMARK  status: ('A' for Active; 'I' for Inactive)
REMARK    1  A    between atoms: P_11  and  O_14
REMARK    2  A    between atoms: O_14  and  P_15
REMARK                            x       y       z     vdW  Elec       q    Type
REMARK                         _______ _______ _______ _____ _____    ______ ____
ROOT
ATOM      1  O   UNL     1       0.572  -0.083   0.000  0.00  0.00    +0.000 OA
ENDROOT
BRANCH   1   3
ATOM      2  O   UNL     1      -0.555   0.220   0.000  0.00  0.00    +0.000 OA
ATOM      3  P   UNL     1      -0.143  -0.495   0.000  0.00  0.00    +0.000 P 
ATOM      4  O   UNL     1      -0.857  -0.907   0.000  0.00  0.00    +0.000 OA
ATOM      5  O   UNL     1       0.270  -1.210   0.000  0.00  0.00    +0.000 OA
ENDBRANCH   1   3
BRANCH   1   6
ATOM      6  P   UNL     1       0.572   0.743   0.000  0.00  0.00    +0.000 P 
ATOM      7  O   UNL     1       0.572   1.567   0.000  0.00  0.00    +0.000 OA
ATOM      8  O   UNL     1       1.397   0.743   0.000  0.00  0.00    +0.000 OA
ATOM      9  O   UNL     1      -0.253   0.743   0.000  0.00  0.00    +0.000 OA
ENDBRANCH   1   6
TORSDOF 2
