REMARK  Name = 
REMARK  4 active torsions:
REMARK  status: ('A' for Active; 'I' for Inactive)
REMARK    1  A    between atoms: C_1  and  O_2
REMARK    2  A    between atoms: O_2  and  P_5
REMARK    3  A    between atoms: P_5  and  O_6
REMARK    4  A    between atoms: O_6  and  C_8
REMARK                            x       y       z     vdW  Elec       q    Type
REMARK                         _______ _______ _______ _____ _____    ______ ____
ROOT
ATOM      1  P   UNL     1       0.000  -0.018   0.000  0.00  0.00    +0.000 P 
ATOM      2  O   UNL     1       0.000   0.818   0.000  0.00  0.00    +0.000 OA
ATOM      3  C   UNL     1      -0.013  -0.818   0.000  0.00  0.00    +0.000 C 
ENDROOT
BRANCH   1   4
ATOM      4  O   UNL     1      -0.715  -0.419   0.000  0.00  0.00    +0.000 OA
BRANCH   4   5
ATOM      5  C   UNL     1      -1.429  -0.007   0.000  0.00  0.00    +0.000 C 
ATOM      6  C   UNL     1      -2.144  -0.419   0.000  0.00  0.00    +0.000 C 
ATOM      7  C   UNL     1      -1.429   0.818   0.000  0.00  0.00    +0.000 C 
ENDBRANCH   4   5
ENDBRANCH   1   4
BRANCH   1   8
ATOM      8  O   UNL     1       0.714  -0.419   0.000  0.00  0.00    +0.000 OA
BRANCH   8   9
ATOM      9  C   UNL     1       1.429  -0.007   0.000  0.00  0.00    +0.000 C 
ATOM     10  C   UNL     1       1.429   0.818   0.000  0.00  0.00    +0.000 C 
ATOM     11  C   UNL     1       2.144  -0.419   0.000  0.00  0.00    +0.000 C 
ENDBRANCH   8   9
ENDBRANCH   1   8
TORSDOF 4
