REMARK  Name = 
REMARK  5 active torsions:
REMARK  status: ('A' for Active; 'I' for Inactive)
REMARK    1  A    between atoms: C_2  and  CA_5
REMARK    2  A    between atoms: CA_5  and  C_6
REMARK    3  A    between atoms: CA_5  and  N_8
REMARK    4  A    between atoms: C_9  and  C_11
REMARK    5  A    between atoms: N_13  and  C_20
REMARK                            x       y       z     vdW  Elec       q    Type
REMARK                         _______ _______ _______ _____ _____    ______ ____
ROOT
ATOM      1  C   UNL     1       3.450   0.297   0.000  0.00  0.00    +0.000 A 
ATOM      2  N   UNL     1       3.747   1.066   0.000  0.00  0.00    +0.000 NA
ATOM      3  N   UNL     1       3.108   1.587   0.000  0.00  0.00    +0.000 N 
ATOM      4  C   UNL     1       2.414   1.139   0.000  0.00  0.00    +0.000 A 
ATOM      5  C   UNL     1       2.626   0.342   0.000  0.00  0.00    +0.000 A 
ATOM      6  C   UNL     1       1.933  -0.105   0.000  0.00  0.00    +0.000 C 
ATOM      7  C   UNL     1       1.293   0.416   0.000  0.00  0.00    +0.000 C 
ATOM      8  C   UNL     1       0.775   1.058   0.000  0.00  0.00    +0.000 C 
ATOM      9  C   UNL     1       1.591   1.185   0.000  0.00  0.00    +0.000 C 
ENDROOT
BRANCH   3  10
ATOM     10  C   UNL     1       3.153   2.411   0.000  0.00  0.00    +0.000 A 
ATOM     11  C   UNL     1       2.462   2.862   0.000  0.00  0.00    +0.000 A 
ATOM     12  N   UNL     1       2.508   3.686   0.000  0.00  0.00    +0.000 N 
ATOM     13  O   UNL     1       1.817   4.137   0.000  0.00  0.00    +0.000 OA
ATOM     14  C   UNL     1       3.244   4.058   0.000  0.00  0.00    +0.000 A 
ATOM     15  C   UNL     1       3.935   3.607   0.000  0.00  0.00    +0.000 A 
ATOM     16  N   UNL     1       3.889   2.783   0.000  0.00  0.00    +0.000 NA
ENDBRANCH   3  10
BRANCH   1  18
ATOM     17  N   UNL     1       3.520  -1.131   0.000  0.00  0.00    +0.000 NA
ATOM     18  C   UNL     1       3.897  -0.397   0.000  0.00  0.00    +0.000 C 
ATOM     19  O   UNL     1       4.721  -0.356   0.000  0.00  0.00    +0.000 OA
BRANCH  17  20
ATOM     20  CA  UNL     1       3.968  -1.824   0.000  0.00  0.00    +0.000 C 
BRANCH  20  22
ATOM     21  C   UNL     1       3.215  -3.292   0.000  0.00  0.00    +0.000 C 
ATOM     22  C   UNL     1       3.591  -2.558   0.000  0.00  0.00    +0.000 C 
ATOM     23  C   UNL     1       4.325  -2.934   0.000  0.00  0.00    +0.000 C 
ATOM     24  C   UNL     1       2.857  -2.181   0.000  0.00  0.00    +0.000 C 
ENDBRANCH  20  22
BRANCH  20  25
ATOM     25  C   UNL     1       4.792  -1.783   0.000  0.00  0.00    +0.000 C 
ATOM     26  O   UNL     1       5.168  -1.049   0.000  0.00  0.00    +0.000 OA
ENDBRANCH  20  25
ENDBRANCH  17  20
ENDBRANCH   1  18
TORSDOF 5
