REMARK  Name = 
REMARK  5 active torsions:
REMARK  status: ('A' for Active; 'I' for Inactive)
REMARK    1  A    between atoms: C_2  and  C_4
REMARK    2  A    between atoms: N_17  and  C_18
REMARK    3  A    between atoms: C_21  and  N_24
REMARK    4  A    between atoms: N_33  and  C_34
REMARK    5  A    between atoms: C_34  and  C_35
REMARK                            x       y       z     vdW  Elec       q    Type
REMARK                         _______ _______ _______ _____ _____    ______ ____
ROOT
ATOM      1  C   UNL     1      -0.101  -3.548   0.000  0.00  0.00    +0.000 A 
ATOM      2  C   UNL     1      -0.908  -3.719   0.000  0.00  0.00    +0.000 A 
ATOM      3  C   UNL     1      -1.460  -3.106   0.000  0.00  0.00    +0.000 A 
ATOM      4  C   UNL     1      -1.205  -2.321   0.000  0.00  0.00    +0.000 A 
ATOM      5  C   UNL     1      -0.398  -2.150   0.000  0.00  0.00    +0.000 A 
ATOM      6  N   UNL     1       0.154  -2.763   0.000  0.00  0.00    +0.000 NA
ATOM      7  N   UNL     1      -0.143  -1.365   0.000  0.00  0.00    +0.000 N 
ATOM      8  C   UNL     1       0.641  -1.110   0.000  0.00  0.00    +0.000 A 
ATOM      9  C   UNL     1       0.641  -0.285   0.000  0.00  0.00    +0.000 A 
ATOM     10  C   UNL     1       1.356   0.127   0.000  0.00  0.00    +0.000 A 
ATOM     11  N   UNL     1       2.070  -0.285   0.000  0.00  0.00    +0.000 NA
ATOM     12  C   UNL     1       2.070  -1.110   0.000  0.00  0.00    +0.000 A 
ATOM     13  N   UNL     1       1.356  -1.523   0.000  0.00  0.00    +0.000 NA
ATOM     14  N   UNL     1       2.784  -1.523   0.000  0.00  0.00    +0.000 NA
ATOM     15  C   UNL     1      -0.143  -0.030   0.000  0.00  0.00    +0.000 A 
ATOM     16  O   UNL     1      -0.398   0.754   0.000  0.00  0.00    +0.000 OA
ATOM     17  N   UNL     1      -0.628  -0.698   0.000  0.00  0.00    +0.000 N 
ENDROOT
BRANCH  14  18
ATOM     18  C   UNL     1       2.784  -2.348   0.000  0.00  0.00    +0.000 A 
ATOM     19  C   UNL     1       3.499  -2.760   0.000  0.00  0.00    +0.000 A 
ATOM     20  C   UNL     1       3.499  -3.585   0.000  0.00  0.00    +0.000 A 
ATOM     21  C   UNL     1       2.784  -3.998   0.000  0.00  0.00    +0.000 A 
ATOM     22  C   UNL     1       2.070  -3.585   0.000  0.00  0.00    +0.000 A 
ATOM     23  C   UNL     1       2.070  -2.760   0.000  0.00  0.00    +0.000 A 
BRANCH  21  24
ATOM     24  N   UNL     1       2.784  -4.823   0.000  0.00  0.00    +0.000 N 
ATOM     25  C   UNL     1       3.499  -5.235   0.000  0.00  0.00    +0.000 C 
ATOM     26  C   UNL     1       3.499  -6.060   0.000  0.00  0.00    +0.000 C 
ATOM     27  N   UNL     1       2.784  -6.473   0.000  0.00  0.00    +0.000 NA
ATOM     28  C   UNL     1       2.070  -6.060   0.000  0.00  0.00    +0.000 C 
ATOM     29  C   UNL     1       2.070  -5.235   0.000  0.00  0.00    +0.000 C 
ATOM     30  C   UNL     1       2.784  -7.298   0.000  0.00  0.00    +0.000 C 
ENDBRANCH  21  24
ENDBRANCH  14  18
BRANCH   1  32
ATOM     31  C   UNL     1       1.003  -4.774   0.000  0.00  0.00    +0.000 C 
ATOM     32  C   UNL     1       0.451  -4.161   0.000  0.00  0.00    +0.000 C 
ATOM     33  C   UNL     1       1.064  -3.609   0.000  0.00  0.00    +0.000 C 
ATOM     34  O   UNL     1      -0.162  -4.713   0.000  0.00  0.00    +0.000 OA
ENDBRANCH   1  32
BRANCH  17  35
ATOM     35  C   UNL     1      -1.453  -0.698   0.000  0.00  0.00    +0.000 C 
BRANCH  35  36
ATOM     36  C   UNL     1      -1.866  -1.412   0.000  0.00  0.00    +0.000 C 
ATOM     37  C   UNL     1      -2.691  -1.412   0.000  0.00  0.00    +0.000 C 
ENDBRANCH  35  36
ENDBRANCH  17  35
TORSDOF 5
