REMARK  Name = 
REMARK  3 active torsions:
REMARK  status: ('A' for Active; 'I' for Inactive)
REMARK    1  A    between atoms: C_10  and  C_11
REMARK    2  A    between atoms: C_11  and  C_12
REMARK    3  A    between atoms: C_12  and  N_13
REMARK                            x       y       z     vdW  Elec       q    Type
REMARK                         _______ _______ _______ _____ _____    ______ ____
ROOT
ATOM      1  C   UNL     1       1.613   1.869   0.000  0.00  0.00    +0.000 C 
ATOM      2  C   UNL     1       2.143   1.238   0.000  0.00  0.00    +0.000 C 
ATOM      3  C   UNL     1       2.858   0.825   0.000  0.00  0.00    +0.000 A 
ATOM      4  C   UNL     1       3.572   1.238   0.000  0.00  0.00    +0.000 A 
ATOM      5  C   UNL     1       4.287   0.825   0.000  0.00  0.00    +0.000 A 
ATOM      6  C   UNL     1       4.287   0.000   0.000  0.00  0.00    +0.000 A 
ATOM      7  C   UNL     1       3.572  -0.412   0.000  0.00  0.00    +0.000 A 
ATOM      8  C   UNL     1       2.858   0.000   0.000  0.00  0.00    +0.000 A 
ATOM      9  C   UNL     1       2.143  -0.412   0.000  0.00  0.00    +0.000 C 
ATOM     10  C   UNL     1       2.143  -1.238   0.000  0.00  0.00    +0.000 C 
ATOM     11  C   UNL     1       1.429   0.000   0.000  0.00  0.00    +0.000 A 
ATOM     12  C   UNL     1       0.715  -0.412   0.000  0.00  0.00    +0.000 A 
ATOM     13  C   UNL     1       0.000   0.000   0.000  0.00  0.00    +0.000 A 
ATOM     14  C   UNL     1       0.000   0.825   0.000  0.00  0.00    +0.000 A 
ATOM     15  C   UNL     1       0.715   1.238   0.000  0.00  0.00    +0.000 A 
ATOM     16  C   UNL     1       1.429   0.825   0.000  0.00  0.00    +0.000 A 
ATOM     17  C   UNL     1       2.674   1.869   0.000  0.00  0.00    +0.000 C 
ENDROOT
BRANCH  10  18
ATOM     18  C   UNL     1       2.858  -1.650   0.000  0.00  0.00    +0.000 C 
BRANCH  18  19
ATOM     19  C   UNL     1       3.572  -1.238   0.000  0.00  0.00    +0.000 C 
BRANCH  19  20
ATOM     20  N   UNL     1       4.287  -1.650   0.000  0.00  0.00    +0.000 NA
ATOM     21  C   UNL     1       5.001  -1.238   0.000  0.00  0.00    +0.000 C 
ATOM     22  C   UNL     1       4.287  -2.475   0.000  0.00  0.00    +0.000 C 
ENDBRANCH  19  20
ENDBRANCH  18  19
ENDBRANCH  10  18
TORSDOF 3
