REMARK  Name = 
REMARK  10 active torsions:
REMARK  status: ('A' for Active; 'I' for Inactive)
REMARK    1  A    between atoms: C_4  and  C_28
REMARK    2  A    between atoms: N_6  and  C_30
REMARK    3  A    between atoms: C_8  and  C_41
REMARK    4  A    between atoms: C_11  and  O_13
REMARK    5  A    between atoms: O_13  and  C_14
REMARK    6  A    between atoms: C_17  and  C_20
REMARK    7  A    between atoms: C_20  and  N_21
REMARK    8  A    between atoms: C_28  and  C_29
REMARK    9  A    between atoms: C_30  and  C_31
REMARK   10  A    between atoms: C_31  and  C_32
REMARK                            x       y       z     vdW  Elec       q    Type
REMARK                         _______ _______ _______ _____ _____    ______ ____
ROOT
ATOM      1  C   UNL     1       1.863  -0.715   0.000  0.00  0.00    +0.000 C 
ATOM      2  C   UNL     1       2.271  -1.427   0.000  0.00  0.00    +0.000 C 
ATOM      3  N   UNL     1       3.088  -1.429   0.000  0.00  0.00    +0.000 NA
ATOM      4  C   UNL     1       3.502  -0.721   0.000  0.00  0.00    +0.000 C 
ATOM      5  C   UNL     1       3.094  -0.008   0.000  0.00  0.00    +0.000 C 
ATOM      6  N   UNL     1       2.271  -0.004   0.000  0.00  0.00    +0.000 N 
ATOM      7  N   UNL     1       0.216  -0.711   0.000  0.00  0.00    +0.000 NA
ATOM      8  C   UNL     1       0.627  -1.427   0.000  0.00  0.00    +0.000 C 
ATOM      9  C   UNL     1       1.448  -1.430   0.000  0.00  0.00    +0.000 C 
ATOM     10  C   UNL     1       1.454  -0.000   0.000  0.00  0.00    +0.000 C 
ATOM     11  C   UNL     1       0.626   0.004   0.000  0.00  0.00    +0.000 C 
ATOM     12  O   UNL     1       1.857  -2.140   0.000  0.00  0.00    +0.000 OA
ATOM     13  O   UNL     1       3.509   0.705   0.000  0.00  0.00    +0.000 OA
ENDROOT
BRANCH   4  14
ATOM     14  C   UNL     1       4.327  -0.724   0.000  0.00  0.00    +0.000 C 
ATOM     15  O   UNL     1       4.743  -0.011   0.000  0.00  0.00    +0.000 OA
BRANCH  14  16
ATOM     16  C   UNL     1       4.737  -1.440   0.000  0.00  0.00    +0.000 C 
ATOM     17  C   UNL     1       4.319  -2.150   0.000  0.00  0.00    +0.000 C 
ATOM     18  C   UNL     1       4.725  -2.864   0.000  0.00  0.00    +0.000 C 
ATOM     19  C   UNL     1       5.550  -2.872   0.000  0.00  0.00    +0.000 C 
ATOM     20  C   UNL     1       5.968  -2.159   0.000  0.00  0.00    +0.000 C 
ATOM     21  C   UNL     1       5.560  -1.439   0.000  0.00  0.00    +0.000 C 
ENDBRANCH  14  16
ENDBRANCH   4  14
BRANCH   7  22
ATOM     22  C   UNL     1      -0.609  -0.711   0.000  0.00  0.00    +0.000 C 
BRANCH  22  26
ATOM     23  C   UNL     1      -1.842   1.431   0.000  0.00  0.00    +0.000 A 
ATOM     24  C   UNL     1      -2.258   0.721   0.000  0.00  0.00    +0.000 A 
ATOM     25  C   UNL     1      -1.847   0.006   0.000  0.00  0.00    +0.000 A 
ATOM     26  C   UNL     1      -1.021   0.004   0.000  0.00  0.00    +0.000 A 
ATOM     27  C   UNL     1      -0.608   0.723   0.000  0.00  0.00    +0.000 A 
ATOM     28  C   UNL     1      -1.021   1.435   0.000  0.00  0.00    +0.000 A 
BRANCH  23  29
ATOM     29  O   UNL     1      -2.253   2.146   0.000  0.00  0.00    +0.000 OA
BRANCH  29  34
ATOM     30  C   UNL     1      -4.307   2.861   0.000  0.00  0.00    +0.000 A 
ATOM     31  C   UNL     1      -4.723   2.151   0.000  0.00  0.00    +0.000 A 
ATOM     32  C   UNL     1      -4.317   1.438   0.000  0.00  0.00    +0.000 A 
ATOM     33  C   UNL     1      -3.493   1.433   0.000  0.00  0.00    +0.000 A 
ATOM     34  C   UNL     1      -3.079   2.148   0.000  0.00  0.00    +0.000 A 
ATOM     35  C   UNL     1      -3.488   2.858   0.000  0.00  0.00    +0.000 A 
BRANCH  31  36
ATOM     36  C   UNL     1      -5.551   2.155   0.000  0.00  0.00    +0.000 C 
ATOM     37  O   UNL     1      -5.959   2.872   0.000  0.00  0.00    +0.000 OA
ATOM     38  O   UNL     1      -5.968   1.443   0.000  0.00  0.00    +0.000 OA
ENDBRANCH  31  36
ENDBRANCH  29  34
ENDBRANCH  23  29
ENDBRANCH  22  26
ENDBRANCH   7  22
BRANCH   6  39
ATOM     39  C   UNL     1       1.859   0.711   0.000  0.00  0.00    +0.000 C 
BRANCH  39  40
ATOM     40  C   UNL     1       2.272   1.425   0.000  0.00  0.00    +0.000 C 
BRANCH  40  41
ATOM     41  C   UNL     1       1.861   2.140   0.000  0.00  0.00    +0.000 C 
ATOM     42  C   UNL     1       2.274   2.854   0.000  0.00  0.00    +0.000 C 
ENDBRANCH  40  41
ENDBRANCH  39  40
ENDBRANCH   6  39
TORSDOF 10
