REMARK  Name = 
REMARK  21 active torsions:
REMARK  status: ('A' for Active; 'I' for Inactive)
REMARK    1  A    between atoms: C_2  and  C_3
REMARK    2  A    between atoms: C_3  and  S_5
REMARK    3  A    between atoms: S_5  and  C_6
REMARK    4  A    between atoms: C_6  and  C_7
REMARK    5  A    between atoms: C_7  and  N_8
REMARK    6  A    between atoms: C_9  and  C_11
REMARK    7  A    between atoms: C_11  and  C_12
REMARK    8  A    between atoms: C_12  and  N_13
REMARK    9  A    between atoms: C_14  and  C_16
REMARK   10  A    between atoms: C_16  and  C_18
REMARK   11  A    between atoms: C_18  and  C_21
REMARK   12  A    between atoms: C_21  and  O_22
REMARK   13  A    between atoms: O_22  and  P_23
REMARK   14  A    between atoms: P_23  and  O_26
REMARK   15  A    between atoms: O_26  and  P_27
REMARK   16  A    between atoms: P_27  and  O_30
REMARK   17  A    between atoms: O_30  and  C_31
REMARK   18  A    between atoms: C_31  and  C_32
REMARK   19  A    between atoms: C_34  and  N_43
REMARK   20  A    between atoms: C_37  and  O_38
REMARK   21  A    between atoms: O_38  and  P_39
REMARK                            x       y       z     vdW  Elec       q    Type
REMARK                         _______ _______ _______ _____ _____    ______ ____
ROOT
ATOM      1  O   UNL     1       2.292   0.816   0.000  0.00  0.00    +0.000 OA
ENDROOT
BRANCH   1   2
ATOM      2  P   UNL     1       3.006   0.403   0.000  0.00  0.00    +0.000 P 
ATOM      3  O   UNL     1       2.594  -0.311   0.000  0.00  0.00    +0.000 OA
ATOM      4  O   UNL     1       3.419   1.118   0.000  0.00  0.00    +0.000 OA
BRANCH   2   5
ATOM      5  O   UNL     1       3.721  -0.009   0.000  0.00  0.00    +0.000 OA
BRANCH   5   6
ATOM      6  C   UNL     1       4.435   0.403   0.000  0.00  0.00    +0.000 C 
BRANCH   6   7
ATOM      7  C   UNL     1       5.150  -0.009   0.000  0.00  0.00    +0.000 C 
ATOM      8  O   UNL     1       5.903   0.326   0.000  0.00  0.00    +0.000 OA
ATOM      9  C   UNL     1       6.455  -0.287   0.000  0.00  0.00    +0.000 C 
ATOM     10  C   UNL     1       6.043  -1.001   0.000  0.00  0.00    +0.000 C 
ATOM     11  O   UNL     1       6.378  -1.755   0.000  0.00  0.00    +0.000 OA
ATOM     12  C   UNL     1       5.236  -0.830   0.000  0.00  0.00    +0.000 C 
BRANCH   9  13
ATOM     13  N   UNL     1       7.276  -0.201   0.000  0.00  0.00    +0.000 N 
ATOM     14  C   UNL     1       7.828  -0.814   0.000  0.00  0.00    +0.000 A 
ATOM     15  N   UNL     1       8.582  -0.478   0.000  0.00  0.00    +0.000 NA
ATOM     16  C   UNL     1       8.495   0.342   0.000  0.00  0.00    +0.000 A 
ATOM     17  C   UNL     1       7.688   0.514   0.000  0.00  0.00    +0.000 A 
ATOM     18  N   UNL     1       7.433   1.298   0.000  0.00  0.00    +0.000 NA
ATOM     19  C   UNL     1       7.985   1.911   0.000  0.00  0.00    +0.000 A 
ATOM     20  N   UNL     1       8.792   1.740   0.000  0.00  0.00    +0.000 NA
ATOM     21  C   UNL     1       9.047   0.955   0.000  0.00  0.00    +0.000 A 
ATOM     22  N   UNL     1       9.854   0.784   0.000  0.00  0.00    +0.000 NA
ENDBRANCH   9  13
BRANCH  12  23
ATOM     23  O   UNL     1       4.623  -1.382   0.000  0.00  0.00    +0.000 OA
BRANCH  23  24
ATOM     24  P   UNL     1       3.838  -1.127   0.000  0.00  0.00    +0.000 P 
ATOM     25  O   UNL     1       4.093  -0.342   0.000  0.00  0.00    +0.000 OA
ATOM     26  O   UNL     1       3.583  -1.911   0.000  0.00  0.00    +0.000 OA
ATOM     27  O   UNL     1       3.054  -0.872   0.000  0.00  0.00    +0.000 OA
ENDBRANCH  23  24
ENDBRANCH  12  23
ENDBRANCH   6   7
ENDBRANCH   5   6
ENDBRANCH   2   5
ENDBRANCH   1   2
BRANCH   1  28
ATOM     28  P   UNL     1       1.577   0.403   0.000  0.00  0.00    +0.000 P 
ATOM     29  O   UNL     1       1.990  -0.311   0.000  0.00  0.00    +0.000 OA
ATOM     30  O   UNL     1       1.165   1.118   0.000  0.00  0.00    +0.000 OA
BRANCH  28  31
ATOM     31  O   UNL     1       0.863  -0.009   0.000  0.00  0.00    +0.000 OA
BRANCH  31  32
ATOM     32  C   UNL     1       0.148   0.403   0.000  0.00  0.00    +0.000 C 
BRANCH  32  33
ATOM     33  C   UNL     1      -0.566  -0.009   0.000  0.00  0.00    +0.000 C 
ATOM     34  C   UNL     1      -0.154  -0.724   0.000  0.00  0.00    +0.000 C 
ATOM     35  C   UNL     1      -0.979   0.705   0.000  0.00  0.00    +0.000 C 
BRANCH  33  36
ATOM     36  C   UNL     1      -1.281  -0.422   0.000  0.00  0.00    +0.000 C 
ATOM     37  O   UNL     1      -1.281  -1.247   0.000  0.00  0.00    +0.000 OA
BRANCH  36  39
ATOM     38  N   UNL     1      -2.709  -0.422   0.000  0.00  0.00    +0.000 NA
ATOM     39  C   UNL     1      -1.995  -0.009   0.000  0.00  0.00    +0.000 C 
ATOM     40  O   UNL     1      -1.995   0.816   0.000  0.00  0.00    +0.000 OA
BRANCH  38  41
ATOM     41  C   UNL     1      -3.424  -0.009   0.000  0.00  0.00    +0.000 C 
BRANCH  41  42
ATOM     42  C   UNL     1      -4.138  -0.422   0.000  0.00  0.00    +0.000 C 
BRANCH  42  44
ATOM     43  N   UNL     1      -5.567  -0.422   0.000  0.00  0.00    +0.000 NA
ATOM     44  C   UNL     1      -4.853  -0.009   0.000  0.00  0.00    +0.000 C 
ATOM     45  O   UNL     1      -4.853   0.816   0.000  0.00  0.00    +0.000 OA
BRANCH  43  46
ATOM     46  C   UNL     1      -6.282  -0.009   0.000  0.00  0.00    +0.000 C 
BRANCH  46  47
ATOM     47  C   UNL     1      -6.996  -0.422   0.000  0.00  0.00    +0.000 C 
BRANCH  47  48
ATOM     48  S   UNL     1      -7.711  -0.009   0.000  0.00  0.00    +0.000 S 
BRANCH  48  49
ATOM     49  C   UNL     1      -8.425  -0.422   0.000  0.00  0.00    +0.000 C 
ATOM     50  O   UNL     1      -8.425  -1.247   0.000  0.00  0.00    +0.000 OA
BRANCH  49  52
ATOM     51  C   UNL     1      -9.854  -0.422   0.000  0.00  0.00    +0.000 C 
ATOM     52  C   UNL     1      -9.140  -0.009   0.000  0.00  0.00    +0.000 C 
ENDBRANCH  49  52
ENDBRANCH  48  49
ENDBRANCH  47  48
ENDBRANCH  46  47
ENDBRANCH  43  46
ENDBRANCH  42  44
ENDBRANCH  41  42
ENDBRANCH  38  41
ENDBRANCH  36  39
ENDBRANCH  33  36
ENDBRANCH  32  33
ENDBRANCH  31  32
ENDBRANCH  28  31
ENDBRANCH   1  28
TORSDOF 21
