REMARK  Name = 
REMARK  4 active torsions:
REMARK  status: ('A' for Active; 'I' for Inactive)
REMARK    1  A    between atoms: C_14  and  O_21
REMARK    2  A    between atoms: C_15  and  C_16
REMARK    3  A    between atoms: C_16  and  O_17
REMARK    4  A    between atoms: O_17  and  C_18
REMARK                            x       y       z     vdW  Elec       q    Type
REMARK                         _______ _______ _______ _____ _____    ______ ____
ROOT
ATOM      1  C   UNL     1      -0.502  -0.703   0.000  0.00  0.00    +0.000 C 
ATOM      2  C   UNL     1       0.106  -0.145   0.000  0.00  0.00    +0.000 C 
ATOM      3  C   UNL     1      -0.072   0.660   0.000  0.00  0.00    +0.000 C 
ATOM      4  C   UNL     1       0.536   1.218   0.000  0.00  0.00    +0.000 C 
ATOM      5  O   UNL     1       0.357   2.023   0.000  0.00  0.00    +0.000 OA
ATOM      6  C   UNL     1       1.323   0.970   0.000  0.00  0.00    +0.000 C 
ATOM      7  C   UNL     1       1.501   0.165   0.000  0.00  0.00    +0.000 C 
ATOM      8  C   UNL     1       0.893  -0.393   0.000  0.00  0.00    +0.000 C 
ATOM      9  O   UNL     1       1.072  -1.198   0.000  0.00  0.00    +0.000 OA
ATOM     10  N   UNL     1       2.323   0.086   0.000  0.00  0.00    +0.000 N 
ATOM     11  C   UNL     1       2.941  -0.461   0.000  0.00  0.00    +0.000 C 
ATOM     12  C   UNL     1       3.651  -0.042   0.000  0.00  0.00    +0.000 C 
ATOM     13  C   UNL     1       3.473   0.764   0.000  0.00  0.00    +0.000 C 
ATOM     14  C   UNL     1       2.651   0.842   0.000  0.00  0.00    +0.000 C 
ATOM     15  C   UNL     1       2.033   1.389   0.000  0.00  0.00    +0.000 C 
ATOM     16  N   UNL     1       4.259   0.516   0.000  0.00  0.00    +0.000 NA
ATOM     17  C   UNL     1       5.065   0.695   0.000  0.00  0.00    +0.000 C 
ATOM     18  N   UNL     1      -0.859   0.908   0.000  0.00  0.00    +0.000 NA
ENDROOT
BRANCH  14  19
ATOM     19  O   UNL     1       2.980   1.599   0.000  0.00  0.00    +0.000 OA
ATOM     20  C   UNL     1       3.800   1.693   0.000  0.00  0.00    +0.000 C 
ENDBRANCH  14  19
BRANCH  15  21
ATOM     21  C   UNL     1       2.112   2.210   0.000  0.00  0.00    +0.000 C 
BRANCH  21  22
ATOM     22  O   UNL     1       1.440   2.689   0.000  0.00  0.00    +0.000 OA
BRANCH  22  23
ATOM     23  C   UNL     1       1.519   3.510   0.000  0.00  0.00    +0.000 C 
ATOM     24  O   UNL     1       0.848   3.989   0.000  0.00  0.00    +0.000 OA
ATOM     25  N   UNL     1       2.270   3.853   0.000  0.00  0.00    +0.000 NA
ENDBRANCH  22  23
ENDBRANCH  21  22
ENDBRANCH  15  21
TORSDOF 4
