REMARK  Name = 
REMARK  8 active torsions:
REMARK  status: ('A' for Active; 'I' for Inactive)
REMARK    1  A    between atoms: C_1  and  N_2
REMARK    2  A    between atoms: C_7  and  C_26
REMARK    3  A    between atoms: O_14  and  P_22
REMARK    4  A    between atoms: O_14  and  P_23
REMARK    5  A    between atoms: O_15  and  P_23
REMARK    6  A    between atoms: O_15  and  P_24
REMARK    7  A    between atoms: P_24  and  O_25
REMARK    8  A    between atoms: O_25  and  C_26
REMARK                            x       y       z     vdW  Elec       q    Type
REMARK                         _______ _______ _______ _____ _____    ______ ____
ROOT
ATOM      1  C   UNL     1       2.276  -0.170   0.000  0.00  0.00    +0.000 C 
ATOM      2  O   UNL     1       1.609  -0.654   0.000  0.00  0.00    +0.000 OA
ATOM      3  C   UNL     1       2.943  -0.654   0.000  0.00  0.00    +0.000 C 
ATOM      4  C   UNL     1       1.863  -1.439   0.000  0.00  0.00    +0.000 C 
ATOM      5  C   UNL     1       2.688  -1.439   0.000  0.00  0.00    +0.000 C 
ATOM      6  O   UNL     1       3.173  -2.106   0.000  0.00  0.00    +0.000 OA
ENDROOT
BRANCH   1   7
ATOM      7  N   UNL     1       2.276   0.655   0.000  0.00  0.00    +0.000 N 
ATOM      8  C   UNL     1       2.990   1.068   0.000  0.00  0.00    +0.000 A 
ATOM      9  C   UNL     1       1.562   1.068   0.000  0.00  0.00    +0.000 A 
ATOM     10  N   UNL     1       2.990   1.893   0.000  0.00  0.00    +0.000 NA
ATOM     11  O   UNL     1       3.705   0.655   0.000  0.00  0.00    +0.000 OA
ATOM     12  C   UNL     1       2.276   2.305   0.000  0.00  0.00    +0.000 A 
ATOM     13  O   UNL     1       2.276   3.130   0.000  0.00  0.00    +0.000 OA
ATOM     14  C   UNL     1       1.562   1.893   0.000  0.00  0.00    +0.000 A 
ATOM     15  C   UNL     1       0.847   2.305   0.000  0.00  0.00    +0.000 C 
ENDBRANCH   1   7
BRANCH   4  16
ATOM     16  C   UNL     1       1.379  -2.106   0.000  0.00  0.00    +0.000 C 
BRANCH  16  17
ATOM     17  O   UNL     1       0.582  -1.893   0.000  0.00  0.00    +0.000 OA
BRANCH  17  20
ATOM     18  O   UNL     1      -0.133  -3.130   0.000  0.00  0.00    +0.000 OA
ATOM     19  O   UNL     1      -0.133  -1.480   0.000  0.00  0.00    +0.000 OA
ATOM     20  P   UNL     1      -0.133  -2.305   0.000  0.00  0.00    +0.000 P 
BRANCH  20  21
ATOM     21  O   UNL     1      -0.847  -1.893   0.000  0.00  0.00    +0.000 OA
BRANCH  21  24
ATOM     22  O   UNL     1      -1.562  -3.130   0.000  0.00  0.00    +0.000 OA
ATOM     23  O   UNL     1      -1.562  -1.480   0.000  0.00  0.00    +0.000 OA
ATOM     24  P   UNL     1      -1.562  -2.305   0.000  0.00  0.00    +0.000 P 
BRANCH  24  25
ATOM     25  O   UNL     1      -2.276  -1.893   0.000  0.00  0.00    +0.000 OA
BRANCH  25  29
ATOM     26  O   UNL     1      -3.705  -1.893   0.000  0.00  0.00    +0.000 OA
ATOM     27  O   UNL     1      -2.991  -3.130   0.000  0.00  0.00    +0.000 OA
ATOM     28  O   UNL     1      -2.991  -1.480   0.000  0.00  0.00    +0.000 OA
ATOM     29  P   UNL     1      -2.991  -2.305   0.000  0.00  0.00    +0.000 P 
ENDBRANCH  25  29
ENDBRANCH  24  25
ENDBRANCH  21  24
ENDBRANCH  20  21
ENDBRANCH  17  20
ENDBRANCH  16  17
ENDBRANCH   4  16
TORSDOF 8
