REMARK  Name = 
REMARK  3 active torsions:
REMARK  status: ('A' for Active; 'I' for Inactive)
REMARK    1  A    between atoms: C_3  and  C_4
REMARK    2  A    between atoms: C_3  and  C_7
REMARK    3  A    between atoms: C_4  and  C_5
REMARK                            x       y       z     vdW  Elec       q    Type
REMARK                         _______ _______ _______ _____ _____    ______ ____
ROOT
ATOM      1  C   UNL     1      -0.357   0.412   0.000  0.00  0.00    +0.000 C 
ENDROOT
BRANCH   1   2
ATOM      2  C   UNL     1      -0.357  -0.412   0.000  0.00  0.00    +0.000 A 
ATOM      3  C   UNL     1      -1.072  -0.825   0.000  0.00  0.00    +0.000 A 
ATOM      4  C   UNL     1       0.357  -0.825   0.000  0.00  0.00    +0.000 A 
ATOM      5  C   UNL     1      -1.072  -1.650   0.000  0.00  0.00    +0.000 A 
ATOM      6  C   UNL     1       0.357  -1.650   0.000  0.00  0.00    +0.000 A 
ATOM      7  C   UNL     1      -0.357  -2.063   0.000  0.00  0.00    +0.000 A 
ENDBRANCH   1   2
BRANCH   1   8
ATOM      8  C   UNL     1       0.357   0.825   0.000  0.00  0.00    +0.000 C 
ATOM      9  C   UNL     1       1.072   0.412   0.000  0.00  0.00    +0.000 C 
BRANCH   8  12
ATOM     10  O   UNL     1       1.072   2.063   0.000  0.00  0.00    +0.000 OA
ATOM     11  O   UNL     1      -0.357   2.063   0.000  0.00  0.00    +0.000 OA
ATOM     12  C   UNL     1       0.357   1.650   0.000  0.00  0.00    +0.000 C 
ENDBRANCH   8  12
ENDBRANCH   1   8
TORSDOF 3
