REMARK  Name = 
REMARK  6 active torsions:
REMARK  status: ('A' for Active; 'I' for Inactive)
REMARK    1  A    between atoms: C_6  and  O_7
REMARK    2  A    between atoms: O_7  and  C_8
REMARK    3  A    between atoms: C_8  and  C_9
REMARK    4  A    between atoms: C_9  and  C_10
REMARK    5  A    between atoms: C_10  and  O_12
REMARK    6  A    between atoms: O_12  and  C_14
REMARK                            x       y       z     vdW  Elec       q    Type
REMARK                         _______ _______ _______ _____ _____    ______ ____
ROOT
ATOM      1  O   UNL     1      -0.710   0.414   0.000  0.00  0.00    +0.000 OA
ENDROOT
BRANCH   1   7
ATOM      2  C   UNL     1      -1.424  -0.824   0.000  0.00  0.00    +0.000 A 
ATOM      3  C   UNL     1      -2.138  -1.236   0.000  0.00  0.00    +0.000 A 
ATOM      4  C   UNL     1      -2.853  -0.823   0.000  0.00  0.00    +0.000 A 
ATOM      5  C   UNL     1      -2.853   0.002   0.000  0.00  0.00    +0.000 A 
ATOM      6  C   UNL     1      -2.139   0.415   0.000  0.00  0.00    +0.000 A 
ATOM      7  C   UNL     1      -1.424   0.002   0.000  0.00  0.00    +0.000 A 
ATOM      8 CL   UNL     1      -3.567  -1.236   0.000  0.00  0.00    +0.000 Cl
ENDBRANCH   1   7
BRANCH   1   9
ATOM      9  C   UNL     1       0.000  -0.002   0.000  0.00  0.00    +0.000 C 
BRANCH   9  10
ATOM     10  C   UNL     1       0.715   0.411   0.000  0.00  0.00    +0.000 C 
ATOM     11  O   UNL     1       0.714   1.236   0.000  0.00  0.00    +0.000 OA
BRANCH  10  12
ATOM     12  C   UNL     1       1.423   0.008   0.000  0.00  0.00    +0.000 C 
BRANCH  12  13
ATOM     13  O   UNL     1       2.138   0.420   0.000  0.00  0.00    +0.000 OA
BRANCH  13  14
ATOM     14  C   UNL     1       2.853   0.007   0.000  0.00  0.00    +0.000 C 
ATOM     15  O   UNL     1       2.853  -0.818   0.000  0.00  0.00    +0.000 OA
ATOM     16  N   UNL     1       3.567   0.420   0.000  0.00  0.00    +0.000 NA
ENDBRANCH  13  14
ENDBRANCH  12  13
ENDBRANCH  10  12
ENDBRANCH   9  10
ENDBRANCH   1   9
TORSDOF 6
