REMARK  Name = 
REMARK  2 active torsions:
REMARK  status: ('A' for Active; 'I' for Inactive)
REMARK    1  A    between atoms: C_1  and  C_9
REMARK    2  A    between atoms: C_4  and  C_10
REMARK                            x       y       z     vdW  Elec       q    Type
REMARK                         _______ _______ _______ _____ _____    ______ ____
ROOT
ATOM      1  C   UNL     1      -0.714   0.408   0.000  0.00  0.00    +0.000 A 
ATOM      2  C   UNL     1       0.000   0.821   0.000  0.00  0.00    +0.000 A 
ATOM      3  C   UNL     1      -0.714  -0.408   0.000  0.00  0.00    +0.000 A 
ATOM      4  C   UNL     1       0.714   0.408   0.000  0.00  0.00    +0.000 A 
ATOM      5  O   UNL     1       0.000   1.648   0.000  0.00  0.00    +0.000 OA
ATOM      6  C   UNL     1       0.000  -0.821   0.000  0.00  0.00    +0.000 A 
ATOM      7  C   UNL     1       0.714  -0.408   0.000  0.00  0.00    +0.000 A 
ATOM      8  C   UNL     1       0.000  -1.648   0.000  0.00  0.00    +0.000 C 
ENDROOT
BRANCH   1   9
ATOM      9  C   UNL     1      -1.427   0.821   0.000  0.00  0.00    +0.000 C 
ATOM     10  C   UNL     1      -1.079   1.572   0.000  0.00  0.00    +0.000 C 
ATOM     11  C   UNL     1      -2.145   1.234   0.000  0.00  0.00    +0.000 C 
ATOM     12  C   UNL     1      -1.907   0.143   0.000  0.00  0.00    +0.000 C 
ENDBRANCH   1   9
BRANCH   4  13
ATOM     13  C   UNL     1       1.427   0.821   0.000  0.00  0.00    +0.000 C 
ATOM     14  C   UNL     1       1.079   1.572   0.000  0.00  0.00    +0.000 C 
ATOM     15  C   UNL     1       1.907   0.143   0.000  0.00  0.00    +0.000 C 
ATOM     16  C   UNL     1       2.145   1.234   0.000  0.00  0.00    +0.000 C 
ENDBRANCH   4  13
TORSDOF 2
