REMARK  Name = 
REMARK  6 active torsions:
REMARK  status: ('A' for Active; 'I' for Inactive)
REMARK    1  A    between atoms: C_1  and  C_2
REMARK    2  A    between atoms: C_1  and  S_4
REMARK    3  A    between atoms: S_4  and  N_5
REMARK    4  A    between atoms: N_5  and  C_10
REMARK    5  A    between atoms: C_6  and  C_21
REMARK    6  A    between atoms: C_20  and  C_21
REMARK                            x       y       z     vdW  Elec       q    Type
REMARK                         _______ _______ _______ _____ _____    ______ ____
ROOT
ATOM      1  C   UNL     1       1.017  -0.490   0.000  0.00  0.00    +0.000 A 
ATOM      2  C   UNL     1       1.429  -1.204   0.000  0.00  0.00    +0.000 A 
ATOM      3  C   UNL     1       2.254  -1.204   0.000  0.00  0.00    +0.000 A 
ATOM      4  C   UNL     1       2.667  -0.490   0.000  0.00  0.00    +0.000 A 
ATOM      5  C   UNL     1       2.254   0.224   0.000  0.00  0.00    +0.000 A 
ATOM      6  C   UNL     1       1.429   0.224   0.000  0.00  0.00    +0.000 A 
ATOM      7  F   UNL     1       1.017   0.939   0.000  0.00  0.00    +0.000 F 
ATOM      8  F   UNL     1       1.017  -1.919   0.000  0.00  0.00    +0.000 F 
ENDROOT
BRANCH   1   9
ATOM      9  C   UNL     1       0.192  -0.490   0.000  0.00  0.00    +0.000 C 
ATOM     10  O   UNL     1      -0.221   0.224   0.000  0.00  0.00    +0.000 OA
BRANCH   9  19
ATOM     11  N   UNL     1      -2.096  -2.182   0.000  0.00  0.00    +0.000 NA
ATOM     12  C   UNL     1      -2.655  -1.576   0.000  0.00  0.00    +0.000 A 
ATOM     13  C   UNL     1      -1.291  -2.001   0.000  0.00  0.00    +0.000 A 
ATOM     14  C   UNL     1      -1.045  -1.214   0.000  0.00  0.00    +0.000 A 
ATOM     15  C   UNL     1      -2.409  -0.788   0.000  0.00  0.00    +0.000 A 
ATOM     16  C   UNL     1      -1.605  -0.607   0.000  0.00  0.00    +0.000 A 
ATOM     17  N   UNL     1      -0.618  -2.478   0.000  0.00  0.00    +0.000 NA
ATOM     18  C   UNL     1       0.043  -1.986   0.000  0.00  0.00    +0.000 A 
ATOM     19  C   UNL     1      -0.221  -1.204   0.000  0.00  0.00    +0.000 A 
ATOM     20 CL   UNL     1      -2.969  -0.181   0.000  0.00  0.00    +0.000 Cl
ENDBRANCH   9  19
ENDBRANCH   1   9
BRANCH   5  21
ATOM     21  N   UNL     1       2.667   0.939   0.000  0.00  0.00    +0.000 NA
BRANCH  21  22
ATOM     22  S   UNL     1       2.254   1.653   0.000  0.00  0.00    +0.000 S 
ATOM     23  O   UNL     1       2.969   2.066   0.000  0.00  0.00    +0.000 OA
ATOM     24  O   UNL     1       2.254   2.478   0.000  0.00  0.00    +0.000 OA
BRANCH  22  25
ATOM     25  C   UNL     1       1.429   1.653   0.000  0.00  0.00    +0.000 C 
BRANCH  25  26
ATOM     26  C   UNL     1       1.017   2.368   0.000  0.00  0.00    +0.000 C 
ATOM     27  C   UNL     1       0.192   2.368   0.000  0.00  0.00    +0.000 C 
ENDBRANCH  25  26
ENDBRANCH  22  25
ENDBRANCH  21  22
ENDBRANCH   5  21
TORSDOF 6
