REMARK  Name = 
REMARK  2 active torsions:
REMARK  status: ('A' for Active; 'I' for Inactive)
REMARK    1  A    between atoms: C_2  and  O_23
REMARK    2  A    between atoms: O_23  and  S_24
REMARK                            x       y       z     vdW  Elec       q    Type
REMARK                         _______ _______ _______ _____ _____    ______ ____
ROOT
ATOM      1  C   UNL     1      -1.654   0.303   0.000  0.00  0.00    +0.000 A 
ATOM      2  C   UNL     1      -1.655  -0.517   0.000  0.00  0.00    +0.000 A 
ATOM      3  C   UNL     1      -0.946  -0.926   0.000  0.00  0.00    +0.000 A 
ATOM      4  C   UNL     1      -0.948   0.712   0.000  0.00  0.00    +0.000 A 
ATOM      5  C   UNL     1      -0.239   0.307   0.000  0.00  0.00    +0.000 A 
ATOM      6  C   UNL     1      -0.240  -0.519   0.000  0.00  0.00    +0.000 A 
ATOM      7  C   UNL     1       0.470  -0.931   0.000  0.00  0.00    +0.000 C 
ATOM      8  C   UNL     1       1.187  -0.521   0.000  0.00  0.00    +0.000 C 
ATOM      9  C   UNL     1       0.473   0.721   0.000  0.00  0.00    +0.000 C 
ATOM     10  C   UNL     1       1.188   0.301   0.000  0.00  0.00    +0.000 C 
ATOM     11  C   UNL     1       1.198   1.956   0.000  0.00  0.00    +0.000 C 
ATOM     12  C   UNL     1       0.475   1.548   0.000  0.00  0.00    +0.000 C 
ATOM     13  C   UNL     1       1.913   1.537   0.000  0.00  0.00    +0.000 C 
ATOM     14  C   UNL     1       1.905   0.710   0.000  0.00  0.00    +0.000 C 
ATOM     15  C   UNL     1       2.688   0.446   0.000  0.00  0.00    +0.000 C 
ATOM     16  C   UNL     1       3.182   1.110   0.000  0.00  0.00    +0.000 C 
ATOM     17  C   UNL     1       2.703   1.784   0.000  0.00  0.00    +0.000 C 
ATOM     18  O   UNL     1       2.964   2.559   0.000  0.00  0.00    +0.000 OA
ATOM     19  C   UNL     1       1.908   2.356   0.000  0.00  0.00    +0.000 C 
ENDROOT
BRANCH   2  20
ATOM     20  O   UNL     1      -2.363  -0.925   0.000  0.00  0.00    +0.000 OA
BRANCH  20  21
ATOM     21  S   UNL     1      -2.364  -1.743   0.000  0.00  0.00    +0.000 S 
ATOM     22  N   UNL     1      -2.371  -2.559   0.000  0.00  0.00    +0.000 NA
ATOM     23  O   UNL     1      -1.546  -1.747   0.000  0.00  0.00    +0.000 OA
ATOM     24  O   UNL     1      -3.182  -1.741   0.000  0.00  0.00    +0.000 OA
ENDBRANCH  20  21
ENDBRANCH   2  20
TORSDOF 2
