REMARK  Name = 
REMARK  2 active torsions:
REMARK  status: ('A' for Active; 'I' for Inactive)
REMARK    1  A    between atoms: C_2  and  C_19
REMARK    2  A    between atoms: C_19  and  O_20
REMARK                            x       y       z     vdW  Elec       q    Type
REMARK                         _______ _______ _______ _____ _____    ______ ____
ROOT
ATOM      1  C   UNL     1       3.215   1.475   0.000  0.00  0.00    +0.000 C 
ATOM      2  C   UNL     1       3.973   1.149   0.000  0.00  0.00    +0.000 C 
ATOM      3  C   UNL     1       4.796   1.102   0.000  0.00  0.00    +0.000 C 
ATOM      4  C   UNL     1       5.167   0.365   0.000  0.00  0.00    +0.000 C 
ATOM      5  C   UNL     1       4.715  -0.324   0.000  0.00  0.00    +0.000 C 
ATOM      6  N   UNL     1       3.891  -0.277   0.000  0.00  0.00    +0.000 NA
ATOM      7  C   UNL     1       3.520   0.460   0.000  0.00  0.00    +0.000 C 
ATOM      8  C   UNL     1       2.696   0.507   0.000  0.00  0.00    +0.000 A 
ATOM      9  C   UNL     1       2.244  -0.183   0.000  0.00  0.00    +0.000 A 
ATOM     10  C   UNL     1       1.448   0.034   0.000  0.00  0.00    +0.000 A 
ATOM     11  C   UNL     1       0.754  -0.412   0.000  0.00  0.00    +0.000 A 
ATOM     12  C   UNL     1       0.020  -0.034   0.000  0.00  0.00    +0.000 A 
ATOM     13  C   UNL     1      -0.019   0.791   0.000  0.00  0.00    +0.000 A 
ATOM     14  C   UNL     1       0.675   1.237   0.000  0.00  0.00    +0.000 A 
ATOM     15  C   UNL     1       1.409   0.859   0.000  0.00  0.00    +0.000 A 
ATOM     16  O   UNL     1       2.180   1.150   0.000  0.00  0.00    +0.000 OA
ATOM     17  C   UNL     1       2.615  -0.920   0.000  0.00  0.00    +0.000 C 
ATOM     18  C   UNL     1       3.438  -0.967   0.000  0.00  0.00    +0.000 C 
ENDROOT
BRANCH   2  19
ATOM     19  C   UNL     1       4.162   1.952   0.000  0.00  0.00    +0.000 C 
BRANCH  19  20
ATOM     20  O   UNL     1       4.952   2.190   0.000  0.00  0.00    +0.000 OA
ATOM     21  C   UNL     1       5.142   2.993   0.000  0.00  0.00    +0.000 C 
ENDBRANCH  19  20
ENDBRANCH   2  19
TORSDOF 2
