REMARK  Name = 
REMARK  4 active torsions:
REMARK  status: ('A' for Active; 'I' for Inactive)
REMARK    1  A    between atoms: C_9  and  C_12
REMARK    2  A    between atoms: C_12  and  N_13
REMARK    3  A    between atoms: N_24  and  C_32
REMARK    4  A    between atoms: C_32  and  C_33
REMARK                            x       y       z     vdW  Elec       q    Type
REMARK                         _______ _______ _______ _____ _____    ______ ____
ROOT
ATOM      1  N   UNL     1      -0.454   0.412   0.000  0.00  0.00    +0.000 N 
ATOM      2  C   UNL     1      -0.454  -0.413   0.000  0.00  0.00    +0.000 A 
ATOM      3  N   UNL     1       0.289  -0.825   0.000  0.00  0.00    +0.000 N 
ATOM      4  C   UNL     1       0.990  -0.413   0.000  0.00  0.00    +0.000 A 
ATOM      5  C   UNL     1       0.990   0.412   0.000  0.00  0.00    +0.000 A 
ATOM      6  C   UNL     1       0.289   0.825   0.000  0.00  0.00    +0.000 A 
ATOM      7  O   UNL     1       0.289   1.651   0.000  0.00  0.00    +0.000 OA
ATOM      8  O   UNL     1      -1.155  -0.825   0.000  0.00  0.00    +0.000 OA
ATOM      9  C   UNL     1       0.289  -1.651   0.000  0.00  0.00    +0.000 C 
ATOM     10  N   UNL     1       1.774  -0.660   0.000  0.00  0.00    +0.000 NA
ATOM     11  C   UNL     1       2.270   0.000   0.000  0.00  0.00    +0.000 A 
ATOM     12  N   UNL     1       1.774   0.660   0.000  0.00  0.00    +0.000 N 
ATOM     13  N   UNL     1       3.095   0.000   0.000  0.00  0.00    +0.000 N 
ATOM     14  C   UNL     1       3.508  -0.701   0.000  0.00  0.00    +0.000 C 
ATOM     15  C   UNL     1       4.333  -0.701   0.000  0.00  0.00    +0.000 C 
ATOM     16  C   UNL     1       4.746   0.000   0.000  0.00  0.00    +0.000 C 
ATOM     17  C   UNL     1       4.333   0.701   0.000  0.00  0.00    +0.000 C 
ATOM     18  C   UNL     1       3.508   0.701   0.000  0.00  0.00    +0.000 C 
ATOM     19  N   UNL     1       4.746  -1.444   0.000  0.00  0.00    +0.000 NA
ENDROOT
BRANCH   1  20
ATOM     20  C   UNL     1      -1.155   0.825   0.000  0.00  0.00    +0.000 C 
BRANCH  20  29
ATOM     21  C   UNL     1      -4.746   0.412   0.000  0.00  0.00    +0.000 A 
ATOM     22  C   UNL     1      -4.746  -0.413   0.000  0.00  0.00    +0.000 A 
ATOM     23  C   UNL     1      -4.044  -0.825   0.000  0.00  0.00    +0.000 A 
ATOM     24  C   UNL     1      -3.260  -0.413   0.000  0.00  0.00    +0.000 A 
ATOM     25  C   UNL     1      -3.260   0.412   0.000  0.00  0.00    +0.000 A 
ATOM     26  C   UNL     1      -4.044   0.825   0.000  0.00  0.00    +0.000 A 
ATOM     27  C   UNL     1      -2.558  -0.825   0.000  0.00  0.00    +0.000 A 
ATOM     28  N   UNL     1      -1.857  -0.413   0.000  0.00  0.00    +0.000 NA
ATOM     29  C   UNL     1      -1.857   0.412   0.000  0.00  0.00    +0.000 A 
ATOM     30  N   UNL     1      -2.558   0.825   0.000  0.00  0.00    +0.000 NA
ATOM     31  C   UNL     1      -2.558  -1.651   0.000  0.00  0.00    +0.000 C 
ENDBRANCH  20  29
ENDBRANCH   1  20
BRANCH  12  32
ATOM     32  C   UNL     1       2.187   1.362   0.000  0.00  0.00    +0.000 C 
BRANCH  32  33
ATOM     33  C   UNL     1       3.012   1.362   0.000  0.00  0.00    +0.000 C 
ATOM     34  C   UNL     1       3.838   1.362   0.000  0.00  0.00    +0.000 C 
ATOM     35  C   UNL     1       4.663   1.362   0.000  0.00  0.00    +0.000 C 
ENDBRANCH  32  33
ENDBRANCH  12  32
TORSDOF 4
