REMARK  Name = 
REMARK  13 active torsions:
REMARK  status: ('A' for Active; 'I' for Inactive)
REMARK    1  A    between atoms: C_1  and  CA_2
REMARK    2  A    between atoms: C_3  and  C_4
REMARK    3  A    between atoms: C_4  and  N_5
REMARK    4  A    between atoms: N_5  and  C_10
REMARK    5  A    between atoms: C_10  and  C_11
REMARK    6  A    between atoms: C_11  and  N_12
REMARK    7  A    between atoms: C_13  and  C_14
REMARK    8  A    between atoms: CA_28  and  N_29
REMARK    9  A    between atoms: C_30  and  C_32
REMARK   10  A    between atoms: C_32  and  C_33
REMARK   11  A    between atoms: N_39  and  O_40
REMARK   12  A    between atoms: O_40  and  C_41
REMARK   13  A    between atoms: C_41  and  C_44
REMARK                            x       y       z     vdW  Elec       q    Type
REMARK                         _______ _______ _______ _____ _____    ______ ____
ROOT
ATOM      1  CA  UNL     1      -0.038  -0.172   0.000  0.00  0.00    +0.000 C 
ATOM      2  C   UNL     1       0.676   0.240   0.000  0.00  0.00    +0.000 C 
ATOM      3  C   UNL     1       0.676   1.065   0.000  0.00  0.00    +0.000 C 
ATOM      4  S   UNL     1      -0.038   1.478   0.000  0.00  0.00    +0.000 S 
ATOM      5  C   UNL     1      -0.753   1.065   0.000  0.00  0.00    +0.000 C 
ATOM      6  CA  UNL     1      -1.578   1.065   0.000  0.00  0.00    +0.000 C 
ATOM      7  C   UNL     1      -1.578   0.240   0.000  0.00  0.00    +0.000 C 
ATOM      8  O   UNL     1      -2.161  -0.343   0.000  0.00  0.00    +0.000 OA
ATOM      9  N   UNL     1      -0.753   0.240   0.000  0.00  0.00    +0.000 N 
ENDROOT
BRANCH   1  10
ATOM     10  C   UNL     1      -0.038  -0.997   0.000  0.00  0.00    +0.000 C 
ATOM     11  O   UNL     1       0.676  -1.410   0.000  0.00  0.00    +0.000 OA
ATOM     12  OXT UNL     1      -0.753  -1.410   0.000  0.00  0.00    +0.000 OA
ENDBRANCH   1  10
BRANCH   6  13
ATOM     13  N   UNL     1      -2.161   1.649   0.000  0.00  0.00    +0.000 NA
ATOM     14  C   UNL     1      -2.958   1.435   0.000  0.00  0.00    +0.000 C 
ATOM     15  O   UNL     1      -3.172   0.638   0.000  0.00  0.00    +0.000 OA
BRANCH  14  16
ATOM     16  C   UNL     1      -3.541   2.019   0.000  0.00  0.00    +0.000 C 
ATOM     17  N   UNL     1      -4.338   1.805   0.000  0.00  0.00    +0.000 NA
BRANCH  16  18
ATOM     18  C   UNL     1      -3.328   2.815   0.000  0.00  0.00    +0.000 A 
ATOM     19  N   UNL     1      -2.558   3.111   0.000  0.00  0.00    +0.000 NA
ATOM     20  C   UNL     1      -2.601   3.935   0.000  0.00  0.00    +0.000 A 
ATOM     21  N   UNL     1      -1.960   4.454   0.000  0.00  0.00    +0.000 NA
ATOM     22  S   UNL     1      -3.398   4.149   0.000  0.00  0.00    +0.000 S 
ATOM     23  C   UNL     1      -3.847   3.457   0.000  0.00  0.00    +0.000 A 
ENDBRANCH  16  18
BRANCH  17  24
ATOM     24  O   UNL     1      -4.552   1.008   0.000  0.00  0.00    +0.000 OA
BRANCH  24  25
ATOM     25  C   UNL     1      -5.349   0.794   0.000  0.00  0.00    +0.000 C 
ATOM     26  C   UNL     1      -5.135  -0.002   0.000  0.00  0.00    +0.000 C 
ATOM     27  C   UNL     1      -5.562   1.591   0.000  0.00  0.00    +0.000 C 
BRANCH  25  28
ATOM     28  C   UNL     1      -6.146   0.581   0.000  0.00  0.00    +0.000 C 
ATOM     29  O   UNL     1      -6.729   1.165   0.000  0.00  0.00    +0.000 OA
ATOM     30  O   UNL     1      -6.359  -0.216   0.000  0.00  0.00    +0.000 OA
ENDBRANCH  25  28
ENDBRANCH  24  25
ENDBRANCH  17  24
ENDBRANCH  14  16
ENDBRANCH   6  13
BRANCH   2  31
ATOM     31  C   UNL     1       1.391  -0.172   0.000  0.00  0.00    +0.000 C 
BRANCH  31  32
ATOM     32  N   UNL     1       2.105   0.240   0.000  0.00  0.00    +0.000 N 
ATOM     33  C   UNL     1       2.890   0.495   0.000  0.00  0.00    +0.000 C 
ATOM     34  C   UNL     1       2.890   1.320   0.000  0.00  0.00    +0.000 C 
ATOM     35  C   UNL     1       2.105   1.575   0.000  0.00  0.00    +0.000 C 
ATOM     36  C   UNL     1       1.620   0.908   0.000  0.00  0.00    +0.000 C 
BRANCH  32  37
ATOM     37  C   UNL     1       2.440  -0.513   0.000  0.00  0.00    +0.000 C 
BRANCH  37  38
ATOM     38  C   UNL     1       3.261  -0.600   0.000  0.00  0.00    +0.000 C 
BRANCH  38  39
ATOM     39  N   UNL     1       3.597  -1.353   0.000  0.00  0.00    +0.000 NA
ATOM     40  C   UNL     1       4.417  -1.440   0.000  0.00  0.00    +0.000 C 
ATOM     41  O   UNL     1       4.902  -0.772   0.000  0.00  0.00    +0.000 OA
BRANCH  40  42
ATOM     42  C   UNL     1       4.753  -2.193   0.000  0.00  0.00    +0.000 A 
ATOM     43  C   UNL     1       4.268  -2.861   0.000  0.00  0.00    +0.000 A 
ATOM     44  C   UNL     1       4.603  -3.614   0.000  0.00  0.00    +0.000 A 
ATOM     45  C   UNL     1       5.424  -3.700   0.000  0.00  0.00    +0.000 A 
ATOM     46  O   UNL     1       5.759  -4.454   0.000  0.00  0.00    +0.000 OA
ATOM     47  C   UNL     1       5.909  -3.033   0.000  0.00  0.00    +0.000 A 
ATOM     48  O   UNL     1       6.729  -3.119   0.000  0.00  0.00    +0.000 OA
ATOM     49  C   UNL     1       5.573  -2.279   0.000  0.00  0.00    +0.000 A 
ATOM     50 CL   UNL     1       6.058  -1.612   0.000  0.00  0.00    +0.000 Cl
ENDBRANCH  40  42
ENDBRANCH  38  39
ENDBRANCH  37  38
ENDBRANCH  32  37
ENDBRANCH  31  32
ENDBRANCH   2  31
TORSDOF 13
