REMARK  Name = 
REMARK  8 active torsions:
REMARK  status: ('A' for Active; 'I' for Inactive)
REMARK    1  A    between atoms: C_1  and  O_2
REMARK    2  A    between atoms: O_2  and  C_9
REMARK    3  A    between atoms: C_7  and  O_29
REMARK    4  A    between atoms: C_10  and  C_27
REMARK    5  A    between atoms: O_29  and  C_30
REMARK    6  A    between atoms: C_30  and  C_31
REMARK    7  A    between atoms: C_32  and  C_33
REMARK    8  A    between atoms: C_49  and  N_52
REMARK                            x       y       z     vdW  Elec       q    Type
REMARK                         _______ _______ _______ _____ _____    ______ ____
ROOT
ATOM      1  C   UNL     1      -2.012   1.078   0.000  0.00  0.00    +0.000 C 
ATOM      2  C   UNL     1      -0.613   1.062   0.000  0.00  0.00    +0.000 C 
ATOM      3  C   UNL     1      -1.292   1.484   0.000  0.00  0.00    +0.000 C 
ATOM      4  C   UNL     1      -2.021   0.255   0.000  0.00  0.00    +0.000 C 
ATOM      5  C   UNL     1      -0.599   0.239   0.000  0.00  0.00    +0.000 C 
ATOM      6  C   UNL     1       0.138  -1.001   0.000  0.00  0.00    +0.000 C 
ATOM      7  C   UNL     1       0.107  -0.179   0.000  0.00  0.00    +0.000 C 
ATOM      8  C   UNL     1      -2.036  -1.392   0.000  0.00  0.00    +0.000 C 
ATOM      9  O   UNL     1      -2.037  -2.212   0.000  0.00  0.00    +0.000 OA
ATOM     10  C   UNL     1      -1.326  -2.621   0.000  0.00  0.00    +0.000 C 
ATOM     11  C   UNL     1      -0.619  -2.214   0.000  0.00  0.00    +0.000 C 
ATOM     12  C   UNL     1      -0.618  -1.394   0.000  0.00  0.00    +0.000 C 
ATOM     13  O   UNL     1      -1.327  -3.445   0.000  0.00  0.00    +0.000 OA
ATOM     14  O   UNL     1      -2.666   1.555   0.000  0.00  0.00    +0.000 OA
ATOM     15  C   UNL     1      -2.803  -0.973   0.000  0.00  0.00    +0.000 C 
ATOM     16  C   UNL     1      -2.793  -0.150   0.000  0.00  0.00    +0.000 C 
ATOM     17  N   UNL     1      -3.601   0.113   0.000  0.00  0.00    +0.000 NA
ATOM     18  C   UNL     1      -4.095  -0.548   0.000  0.00  0.00    +0.000 C 
ATOM     19  O   UNL     1      -3.617  -1.217   0.000  0.00  0.00    +0.000 OA
ATOM     20  O   UNL     1      -4.918  -0.538   0.000  0.00  0.00    +0.000 OA
ATOM     21  O   UNL     1      -1.322  -0.971   0.000  0.00  0.00    +0.000 OA
ATOM     22  C   UNL     1      -1.282   2.308   0.000  0.00  0.00    +0.000 C 
ATOM     23  C   UNL     1      -2.784   0.763   0.000  0.00  0.00    +0.000 C 
ATOM     24  C   UNL     1      -3.102  -1.767   0.000  0.00  0.00    +0.000 C 
ATOM     25  C   UNL     1       0.222   0.377   0.000  0.00  0.00    +0.000 C 
ATOM     26  C   UNL     1       0.101  -2.631   0.000  0.00  0.00    +0.000 C 
ATOM     27  C   UNL     1       0.806  -1.428   0.000  0.00  0.00    +0.000 C 
ENDROOT
BRANCH   8  28
ATOM     28  C   UNL     1      -2.603  -1.881   0.000  0.00  0.00    +0.000 C 
ATOM     29  C   UNL     1      -2.579  -2.704   0.000  0.00  0.00    +0.000 C 
ENDBRANCH   8  28
BRANCH   7  30
ATOM     30  O   UNL     1       1.104  -0.116   0.000  0.00  0.00    +0.000 OA
BRANCH  30  31
ATOM     31  C   UNL     1       1.812  -0.538   0.000  0.00  0.00    +0.000 C 
ATOM     32  O   UNL     1       1.843  -1.375   0.000  0.00  0.00    +0.000 OA
ATOM     33  C   UNL     1       2.514  -1.801   0.000  0.00  0.00    +0.000 C 
ATOM     34  C   UNL     1       3.282  -1.396   0.000  0.00  0.00    +0.000 C 
ATOM     35  C   UNL     1       3.296  -0.560   0.000  0.00  0.00    +0.000 C 
ATOM     36  C   UNL     1       2.539  -0.134   0.000  0.00  0.00    +0.000 C 
ATOM     37  C   UNL     1       2.492  -2.622   0.000  0.00  0.00    +0.000 C 
ATOM     38  O   UNL     1       2.551   0.703   0.000  0.00  0.00    +0.000 OA
BRANCH  35  39
ATOM     39  N   UNL     1       3.989  -0.124   0.000  0.00  0.00    +0.000 NA
ATOM     40  C   UNL     1       4.706  -0.529   0.000  0.00  0.00    +0.000 C 
ATOM     41  C   UNL     1       3.981   0.704   0.000  0.00  0.00    +0.000 C 
ENDBRANCH  35  39
ENDBRANCH  30  31
ENDBRANCH   7  30
BRANCH   5  42
ATOM     42  O   UNL     1      -0.132   0.938   0.000  0.00  0.00    +0.000 OA
BRANCH  42  43
ATOM     43  C   UNL     1      -0.142   1.764   0.000  0.00  0.00    +0.000 C 
BRANCH  43  44
ATOM     44  C   UNL     1       0.567   2.186   0.000  0.00  0.00    +0.000 C 
ATOM     45  C   UNL     1       1.286   1.781   0.000  0.00  0.00    +0.000 C 
BRANCH  45  46
ATOM     46  C   UNL     1       1.994   2.203   0.000  0.00  0.00    +0.000 A 
ATOM     47  C   UNL     1       2.709   1.798   0.000  0.00  0.00    +0.000 A 
ATOM     48  C   UNL     1       1.969   3.026   0.000  0.00  0.00    +0.000 A 
ATOM     49  N   UNL     1       2.716   3.445   0.000  0.00  0.00    +0.000 NA
ATOM     50  C   UNL     1       3.392   3.043   0.000  0.00  0.00    +0.000 A 
ATOM     51  C   UNL     1       3.417   2.220   0.000  0.00  0.00    +0.000 A 
ATOM     52  C   UNL     1       4.129   1.789   0.000  0.00  0.00    +0.000 A 
ATOM     53  C   UNL     1       4.899   2.190   0.000  0.00  0.00    +0.000 A 
ATOM     54  C   UNL     1       4.918   3.013   0.000  0.00  0.00    +0.000 A 
ATOM     55  C   UNL     1       4.164   3.444   0.000  0.00  0.00    +0.000 A 
ENDBRANCH  45  46
ENDBRANCH  43  44
ENDBRANCH  42  43
ENDBRANCH   5  42
TORSDOF 8
