REMARK  Name = 
REMARK  8 active torsions:
REMARK  status: ('A' for Active; 'I' for Inactive)
REMARK    1  A    between atoms: C_2  and  N_10
REMARK    2  A    between atoms: C_8  and  C_20
REMARK    3  A    between atoms: N_13  and  C_16
REMARK    4  A    between atoms: C_16  and  C_17
REMARK    5  A    between atoms: C_17  and  C_18
REMARK    6  A    between atoms: C_18  and  C_19
REMARK    7  A    between atoms: C_19  and  C_23
REMARK    8  A    between atoms: C_29  and  C_32
REMARK                            x       y       z     vdW  Elec       q    Type
REMARK                         _______ _______ _______ _____ _____    ______ ____
ROOT
ATOM      1  N   UNL     1      -1.256  -2.224   0.000  0.00  0.00    +0.000 N 
ATOM      2  C   UNL     1      -1.961  -2.652   0.000  0.00  0.00    +0.000 C 
ATOM      3  C   UNL     1      -2.720  -2.245   0.000  0.00  0.00    +0.000 C 
ATOM      4  N   UNL     1      -2.732  -1.408   0.000  0.00  0.00    +0.000 NA
ATOM      5  C   UNL     1      -2.027  -0.980   0.000  0.00  0.00    +0.000 C 
ATOM      6  C   UNL     1      -1.268  -1.387   0.000  0.00  0.00    +0.000 C 
ENDROOT
BRANCH   1   8
ATOM      7  C   UNL     1      -0.527  -3.469   0.000  0.00  0.00    +0.000 A 
ATOM      8  C   UNL     1      -0.539  -2.632   0.000  0.00  0.00    +0.000 A 
ATOM      9  C   UNL     1       0.166  -2.204   0.000  0.00  0.00    +0.000 A 
ATOM     10  C   UNL     1       0.925  -2.611   0.000  0.00  0.00    +0.000 A 
ATOM     11  C   UNL     1       0.937  -3.448   0.000  0.00  0.00    +0.000 A 
ATOM     12  C   UNL     1       0.190  -3.877   0.000  0.00  0.00    +0.000 A 
ATOM     13  C   UNL     1       1.716  -2.349   0.000  0.00  0.00    +0.000 A 
ATOM     14  C   UNL     1       2.186  -3.012   0.000  0.00  0.00    +0.000 A 
ATOM     15  O   UNL     1       1.735  -3.687   0.000  0.00  0.00    +0.000 OA
BRANCH  14  16
ATOM     16  C   UNL     1       3.022  -3.000   0.000  0.00  0.00    +0.000 C 
ATOM     17  N   UNL     1       3.450  -3.705   0.000  0.00  0.00    +0.000 NA
ATOM     18  O   UNL     1       3.430  -2.283   0.000  0.00  0.00    +0.000 OA
ENDBRANCH  14  16
ENDBRANCH   1   8
BRANCH   4  19
ATOM     19  C   UNL     1      -3.450  -1.002   0.000  0.00  0.00    +0.000 C 
BRANCH  19  20
ATOM     20  C   UNL     1      -3.443  -0.179   0.000  0.00  0.00    +0.000 C 
BRANCH  20  21
ATOM     21  C   UNL     1      -2.725   0.217   0.000  0.00  0.00    +0.000 C 
BRANCH  21  22
ATOM     22  C   UNL     1      -2.009  -0.191   0.000  0.00  0.00    +0.000 C 
BRANCH  22  23
ATOM     23  C   UNL     1      -1.296   0.225   0.000  0.00  0.00    +0.000 A 
ATOM     24  C   UNL     1      -0.629  -0.260   0.000  0.00  0.00    +0.000 A 
ATOM     25  C   UNL     1      -1.041   1.009   0.000  0.00  0.00    +0.000 A 
ATOM     26  N   UNL     1       0.038   0.225   0.000  0.00  0.00    +0.000 NA
ATOM     27  C   UNL     1      -0.216   1.009   0.000  0.00  0.00    +0.000 A 
ATOM     28  C   UNL     1      -1.446   1.729   0.000  0.00  0.00    +0.000 A 
ATOM     29  C   UNL     1      -1.025   2.438   0.000  0.00  0.00    +0.000 A 
ATOM     30  C   UNL     1      -0.200   2.429   0.000  0.00  0.00    +0.000 A 
ATOM     31  C   UNL     1       0.204   1.710   0.000  0.00  0.00    +0.000 A 
BRANCH  29  32
ATOM     32  C   UNL     1      -1.429   3.157   0.000  0.00  0.00    +0.000 C 
ATOM     33  N   UNL     1      -1.834   3.877   0.000  0.00  0.00    +0.000 NA
ENDBRANCH  29  32
ENDBRANCH  22  23
ENDBRANCH  21  22
ENDBRANCH  20  21
ENDBRANCH  19  20
ENDBRANCH   4  19
TORSDOF 8
