REMARK  Name = 
REMARK  14 active torsions:
REMARK  status: ('A' for Active; 'I' for Inactive)
REMARK    1  A    between atoms: C_2  and  C_4
REMARK    2  A    between atoms: C_4  and  N_5
REMARK    3  A    between atoms: N_5  and  C_6
REMARK    4  A    between atoms: C_6  and  C_7
REMARK    5  A    between atoms: C_7  and  C_8
REMARK    6  A    between atoms: C_8  and  C_9
REMARK    7  A    between atoms: C_8  and  N_16
REMARK    8  A    between atoms: C_9  and  C_10
REMARK    9  A    between atoms: C_17  and  C_19
REMARK   10  A    between atoms: C_19  and  C_20
REMARK   11  A    between atoms: C_19  and  N_24
REMARK   12  A    between atoms: C_20  and  C_21
REMARK   13  A    between atoms: C_25  and  C_27
REMARK   14  A    between atoms: N_40  and  C_41
REMARK                            x       y       z     vdW  Elec       q    Type
REMARK                         _______ _______ _______ _____ _____    ______ ____
ROOT
ATOM      1  C   UNL     1      12.406  -3.968   0.000  0.00  0.00    +0.000 C 
ENDROOT
BRANCH   1   2
ATOM      2  N   UNL     1      13.030  -3.428   0.000  0.00  0.00    +0.000 NA
ATOM      3  C   UNL     1      13.809  -3.698   0.000  0.00  0.00    +0.000 C 
ATOM      4  O   UNL     1      13.965  -4.508   0.000  0.00  0.00    +0.000 OA
BRANCH   3   5
ATOM      5  C   UNL     1      14.433  -3.158   0.000  0.00  0.00    +0.000 C 
BRANCH   5   6
ATOM      6  N   UNL     1      15.213  -3.428   0.000  0.00  0.00    +0.000 NA
ATOM      7  C   UNL     1      15.836  -2.888   0.000  0.00  0.00    +0.000 C 
ATOM      8  O   UNL     1      15.680  -2.077   0.000  0.00  0.00    +0.000 OA
BRANCH   7   9
ATOM      9  C   UNL     1      16.616  -3.158   0.000  0.00  0.00    +0.000 A 
ATOM     10  C   UNL     1      17.240  -2.618   0.000  0.00  0.00    +0.000 A 
ATOM     11  C   UNL     1      18.019  -2.888   0.000  0.00  0.00    +0.000 A 
ATOM     12  C   UNL     1      18.175  -3.698   0.000  0.00  0.00    +0.000 A 
ATOM     13  C   UNL     1      18.955  -3.968   0.000  0.00  0.00    +0.000 A 
ATOM     14  C   UNL     1      19.110  -4.778   0.000  0.00  0.00    +0.000 A 
ATOM     15  C   UNL     1      18.487  -5.318   0.000  0.00  0.00    +0.000 A 
ATOM     16  C   UNL     1      17.707  -5.048   0.000  0.00  0.00    +0.000 A 
ATOM     17  C   UNL     1      17.551  -4.238   0.000  0.00  0.00    +0.000 A 
ATOM     18  N   UNL     1      16.772  -3.968   0.000  0.00  0.00    +0.000 NA
ENDBRANCH   7   9
ENDBRANCH   5   6
BRANCH   5  19
ATOM     19  C   UNL     1      14.277  -2.347   0.000  0.00  0.00    +0.000 C 
BRANCH  19  20
ATOM     20  C   UNL     1      13.498  -2.077   0.000  0.00  0.00    +0.000 C 
ATOM     21  O   UNL     1      12.874  -2.618   0.000  0.00  0.00    +0.000 OA
ATOM     22  N   UNL     1      13.342  -1.267   0.000  0.00  0.00    +0.000 NA
ENDBRANCH  19  20
ENDBRANCH   5  19
ENDBRANCH   3   5
ENDBRANCH   1   2
BRANCH   1  23
ATOM     23  C   UNL     1      11.627  -3.698   0.000  0.00  0.00    +0.000 C 
ATOM     24  O   UNL     1      11.471  -2.888   0.000  0.00  0.00    +0.000 OA
BRANCH  23  25
ATOM     25  C   UNL     1      11.003  -4.238   0.000  0.00  0.00    +0.000 C 
BRANCH  25  26
ATOM     26  N   UNL     1      10.224  -3.968   0.000  0.00  0.00    +0.000 N 
ATOM     27  C   UNL     1       9.600  -4.508   0.000  0.00  0.00    +0.000 C 
ATOM     28  O   UNL     1       8.820  -4.238   0.000  0.00  0.00    +0.000 OA
ATOM     29  N   UNL     1       9.756  -5.318   0.000  0.00  0.00    +0.000 NA
BRANCH  29  30
ATOM     30  C   UNL     1       9.132  -5.858   0.000  0.00  0.00    +0.000 C 
ATOM     31  C   UNL     1       8.509  -6.398   0.000  0.00  0.00    +0.000 C 
ATOM     32  C   UNL     1       8.592  -5.234   0.000  0.00  0.00    +0.000 C 
ATOM     33  C   UNL     1       9.672  -6.482   0.000  0.00  0.00    +0.000 C 
ENDBRANCH  29  30
BRANCH  26  34
ATOM     34  C   UNL     1      10.068  -3.158   0.000  0.00  0.00    +0.000 C 
BRANCH  34  36
ATOM     35  C   UNL     1       8.665  -3.428   0.000  0.00  0.00    +0.000 C 
ATOM     36  C   UNL     1       9.288  -2.888   0.000  0.00  0.00    +0.000 C 
ATOM     37  C   UNL     1       9.132  -2.077   0.000  0.00  0.00    +0.000 C 
ENDBRANCH  34  36
ENDBRANCH  26  34
ENDBRANCH  25  26
ENDBRANCH  23  25
ENDBRANCH   1  23
BRANCH   1  38
ATOM     38  C   UNL     1      12.562  -4.778   0.000  0.00  0.00    +0.000 C 
BRANCH  38  39
ATOM     39  C   UNL     1      11.939  -5.318   0.000  0.00  0.00    +0.000 A 
ATOM     40  C   UNL     1      12.095  -6.128   0.000  0.00  0.00    +0.000 A 
ATOM     41  C   UNL     1      11.471  -6.668   0.000  0.00  0.00    +0.000 A 
ATOM     42  C   UNL     1      10.691  -6.398   0.000  0.00  0.00    +0.000 A 
ATOM     43  C   UNL     1      10.535  -5.588   0.000  0.00  0.00    +0.000 A 
ATOM     44  C   UNL     1      11.159  -5.048   0.000  0.00  0.00    +0.000 A 
ENDBRANCH  38  39
ENDBRANCH   1  38
TORSDOF 14
