REMARK  Name = 
REMARK  2 active torsions:
REMARK  status: ('A' for Active; 'I' for Inactive)
REMARK    1  A    between atoms: C_1  and  C_3
REMARK    2  A    between atoms: C_2  and  C_4
REMARK                            x       y       z     vdW  Elec       q    Type
REMARK                         _______ _______ _______ _____ _____    ______ ____
ROOT
ATOM      1  C   UNL     1       0.412  -0.357   0.000  0.00  0.00    +0.000 C 
ATOM      2  C   UNL     1      -0.412  -0.357   0.000  0.00  0.00    +0.000 C 
ENDROOT
BRANCH   1   3
ATOM      3  C   UNL     1       0.825   0.357   0.000  0.00  0.00    +0.000 C 
ATOM      4  O   UNL     1       1.650   0.357   0.000  0.00  0.00    +0.000 OA
ATOM      5  O   UNL     1       0.412   1.072   0.000  0.00  0.00    +0.000 OA
ENDBRANCH   1   3
BRANCH   2   6
ATOM      6  C   UNL     1      -0.825  -1.072   0.000  0.00  0.00    +0.000 C 
ATOM      7  O   UNL     1      -1.650  -1.072   0.000  0.00  0.00    +0.000 OA
ATOM      8  O   UNL     1      -0.412  -1.786   0.000  0.00  0.00    +0.000 OA
ENDBRANCH   2   6
TORSDOF 2
REMARK  Name = 
REMARK  2 active torsions:
REMARK  status: ('A' for Active; 'I' for Inactive)
REMARK    1  A    between atoms: C_1  and  C_3
REMARK    2  A    between atoms: C_2  and  C_4
REMARK                            x       y       z     vdW  Elec       q    Type
REMARK                         _______ _______ _______ _____ _____    ______ ____
ROOT
ATOM      1 FE   UNL     1       0.000   1.786   0.000  0.00  0.00    +0.000 Fe
ENDROOT
TORSDOF 0
