REMARK  Name = 
REMARK  11 active torsions:
REMARK  status: ('A' for Active; 'I' for Inactive)
REMARK    1  A    between atoms: N_6  and  C_17
REMARK    2  A    between atoms: N_8  and  C_25
REMARK    3  A    between atoms: C_11  and  C_15
REMARK    4  A    between atoms: C_16  and  C_18
REMARK    5  A    between atoms: C_17  and  C_19
REMARK    6  A    between atoms: C_17  and  C_20
REMARK    7  A    between atoms: C_18  and  C_21
REMARK    8  A    between atoms: C_19  and  C_22
REMARK    9  A    between atoms: C_20  and  C_23
REMARK   10  A    between atoms: C_21  and  C_24
REMARK   11  A    between atoms: C_22  and  C_25
REMARK                            x       y       z     vdW  Elec       q    Type
REMARK                         _______ _______ _______ _____ _____    ______ ____
ROOT
ATOM      1  O   UNL     1      -1.509   2.448   0.000  0.00  0.00    +0.000 OA
ATOM      2  N   UNL     1      -0.794   1.210   0.000  0.00  0.00    +0.000 N 
ATOM      3  C   UNL     1      -0.041   1.546   0.000  0.00  0.00    +0.000 C 
ATOM      4  C   UNL     1       0.511   0.933   0.000  0.00  0.00    +0.000 C 
ATOM      5  C   UNL     1       0.099   0.218   0.000  0.00  0.00    +0.000 C 
ATOM      6  C   UNL     1      -0.708   0.390   0.000  0.00  0.00    +0.000 C 
ATOM      7  C   UNL     1      -1.509   1.623   0.000  0.00  0.00    +0.000 C 
ENDROOT
BRANCH   3  10
ATOM      8  O   UNL     1      -0.482   2.905   0.000  0.00  0.00    +0.000 OA
ATOM      9  N   UNL     1       0.916   2.608   0.000  0.00  0.00    +0.000 NA
ATOM     10  C   UNL     1       0.131   2.353   0.000  0.00  0.00    +0.000 C 
BRANCH   9  11
ATOM     11  C   UNL     1       1.529   2.056   0.000  0.00  0.00    +0.000 C 
BRANCH  11  13
ATOM     12  O   UNL     1       2.926   1.759   0.000  0.00  0.00    +0.000 OA
ATOM     13  C   UNL     1       2.313   2.311   0.000  0.00  0.00    +0.000 C 
BRANCH  13  15
ATOM     14 CL   UNL     1       3.269   3.373   0.000  0.00  0.00    +0.000 Cl
ATOM     15  C   UNL     1       2.485   3.118   0.000  0.00  0.00    +0.000 C 
ENDBRANCH  13  15
ENDBRANCH  11  13
BRANCH  11  16
ATOM     16  C   UNL     1       1.357   1.249   0.000  0.00  0.00    +0.000 C 
BRANCH  16  17
ATOM     17  C   UNL     1       1.970   0.697   0.000  0.00  0.00    +0.000 C 
BRANCH  17  18
ATOM     18  C   UNL     1       1.799  -0.110   0.000  0.00  0.00    +0.000 C 
BRANCH  18  19
ATOM     19  N   UNL     1       2.412  -0.662   0.000  0.00  0.00    +0.000 NA
ATOM     20  N   UNL     1       2.853  -2.021   0.000  0.00  0.00    +0.000 NA
ATOM     21  N   UNL     1       1.456  -1.724   0.000  0.00  0.00    +0.000 NA
ATOM     22  C   UNL     1       2.240  -1.469   0.000  0.00  0.00    +0.000 C 
ENDBRANCH  18  19
ENDBRANCH  17  18
ENDBRANCH  16  17
ENDBRANCH  11  16
ENDBRANCH   9  11
ENDBRANCH   3  10
BRANCH   7  24
ATOM     23  N   UNL     1      -2.223   0.385   0.000  0.00  0.00    +0.000 NA
ATOM     24  C   UNL     1      -2.223   1.210   0.000  0.00  0.00    +0.000 C 
BRANCH  24  25
ATOM     25  C   UNL     1      -2.938   1.623   0.000  0.00  0.00    +0.000 C 
BRANCH  25  26
ATOM     26  C   UNL     1      -3.652   1.210   0.000  0.00  0.00    +0.000 A 
ATOM     27  C   UNL     1      -4.367   1.623   0.000  0.00  0.00    +0.000 A 
ATOM     28  C   UNL     1      -3.652   0.385   0.000  0.00  0.00    +0.000 A 
ATOM     29  C   UNL     1      -5.081   1.210   0.000  0.00  0.00    +0.000 A 
ATOM     30  C   UNL     1      -4.367  -0.027   0.000  0.00  0.00    +0.000 A 
ATOM     31  C   UNL     1      -5.081   0.385   0.000  0.00  0.00    +0.000 A 
ENDBRANCH  25  26
ENDBRANCH  24  25
ENDBRANCH   7  24
TORSDOF 11
