REMARK  Name = 
REMARK  1 active torsions:
REMARK  status: ('A' for Active; 'I' for Inactive)
REMARK    1  A    between atoms: C_10  and  C_12
REMARK                            x       y       z     vdW  Elec       q    Type
REMARK                         _______ _______ _______ _____ _____    ______ ____
ROOT
ATOM      1  C   UNL     1      -0.743  -0.097   0.000  0.00  0.00    +0.000 C 
ATOM      2  C   UNL     1      -0.734   0.728   0.000  0.00  0.00    +0.000 C 
ATOM      3  C   UNL     1      -0.015   1.129   0.000  0.00  0.00    +0.000 C 
ATOM      4  C   UNL     1       0.695   0.710   0.000  0.00  0.00    +0.000 C 
ATOM      5  C   UNL     1       0.686  -0.115   0.000  0.00  0.00    +0.000 C 
ATOM      6  C   UNL     1       1.465  -0.373   0.000  0.00  0.00    +0.000 C 
ATOM      7  C   UNL     1       1.958   0.286   0.000  0.00  0.00    +0.000 C 
ATOM      8  C   UNL     1       1.483   0.954   0.000  0.00  0.00    +0.000 C 
ATOM      9  O   UNL     1       1.690   1.751   0.000  0.00  0.00    +0.000 OA
ATOM     10  C   UNL     1      -0.033  -0.521   0.000  0.00  0.00    +0.000 C 
ATOM     11  C   UNL     1      -0.029  -1.341   0.000  0.00  0.00    +0.000 C 
ATOM     12  O   UNL     1       0.686  -1.751   0.000  0.00  0.00    +0.000 OA
ATOM     13  C   UNL     1      -0.748  -1.751   0.000  0.00  0.00    +0.000 C 
ATOM     14  C   UNL     1      -1.462  -1.337   0.000  0.00  0.00    +0.000 C 
ATOM     15  C   UNL     1      -2.172  -1.747   0.000  0.00  0.00    +0.000 C 
ATOM     16  C   UNL     1      -2.886  -1.337   0.000  0.00  0.00    +0.000 C 
ATOM     17  C   UNL     1      -2.886  -0.511   0.000  0.00  0.00    +0.000 C 
ATOM     18  C   UNL     1      -2.172  -0.097   0.000  0.00  0.00    +0.000 C 
ATOM     19  C   UNL     1      -1.457  -0.511   0.000  0.00  0.00    +0.000 C 
ATOM     20  C   UNL     1      -1.462   0.309   0.000  0.00  0.00    +0.000 C 
ATOM     21  O   UNL     1      -3.601  -1.747   0.000  0.00  0.00    +0.000 OA
ATOM     22  C   UNL     1       0.695   1.535   0.000  0.00  0.00    +0.000 C 
ENDROOT
BRANCH   8  23
ATOM     23  C   UNL     1       2.507   0.954   0.000  0.00  0.00    +0.000 C 
ATOM     24  C   UNL     1       3.601   0.919   0.000  0.00  0.00    +0.000 C 
ENDBRANCH   8  23
TORSDOF 1
