REMARK  Name = 
REMARK  3 active torsions:
REMARK  status: ('A' for Active; 'I' for Inactive)
REMARK    1  A    between atoms: C_1  and  C_2
REMARK    2  A    between atoms: C_1  and  N_3
REMARK    3  A    between atoms: C_1  and  C_4
REMARK                            x       y       z     vdW  Elec       q    Type
REMARK                         _______ _______ _______ _____ _____    ______ ____
ROOT
ATOM      1  C   UNL     1      -0.850  -0.335   0.000  0.00  0.00    +0.000 C 
ENDROOT
BRANCH   1   2
ATOM      2  N   UNL     1      -0.048  -0.335   0.000  0.00  0.00    +0.000 NA
ATOM      3  C   UNL     1       0.313   0.404   0.000  0.00  0.00    +0.000 C 
ATOM      4  C   UNL     1       0.323  -1.073   0.000  0.00  0.00    +0.000 C 
ATOM      5  C   UNL     1       1.118   0.576   0.000  0.00  0.00    +0.000 C 
ATOM      6  C   UNL     1       1.118  -1.266   0.000  0.00  0.00    +0.000 C 
ATOM      7  N   UNL     1       1.764   0.059   0.000  0.00  0.00    +0.000 NA
ATOM      8  C   UNL     1       1.764  -0.749   0.000  0.00  0.00    +0.000 C 
ATOM      9  C   UNL     1       2.500   0.434   0.000  0.00  0.00    +0.000 C 
ENDBRANCH   1   2
BRANCH   1  10
ATOM     10  C   UNL     1      -1.250   0.358   0.000  0.00  0.00    +0.000 A 
ATOM     11  C   UNL     1      -0.863   1.077   0.000  0.00  0.00    +0.000 A 
ATOM     12  C   UNL     1      -2.089   0.358   0.000  0.00  0.00    +0.000 A 
ATOM     13  C   UNL     1      -1.264   1.779   0.000  0.00  0.00    +0.000 A 
ATOM     14  C   UNL     1      -2.500   1.070   0.000  0.00  0.00    +0.000 A 
ATOM     15  C   UNL     1      -2.089   1.779   0.000  0.00  0.00    +0.000 A 
ATOM     16 CL   UNL     1      -2.500   2.498   0.000  0.00  0.00    +0.000 Cl
ENDBRANCH   1  10
BRANCH   1  17
ATOM     17  C   UNL     1      -1.264  -1.057   0.000  0.00  0.00    +0.000 A 
ATOM     18  C   UNL     1      -2.089  -1.057   0.000  0.00  0.00    +0.000 A 
ATOM     19  C   UNL     1      -0.850  -1.776   0.000  0.00  0.00    +0.000 A 
ATOM     20  C   UNL     1      -2.500  -1.776   0.000  0.00  0.00    +0.000 A 
ATOM     21  C   UNL     1      -1.264  -2.485   0.000  0.00  0.00    +0.000 A 
ATOM     22  C   UNL     1      -2.089  -2.498   0.000  0.00  0.00    +0.000 A 
ENDBRANCH   1  17
TORSDOF 3
