REMARK  Name = 
REMARK  0 active torsions:
REMARK  status: ('A' for Active; 'I' for Inactive)
REMARK                            x       y       z     vdW  Elec       q    Type
REMARK                         _______ _______ _______ _____ _____    ______ ____
ROOT
ATOM      1  O   UNL     1       0.940  -1.804   0.000  0.00  0.00    +0.000 OA
ATOM      2  C   UNL     1       0.768  -0.997   0.000  0.00  0.00    +0.000 C 
ATOM      3  C   UNL     1       1.482  -0.584   0.000  0.00  0.00    +0.000 C 
ATOM      4  C   UNL     1       2.096  -1.136   0.000  0.00  0.00    +0.000 C 
ATOM      5  C   UNL     1       1.760  -1.890   0.000  0.00  0.00    +0.000 C 
ATOM      6  C   UNL     1       1.482   0.241   0.000  0.00  0.00    +0.000 C 
ATOM      7  C   UNL     1       0.768   0.653   0.000  0.00  0.00    +0.000 C 
ATOM      8  C   UNL     1       0.053   0.240   0.000  0.00  0.00    +0.000 A 
ATOM      9  C   UNL     1      -0.661   0.653   0.000  0.00  0.00    +0.000 A 
ATOM     10  C   UNL     1      -0.661   1.478   0.000  0.00  0.00    +0.000 C 
ATOM     11  C   UNL     1      -1.376   1.890   0.000  0.00  0.00    +0.000 C 
ATOM     12  C   UNL     1      -2.090   1.477   0.000  0.00  0.00    +0.000 C 
ATOM     13  C   UNL     1      -2.090   0.652   0.000  0.00  0.00    +0.000 C 
ATOM     14  C   UNL     1      -1.375   0.240   0.000  0.00  0.00    +0.000 A 
ATOM     15  C   UNL     1      -1.375  -0.585   0.000  0.00  0.00    +0.000 A 
ATOM     16  C   UNL     1      -0.661  -0.997   0.000  0.00  0.00    +0.000 A 
ATOM     17  C   UNL     1       0.053  -0.585   0.000  0.00  0.00    +0.000 A 
ATOM     18  O   UNL     1       0.767   1.478   0.000  0.00  0.00    +0.000 OA
ATOM     19  O   UNL     1       2.197   0.653   0.000  0.00  0.00    +0.000 OA
ATOM     20  C   UNL     1      -2.372  -0.123   0.000  0.00  0.00    +0.000 C 
ATOM     21  C   UNL     1      -2.902   0.795   0.000  0.00  0.00    +0.000 C 
ATOM     22  C   UNL     1       2.902  -0.964   0.000  0.00  0.00    +0.000 C 
ENDROOT
TORSDOF 0
