REMARK  Name = 
REMARK  8 active torsions:
REMARK  status: ('A' for Active; 'I' for Inactive)
REMARK    1  A    between atoms: O_2  and  C_15
REMARK    2  A    between atoms: O_2  and  C_24
REMARK    3  A    between atoms: N_3  and  C_12
REMARK    4  A    between atoms: C_4  and  C_11
REMARK    5  A    between atoms: C_11  and  C_13
REMARK    6  A    between atoms: C_11  and  C_14
REMARK    7  A    between atoms: C_12  and  C_15
REMARK    8  A    between atoms: C_24  and  C_27
REMARK                            x       y       z     vdW  Elec       q    Type
REMARK                         _______ _______ _______ _____ _____    ______ ____
ROOT
ATOM      1  N   UNL     1      -0.395  -0.420   0.000  0.00  0.00    +0.000 N 
ATOM      2  C   UNL     1      -0.608  -1.216   0.000  0.00  0.00    +0.000 C 
ATOM      3  C   UNL     1       0.903  -1.843   0.000  0.00  0.00    +0.000 C 
ATOM      4  C   UNL     1      -2.037  -2.042   0.000  0.00  0.00    +0.000 C 
ATOM      5  C   UNL     1      -1.415   0.280   0.000  0.00  0.00    +0.000 C 
ATOM      6  C   UNL     1       1.116  -1.046   0.000  0.00  0.00    +0.000 C 
ATOM      7  C   UNL     1      -2.450  -1.327   0.000  0.00  0.00    +0.000 C 
ATOM      8  C   UNL     1      -0.701   0.693   0.000  0.00  0.00    +0.000 C 
ENDROOT
BRANCH   2  10
ATOM      9  O   UNL     1      -1.757  -1.419   0.000  0.00  0.00    +0.000 OA
ATOM     10  C   UNL     1      -1.081  -1.892   0.000  0.00  0.00    +0.000 C 
BRANCH  10  11
ATOM     11  C   UNL     1      -1.555  -2.568   0.000  0.00  0.00    +0.000 A 
ATOM     12  C   UNL     1      -1.206  -3.316   0.000  0.00  0.00    +0.000 A 
ATOM     13  C   UNL     1      -2.377  -2.496   0.000  0.00  0.00    +0.000 A 
ATOM     14  C   UNL     1      -1.679  -3.992   0.000  0.00  0.00    +0.000 A 
ATOM     15  C   UNL     1      -2.850  -3.172   0.000  0.00  0.00    +0.000 A 
ATOM     16  C   UNL     1      -2.501  -3.920   0.000  0.00  0.00    +0.000 A 
ENDBRANCH  10  11
BRANCH  10  17
ATOM     17  C   UNL     1      -0.406  -2.365   0.000  0.00  0.00    +0.000 A 
ATOM     18  C   UNL     1       0.342  -2.017   0.000  0.00  0.00    +0.000 A 
ATOM     19  C   UNL     1      -0.478  -3.187   0.000  0.00  0.00    +0.000 A 
ATOM     20  C   UNL     1       1.018  -2.490   0.000  0.00  0.00    +0.000 A 
ATOM     21  C   UNL     1       0.198  -3.661   0.000  0.00  0.00    +0.000 A 
ATOM     22  C   UNL     1       0.946  -3.312   0.000  0.00  0.00    +0.000 A 
ENDBRANCH  10  17
ENDBRANCH   2  10
BRANCH   1  23
ATOM     23  C   UNL     1      -0.181   0.377   0.000  0.00  0.00    +0.000 C 
BRANCH  23  24
ATOM     24  C   UNL     1       0.616   0.591   0.000  0.00  0.00    +0.000 C 
BRANCH  24  25
ATOM     25  O   UNL     1       0.829   1.387   0.000  0.00  0.00    +0.000 OA
BRANCH  25  26
ATOM     26  C   UNL     1       1.626   1.601   0.000  0.00  0.00    +0.000 C 
BRANCH  26  27
ATOM     27  C   UNL     1       1.839   2.398   0.000  0.00  0.00    +0.000 A 
ATOM     28  C   UNL     1       1.256   2.981   0.000  0.00  0.00    +0.000 A 
ATOM     29  C   UNL     1       2.636   2.611   0.000  0.00  0.00    +0.000 A 
ATOM     30  C   UNL     1       1.470   3.778   0.000  0.00  0.00    +0.000 A 
ATOM     31  C   UNL     1       2.850   3.408   0.000  0.00  0.00    +0.000 A 
ATOM     32  C   UNL     1       2.266   3.992   0.000  0.00  0.00    +0.000 A 
ENDBRANCH  26  27
ENDBRANCH  25  26
ENDBRANCH  24  25
ENDBRANCH  23  24
ENDBRANCH   1  23
TORSDOF 8
