REMARK  Name = 
REMARK  5 active torsions:
REMARK  status: ('A' for Active; 'I' for Inactive)
REMARK    1  A    between atoms: N_4  and  C_5
REMARK    2  A    between atoms: C_5  and  C_6
REMARK    3  A    between atoms: C_6  and  C_7
REMARK    4  A    between atoms: C_12  and  C_13
REMARK    5  A    between atoms: C_13  and  C_14
REMARK                            x       y       z     vdW  Elec       q    Type
REMARK                         _______ _______ _______ _____ _____    ______ ____
ROOT
ATOM      1  C   UNL     1       4.919   1.333   0.000  0.00  0.00    +0.000 C 
ATOM      2  C   UNL     1       4.747   2.139   0.000  0.00  0.00    +0.000 A 
ATOM      3  N   UNL     1       5.299   2.752   0.000  0.00  0.00    +0.000 NA
ATOM      4  N   UNL     1       4.887   3.467   0.000  0.00  0.00    +0.000 N 
ATOM      5  C   UNL     1       4.080   3.296   0.000  0.00  0.00    +0.000 A 
ATOM      6  C   UNL     1       3.466   3.848   0.000  0.00  0.00    +0.000 C 
ATOM      7  C   UNL     1       3.993   2.475   0.000  0.00  0.00    +0.000 A 
ENDROOT
BRANCH   4   8
ATOM      8  C   UNL     1       5.222   4.221   0.000  0.00  0.00    +0.000 C 
BRANCH   8   9
ATOM      9  C   UNL     1       4.737   4.888   0.000  0.00  0.00    +0.000 C 
BRANCH   9  10
ATOM     10  C   UNL     1       5.073   5.642   0.000  0.00  0.00    +0.000 C 
ATOM     11  O   UNL     1       4.588   6.309   0.000  0.00  0.00    +0.000 OA
ATOM     12  O   UNL     1       5.893   5.728   0.000  0.00  0.00    +0.000 OA
ENDBRANCH   9  10
ENDBRANCH   8   9
ENDBRANCH   4   8
BRANCH   7  13
ATOM     13  C   UNL     1       3.279   2.062   0.000  0.00  0.00    +0.000 C 
BRANCH  13  14
ATOM     14  C   UNL     1       3.279   1.238   0.000  0.00  0.00    +0.000 A 
ATOM     15  C   UNL     1       3.993   0.825   0.000  0.00  0.00    +0.000 A 
ATOM     16  C   UNL     1       3.993   0.000   0.000  0.00  0.00    +0.000 A 
ATOM     17  C   UNL     1       4.708  -0.412   0.000  0.00  0.00    +0.000 C 
ATOM     18  C   UNL     1       3.279  -0.412   0.000  0.00  0.00    +0.000 A 
ATOM     19  O   UNL     1       3.279  -1.238   0.000  0.00  0.00    +0.000 OA
ATOM     20  C   UNL     1       2.564   0.000   0.000  0.00  0.00    +0.000 A 
ATOM     21  C   UNL     1       2.564   0.825   0.000  0.00  0.00    +0.000 A 
ATOM     22  C   UNL     1       1.780   1.080   0.000  0.00  0.00    +0.000 C 
ATOM     23  C   UNL     1       1.295   0.412   0.000  0.00  0.00    +0.000 C 
ATOM     24  C   UNL     1       1.780  -0.255   0.000  0.00  0.00    +0.000 C 
ENDBRANCH  13  14
ENDBRANCH   7  13
TORSDOF 5
