REMARK  Name = 
REMARK  2 active torsions:
REMARK  status: ('A' for Active; 'I' for Inactive)
REMARK    1  A    between atoms: C_1  and  S_7
REMARK    2  A    between atoms: S_7  and  N_9
REMARK                            x       y       z     vdW  Elec       q    Type
REMARK                         _______ _______ _______ _____ _____    ______ ____
ROOT
ATOM      1  S   UNL     1       0.080  -0.111   0.000  0.00  0.00    +0.000 S 
ATOM      2  O   UNL     1      -0.332   0.604   0.000  0.00  0.00    +0.000 OA
ATOM      3  O   UNL     1       0.493   0.604   0.000  0.00  0.00    +0.000 OA
ENDROOT
BRANCH   1   4
ATOM      4  C   UNL     1      -0.634  -0.523   0.000  0.00  0.00    +0.000 A 
ATOM      5  C   UNL     1      -0.634  -1.348   0.000  0.00  0.00    +0.000 A 
ATOM      6  C   UNL     1      -1.348  -1.761   0.000  0.00  0.00    +0.000 A 
ATOM      7  C   UNL     1      -2.063  -1.348   0.000  0.00  0.00    +0.000 A 
ATOM      8  C   UNL     1      -2.063  -0.523   0.000  0.00  0.00    +0.000 A 
ATOM      9  C   UNL     1      -1.348  -0.111   0.000  0.00  0.00    +0.000 A 
ATOM     10  N   UNL     1      -2.777  -1.761   0.000  0.00  0.00    +0.000 NA
ENDBRANCH   1   4
BRANCH   1  11
ATOM     11  N   UNL     1       0.795  -0.523   0.000  0.00  0.00    +0.000 NA
ATOM     12  C   UNL     1       1.510  -0.111   0.000  0.00  0.00    +0.000 A 
ATOM     13  C   UNL     1       1.505   0.714   0.000  0.00  0.00    +0.000 A 
ATOM     14  N   UNL     1       2.297  -0.360   0.000  0.00  0.00    +0.000 NA
ATOM     15  C   UNL     1       2.288   0.975   0.000  0.00  0.00    +0.000 A 
ATOM     16  O   UNL     1       2.777   0.310   0.000  0.00  0.00    +0.000 OA
ATOM     17  C   UNL     1       2.538   1.761   0.000  0.00  0.00    +0.000 C 
ENDBRANCH   1  11
TORSDOF 2
