REMARK  Name = 
REMARK  1 active torsions:
REMARK  status: ('A' for Active; 'I' for Inactive)
REMARK    1  A    between atoms: C_17  and  C_20
REMARK                            x       y       z     vdW  Elec       q    Type
REMARK                         _______ _______ _______ _____ _____    ______ ____
ROOT
ATOM      1  C   UNL     1      -1.649  -0.226   0.000  0.00  0.00    +0.000 C 
ATOM      2  C   UNL     1      -2.373  -0.623   0.000  0.00  0.00    +0.000 C 
ATOM      3  C   UNL     1      -2.373  -1.463   0.000  0.00  0.00    +0.000 C 
ATOM      4  C   UNL     1      -1.649  -1.875   0.000  0.00  0.00    +0.000 C 
ATOM      5  C   UNL     1      -0.949  -1.463   0.000  0.00  0.00    +0.000 C 
ATOM      6  C   UNL     1      -0.234  -1.875   0.000  0.00  0.00    +0.000 C 
ATOM      7  C   UNL     1       0.497  -1.463   0.000  0.00  0.00    +0.000 C 
ATOM      8  C   UNL     1       0.497  -0.623   0.000  0.00  0.00    +0.000 C 
ATOM      9  C   UNL     1      -0.234  -0.226   0.000  0.00  0.00    +0.000 C 
ATOM     10  C   UNL     1      -0.949  -0.623   0.000  0.00  0.00    +0.000 C 
ATOM     11  C   UNL     1      -0.234   0.583   0.000  0.00  0.00    +0.000 C 
ATOM     12  C   UNL     1       0.497   1.003   0.000  0.00  0.00    +0.000 C 
ATOM     13  C   UNL     1       1.197   0.583   0.000  0.00  0.00    +0.000 C 
ATOM     14  C   UNL     1       1.197  -0.226   0.000  0.00  0.00    +0.000 C 
ATOM     15  C   UNL     1       1.983  -0.483   0.000  0.00  0.00    +0.000 C 
ATOM     16  C   UNL     1       2.450   0.171   0.000  0.00  0.00    +0.000 C 
ATOM     17  C   UNL     1       1.983   0.832   0.000  0.00  0.00    +0.000 C 
ATOM     18  C   UNL     1       1.197   1.431   0.000  0.00  0.00    +0.000 C 
ATOM     19  C   UNL     1      -0.949   0.186   0.000  0.00  0.00    +0.000 C 
ATOM     20  O   UNL     1      -3.056  -1.891   0.000  0.00  0.00    +0.000 OA
ENDROOT
BRANCH  17  21
ATOM     21  C   UNL     1       2.247   1.617   0.000  0.00  0.00    +0.000 C 
ATOM     22  C   UNL     1       3.056   1.781   0.000  0.00  0.00    +0.000 C 
ATOM     23  O   UNL     1       1.778   2.182   0.000  0.00  0.00    +0.000 OA
ENDBRANCH  17  21
TORSDOF 1
