REMARK  Name = 
REMARK  7 active torsions:
REMARK  status: ('A' for Active; 'I' for Inactive)
REMARK    1  A    between atoms: S_1  and  N_7
REMARK    2  A    between atoms: S_1  and  C_24
REMARK    3  A    between atoms: N_5  and  C_9
REMARK    4  A    between atoms: N_6  and  C_10
REMARK    5  A    between atoms: C_8  and  C_9
REMARK    6  A    between atoms: C_8  and  C_10
REMARK    7  A    between atoms: C_18  and  C_21
REMARK                            x       y       z     vdW  Elec       q    Type
REMARK                         _______ _______ _______ _____ _____    ______ ____
ROOT
ATOM      1  O   UNL     1      -0.443   1.961   0.000  0.00  0.00    +0.000 OA
ATOM      2  N   UNL     1      -0.149   0.563   0.000  0.00  0.00    +0.000 N 
ATOM      3  C   UNL     1       0.107   1.347   0.000  0.00  0.00    +0.000 C 
ATOM      4  H   UNL     1       0.193   0.182   0.000  0.00  0.00    +0.000 HD
ENDROOT
BRANCH   3   5
ATOM      5  C   UNL     1       0.915   1.517   0.000  0.00  0.00    +0.000 A 
ATOM      6  C   UNL     1       1.171   2.301   0.000  0.00  0.00    +0.000 A 
ATOM      7  C   UNL     1       1.466   0.903   0.000  0.00  0.00    +0.000 A 
ATOM      8  C   UNL     1       2.529   1.857   0.000  0.00  0.00    +0.000 A 
ATOM      9  C   UNL     1       1.978   2.471   0.000  0.00  0.00    +0.000 A 
ATOM     10  C   UNL     1       2.273   1.073   0.000  0.00  0.00    +0.000 A 
BRANCH   8  11
ATOM     11  S   UNL     1       3.337   2.027   0.000  0.00  0.00    +0.000 S 
ATOM     12  O   UNL     1       3.507   1.220   0.000  0.00  0.00    +0.000 OA
ATOM     13  O   UNL     1       3.167   2.835   0.000  0.00  0.00    +0.000 OA
BRANCH  11  14
ATOM     14  N   UNL     1       4.144   2.198   0.000  0.00  0.00    +0.000 NA
ATOM     15  H   UNL     1       4.486   1.817   0.000  0.00  0.00    +0.000 HD
ATOM     16  H   UNL     1       4.303   2.684   0.000  0.00  0.00    +0.000 HD
ENDBRANCH  11  14
ENDBRANCH   8  11
ENDBRANCH   3   5
BRANCH   2  17
ATOM     17  C   UNL     1      -0.956   0.393   0.000  0.00  0.00    +0.000 C 
BRANCH  17  18
ATOM     18  C   UNL     1      -1.212  -0.392   0.000  0.00  0.00    +0.000 C 
ATOM     19  C   UNL     1      -0.661  -1.006   0.000  0.00  0.00    +0.000 C 
BRANCH  18  20
ATOM     20  C   UNL     1      -2.020  -0.562   0.000  0.00  0.00    +0.000 C 
BRANCH  20  21
ATOM     21  N   UNL     1      -2.276  -1.346   0.000  0.00  0.00    +0.000 N 
ATOM     22  C   UNL     1      -3.057  -1.597   0.000  0.00  0.00    +0.000 A 
ATOM     23  C   UNL     1      -3.057  -2.422   0.000  0.00  0.00    +0.000 A 
ATOM     24  C   UNL     1      -1.794  -2.010   0.000  0.00  0.00    +0.000 A 
ATOM     25  C   UNL     1      -2.276  -2.674   0.000  0.00  0.00    +0.000 A 
ATOM     26  C   UNL     1      -3.771  -1.185   0.000  0.00  0.00    +0.000 A 
ATOM     27  C   UNL     1      -3.771  -2.835   0.000  0.00  0.00    +0.000 A 
ATOM     28  C   UNL     1      -4.486  -1.597   0.000  0.00  0.00    +0.000 A 
ATOM     29  C   UNL     1      -4.486  -2.422   0.000  0.00  0.00    +0.000 A 
ENDBRANCH  20  21
ENDBRANCH  18  20
ENDBRANCH  17  18
ENDBRANCH   2  17
TORSDOF 7
