REMARK  Name = 
REMARK  10 active torsions:
REMARK  status: ('A' for Active; 'I' for Inactive)
REMARK    1  A    between atoms: C_8  and  C_10
REMARK    2  A    between atoms: C_10  and  C_11
REMARK    3  A    between atoms: C_10  and  N_25
REMARK    4  A    between atoms: C_11  and  C_12
REMARK    5  A    between atoms: C_12  and  C_13
REMARK    6  A    between atoms: C_13  and  N_14
REMARK    7  A    between atoms: N_14  and  C_15
REMARK    8  A    between atoms: C_17  and  C_18
REMARK    9  A    between atoms: C_26  and  C_28
REMARK   10  A    between atoms: C_31  and  N_34
REMARK                            x       y       z     vdW  Elec       q    Type
REMARK                         _______ _______ _______ _____ _____    ______ ____
ROOT
ATOM      1  C   UNL     1       5.716  -4.950   0.000  0.00  0.00    +0.000 C 
ENDROOT
BRANCH   1   9
ATOM      2  C   UNL     1       2.858  -2.475   0.000  0.00  0.00    +0.000 C 
ATOM      3  N   UNL     1       3.572  -2.888   0.000  0.00  0.00    +0.000 NA
ATOM      4  C   UNL     1       4.287  -2.475   0.000  0.00  0.00    +0.000 C 
ATOM      5  C   UNL     1       5.001  -2.888   0.000  0.00  0.00    +0.000 C 
ATOM      6  N   UNL     1       5.001  -3.712   0.000  0.00  0.00    +0.000 N 
ATOM      7  C   UNL     1       4.287  -4.125   0.000  0.00  0.00    +0.000 C 
ATOM      8  C   UNL     1       3.572  -3.712   0.000  0.00  0.00    +0.000 C 
ATOM      9  C   UNL     1       5.716  -4.125   0.000  0.00  0.00    +0.000 C 
ATOM     10  O   UNL     1       6.430  -3.712   0.000  0.00  0.00    +0.000 OA
ENDBRANCH   1   9
BRANCH   1  11
ATOM     11  N   UNL     1       6.430  -5.362   0.000  0.00  0.00    +0.000 NA
ATOM     12  C   UNL     1       7.145  -4.950   0.000  0.00  0.00    +0.000 C 
ATOM     13  O   UNL     1       7.145  -4.125   0.000  0.00  0.00    +0.000 OA
BRANCH  12  14
ATOM     14  C   UNL     1       7.859  -5.362   0.000  0.00  0.00    +0.000 A 
ATOM     15  C   UNL     1       8.574  -4.950   0.000  0.00  0.00    +0.000 A 
ATOM     16  C   UNL     1       9.288  -5.362   0.000  0.00  0.00    +0.000 A 
ATOM     17  C   UNL     1       9.288  -6.188   0.000  0.00  0.00    +0.000 A 
ATOM     18  C   UNL     1       8.574  -6.600   0.000  0.00  0.00    +0.000 A 
ATOM     19  C   UNL     1       7.859  -6.188   0.000  0.00  0.00    +0.000 A 
BRANCH  17  20
ATOM     20  N   UNL     1      10.003  -6.600   0.000  0.00  0.00    +0.000 N 
ATOM     21  C   UNL     1      10.756  -6.264   0.000  0.00  0.00    +0.000 A 
ATOM     22  C   UNL     1      11.308  -6.878   0.000  0.00  0.00    +0.000 A 
ATOM     23  N   UNL     1      10.896  -7.592   0.000  0.00  0.00    +0.000 NA
ATOM     24  N   UNL     1      10.089  -7.420   0.000  0.00  0.00    +0.000 NA
ENDBRANCH  17  20
ENDBRANCH  12  14
ENDBRANCH   1  11
BRANCH   1  25
ATOM     25  C   UNL     1       5.001  -5.362   0.000  0.00  0.00    +0.000 C 
BRANCH  25  26
ATOM     26  C   UNL     1       4.287  -4.950   0.000  0.00  0.00    +0.000 C 
BRANCH  26  27
ATOM     27  C   UNL     1       3.572  -5.362   0.000  0.00  0.00    +0.000 C 
BRANCH  27  28
ATOM     28  N   UNL     1       2.858  -4.950   0.000  0.00  0.00    +0.000 NA
BRANCH  28  29
ATOM     29  C   UNL     1       2.143  -5.362   0.000  0.00  0.00    +0.000 C 
ATOM     30  C   UNL     1       1.731  -6.077   0.000  0.00  0.00    +0.000 C 
ATOM     31  C   UNL     1       1.318  -5.362   0.000  0.00  0.00    +0.000 C 
BRANCH  31  32
ATOM     32  C   UNL     1       0.604  -4.950   0.000  0.00  0.00    +0.000 A 
ATOM     33  C   UNL     1      -0.111  -5.362   0.000  0.00  0.00    +0.000 A 
ATOM     34  C   UNL     1      -0.825  -4.950   0.000  0.00  0.00    +0.000 A 
ATOM     35  C   UNL     1      -0.825  -4.125   0.000  0.00  0.00    +0.000 A 
ATOM     36  F   UNL     1      -1.540  -3.712   0.000  0.00  0.00    +0.000 F 
ATOM     37  C   UNL     1      -0.111  -3.712   0.000  0.00  0.00    +0.000 A 
ATOM     38  C   UNL     1       0.604  -4.125   0.000  0.00  0.00    +0.000 A 
ENDBRANCH  31  32
ENDBRANCH  28  29
ENDBRANCH  27  28
ENDBRANCH  26  27
ENDBRANCH  25  26
ENDBRANCH   1  25
TORSDOF 10
