REMARK  Name = 
REMARK  7 active torsions:
REMARK  status: ('A' for Active; 'I' for Inactive)
REMARK    1  A    between atoms: C_2  and  C_3
REMARK    2  A    between atoms: N_7  and  C_8
REMARK    3  A    between atoms: C_8  and  C_9
REMARK    4  A    between atoms: C_9  and  C_10
REMARK    5  A    between atoms: C_10  and  C_11
REMARK    6  A    between atoms: C_11  and  N_12
REMARK    7  A    between atoms: N_12  and  S_13
REMARK                            x       y       z     vdW  Elec       q    Type
REMARK                         _______ _______ _______ _____ _____    ______ ____
ROOT
ATOM      1  C   UNL     1       3.660   0.043   0.000  0.00  0.00    +0.000 A 
ATOM      2  N   UNL     1       3.599   0.866   0.000  0.00  0.00    +0.000 NA
ATOM      3  C   UNL     1       2.798   1.062   0.000  0.00  0.00    +0.000 A 
ATOM      4  C   UNL     1       2.364   0.361   0.000  0.00  0.00    +0.000 A 
ATOM      5  N   UNL     1       2.896  -0.269   0.000  0.00  0.00    +0.000 N 
ATOM      6  C   UNL     1       1.539   0.387   0.000  0.00  0.00    +0.000 A 
ATOM      7  C   UNL     1       1.105  -0.315   0.000  0.00  0.00    +0.000 A 
ATOM      8  C   UNL     1       0.280  -0.289   0.000  0.00  0.00    +0.000 A 
ATOM      9  C   UNL     1      -0.110   0.438   0.000  0.00  0.00    +0.000 A 
ATOM     10  C   UNL     1       0.325   1.139   0.000  0.00  0.00    +0.000 A 
ATOM     11  C   UNL     1       1.149   1.114   0.000  0.00  0.00    +0.000 A 
ATOM     12  N   UNL     1       1.584   1.815   0.000  0.00  0.00    +0.000 NA
ATOM     13  C   UNL     1       2.408   1.789   0.000  0.00  0.00    +0.000 A 
ATOM     14  N   UNL     1       2.843   2.490   0.000  0.00  0.00    +0.000 NA
ENDROOT
BRANCH   1  16
ATOM     15  C   UNL     1       4.335  -1.216   0.000  0.00  0.00    +0.000 C 
ATOM     16  C   UNL     1       4.361  -0.392   0.000  0.00  0.00    +0.000 C 
ENDBRANCH   1  16
BRANCH   5  17
ATOM     17  C   UNL     1       2.700  -1.070   0.000  0.00  0.00    +0.000 C 
BRANCH  17  18
ATOM     18  C   UNL     1       3.295  -1.641   0.000  0.00  0.00    +0.000 C 
BRANCH  18  19
ATOM     19  C   UNL     1       3.099  -2.442   0.000  0.00  0.00    +0.000 C 
BRANCH  19  20
ATOM     20  C   UNL     1       3.694  -3.013   0.000  0.00  0.00    +0.000 C 
BRANCH  20  21
ATOM     21  N   UNL     1       3.498  -3.814   0.000  0.00  0.00    +0.000 NA
BRANCH  21  22
ATOM     22  S   UNL     1       4.093  -4.386   0.000  0.00  0.00    +0.000 S 
ATOM     23  O   UNL     1       4.689  -4.956   0.000  0.00  0.00    +0.000 OA
ATOM     24  O   UNL     1       4.664  -3.790   0.000  0.00  0.00    +0.000 OA
ATOM     25  C   UNL     1       3.522  -4.981   0.000  0.00  0.00    +0.000 C 
ENDBRANCH  21  22
ENDBRANCH  20  21
ENDBRANCH  19  20
ENDBRANCH  18  19
ENDBRANCH  17  18
ENDBRANCH   5  17
TORSDOF 7
