REMARK  Name = 
REMARK  10 active torsions:
REMARK  status: ('A' for Active; 'I' for Inactive)
REMARK    1  A    between atoms: C_1  and  C_2
REMARK    2  A    between atoms: C_2  and  C_3
REMARK    3  A    between atoms: C_3  and  C_4
REMARK    4  A    between atoms: C_4  and  C_5
REMARK    5  A    between atoms: C_5  and  C_6
REMARK    6  A    between atoms: C_14  and  C_15
REMARK    7  A    between atoms: C_15  and  C_16
REMARK    8  A    between atoms: C_16  and  C_17
REMARK    9  A    between atoms: C_17  and  C_18
REMARK   10  A    between atoms: C_18  and  C_19
REMARK                            x       y       z     vdW  Elec       q    Type
REMARK                         _______ _______ _______ _____ _____    ______ ____
ROOT
ATOM      1  C   UNL     1      -3.443  -0.225   0.000  0.00  0.00    +0.000 C 
ATOM      2  O   UNL     1      -3.443  -1.050   0.000  0.00  0.00    +0.000 OA
ENDROOT
BRANCH   1   3
ATOM      3  C   UNL     1      -4.158   0.187   0.000  0.00  0.00    +0.000 C 
ATOM      4  O   UNL     1      -4.158   1.012   0.000  0.00  0.00    +0.000 OA
BRANCH   3   5
ATOM      5  C   UNL     1      -4.872  -0.225   0.000  0.00  0.00    +0.000 C 
ATOM      6  O   UNL     1      -4.872  -1.050   0.000  0.00  0.00    +0.000 OA
BRANCH   5   7
ATOM      7  C   UNL     1      -5.587   0.187   0.000  0.00  0.00    +0.000 C 
ATOM      8  O   UNL     1      -6.301  -0.225   0.000  0.00  0.00    +0.000 OA
ENDBRANCH   5   7
ENDBRANCH   3   5
ENDBRANCH   1   3
BRANCH   1   9
ATOM      9  C   UNL     1      -2.729   0.187   0.000  0.00  0.00    +0.000 C 
ATOM     10  O   UNL     1      -2.729   1.012   0.000  0.00  0.00    +0.000 OA
BRANCH   9  11
ATOM     11  C   UNL     1      -2.014  -0.225   0.000  0.00  0.00    +0.000 C 
ATOM     12  O   UNL     1      -2.014  -1.050   0.000  0.00  0.00    +0.000 OA
ATOM     13  O   UNL     1      -1.300   0.187   0.000  0.00  0.00    +0.000 OA
ENDBRANCH   9  11
ENDBRANCH   1   9
TORSDOF 5
REMARK  Name = 
REMARK  10 active torsions:
REMARK  status: ('A' for Active; 'I' for Inactive)
REMARK    1  A    between atoms: C_1  and  C_2
REMARK    2  A    between atoms: C_2  and  C_3
REMARK    3  A    between atoms: C_3  and  C_4
REMARK    4  A    between atoms: C_4  and  C_5
REMARK    5  A    between atoms: C_5  and  C_6
REMARK    6  A    between atoms: C_14  and  C_15
REMARK    7  A    between atoms: C_15  and  C_16
REMARK    8  A    between atoms: C_16  and  C_17
REMARK    9  A    between atoms: C_17  and  C_18
REMARK   10  A    between atoms: C_18  and  C_19
REMARK                            x       y       z     vdW  Elec       q    Type
REMARK                         _______ _______ _______ _____ _____    ______ ____
ROOT
ATOM      1  C   UNL     1       4.158  -0.187   0.000  0.00  0.00    +0.000 C 
ATOM      2  O   UNL     1       4.158  -1.012   0.000  0.00  0.00    +0.000 OA
ENDROOT
BRANCH   1   3
ATOM      3  C   UNL     1       3.443   0.225   0.000  0.00  0.00    +0.000 C 
ATOM      4  O   UNL     1       3.443   1.050   0.000  0.00  0.00    +0.000 OA
BRANCH   3   5
ATOM      5  C   UNL     1       2.729  -0.187   0.000  0.00  0.00    +0.000 C 
ATOM      6  O   UNL     1       2.729  -1.012   0.000  0.00  0.00    +0.000 OA
BRANCH   5   7
ATOM      7  C   UNL     1       2.014   0.225   0.000  0.00  0.00    +0.000 C 
ATOM      8  O   UNL     1       1.300  -0.187   0.000  0.00  0.00    +0.000 OA
ENDBRANCH   5   7
ENDBRANCH   3   5
ENDBRANCH   1   3
BRANCH   1   9
ATOM      9  C   UNL     1       4.872   0.225   0.000  0.00  0.00    +0.000 C 
ATOM     10  O   UNL     1       4.872   1.050   0.000  0.00  0.00    +0.000 OA
BRANCH   9  11
ATOM     11  C   UNL     1       5.587  -0.187   0.000  0.00  0.00    +0.000 C 
ATOM     12  O   UNL     1       6.301   0.225   0.000  0.00  0.00    +0.000 OA
ATOM     13  O   UNL     1       5.587  -1.012   0.000  0.00  0.00    +0.000 OA
ENDBRANCH   9  11
ENDBRANCH   1   9
TORSDOF 5
REMARK  Name = 
REMARK  10 active torsions:
REMARK  status: ('A' for Active; 'I' for Inactive)
REMARK    1  A    between atoms: C_1  and  C_2
REMARK    2  A    between atoms: C_2  and  C_3
REMARK    3  A    between atoms: C_3  and  C_4
REMARK    4  A    between atoms: C_4  and  C_5
REMARK    5  A    between atoms: C_5  and  C_6
REMARK    6  A    between atoms: C_14  and  C_15
REMARK    7  A    between atoms: C_15  and  C_16
REMARK    8  A    between atoms: C_16  and  C_17
REMARK    9  A    between atoms: C_17  and  C_18
REMARK   10  A    between atoms: C_18  and  C_19
REMARK                            x       y       z     vdW  Elec       q    Type
REMARK                         _______ _______ _______ _____ _____    ______ ____
ROOT
ATOM      1 FE   UNL     1      -0.586   0.600   0.000  0.00  0.00    +0.000 Fe
ENDROOT
TORSDOF 0
