REMARK  Name = 
REMARK  2 active torsions:
REMARK  status: ('A' for Active; 'I' for Inactive)
REMARK    1  A    between atoms: O_2  and  C_3
REMARK    2  A    between atoms: C_24  and  O_25
REMARK                            x       y       z     vdW  Elec       q    Type
REMARK                         _______ _______ _______ _____ _____    ______ ____
ROOT
ATOM      1  C   UNL     1       5.877   1.746   0.000  0.00  0.00    +0.000 A 
ATOM      2  C   UNL     1       5.674   0.947   0.000  0.00  0.00    +0.000 A 
ATOM      3  C   UNL     1       4.879   0.724   0.000  0.00  0.00    +0.000 A 
ATOM      4  C   UNL     1       4.289   1.300   0.000  0.00  0.00    +0.000 A 
ATOM      5  C   UNL     1       4.493   2.099   0.000  0.00  0.00    +0.000 A 
ATOM      6  C   UNL     1       3.902   2.675   0.000  0.00  0.00    +0.000 A 
ATOM      7  N   UNL     1       3.108   2.452   0.000  0.00  0.00    +0.000 N 
ATOM      8  C   UNL     1       2.518   3.028   0.000  0.00  0.00    +0.000 C 
ATOM      9  C   UNL     1       2.904   1.653   0.000  0.00  0.00    +0.000 A 
ATOM     10  C   UNL     1       3.495   1.077   0.000  0.00  0.00    +0.000 A 
ATOM     11  C   UNL     1       3.291   0.277   0.000  0.00  0.00    +0.000 A 
ATOM     12  C   UNL     1       2.497   0.054   0.000  0.00  0.00    +0.000 A 
ATOM     13  C   UNL     1       1.906   0.630   0.000  0.00  0.00    +0.000 A 
ATOM     14  C   UNL     1       1.112   0.407   0.000  0.00  0.00    +0.000 A 
ATOM     15  C   UNL     1       0.522   0.983   0.000  0.00  0.00    +0.000 A 
ATOM     16  C   UNL     1       0.725   1.782   0.000  0.00  0.00    +0.000 A 
ATOM     17  O   UNL     1       0.028   2.223   0.000  0.00  0.00    +0.000 OA
ATOM     18  C   UNL     1      -0.607   1.696   0.000  0.00  0.00    +0.000 C 
ATOM     19  O   UNL     1      -0.302   0.930   0.000  0.00  0.00    +0.000 OA
ATOM     20  C   UNL     1       1.520   2.006   0.000  0.00  0.00    +0.000 A 
ATOM     21  C   UNL     1       2.110   1.429   0.000  0.00  0.00    +0.000 A 
ATOM     22  C   UNL     1       5.287   2.322   0.000  0.00  0.00    +0.000 A 
ENDROOT
BRANCH   1  24
ATOM     23  C   UNL     1       6.875   2.769   0.000  0.00  0.00    +0.000 C 
ATOM     24  O   UNL     1       6.672   1.969   0.000  0.00  0.00    +0.000 OA
ENDBRANCH   1  24
BRANCH  22  25
ATOM     25  O   UNL     1       5.491   3.122   0.000  0.00  0.00    +0.000 OA
ATOM     26  C   UNL     1       6.285   3.345   0.000  0.00  0.00    +0.000 C 
ENDBRANCH  22  25
TORSDOF 2
