REMARK  Name = 
REMARK  8 active torsions:
REMARK  status: ('A' for Active; 'I' for Inactive)
REMARK    1  A    between atoms: O_3  and  C_12
REMARK    2  A    between atoms: O_3  and  C_15
REMARK    3  A    between atoms: N_5  and  C_11
REMARK    4  A    between atoms: N_6  and  C_16
REMARK    5  A    between atoms: N_6  and  C_21
REMARK    6  A    between atoms: N_7  and  C_24
REMARK    7  A    between atoms: C_10  and  C_11
REMARK    8  A    between atoms: C_10  and  C_12
REMARK                            x       y       z     vdW  Elec       q    Type
REMARK                         _______ _______ _______ _____ _____    ______ ____
ROOT
ATOM      1  N   UNL     1      -0.715   1.031   0.000  0.00  0.00    +0.000 N 
ATOM      2  H   UNL     1      -1.157   1.287   0.000  0.00  0.00    +0.000 HD
ENDROOT
BRANCH   1   6
ATOM      3  N   UNL     1       0.715   3.506   0.000  0.00  0.00    +0.000 N 
ATOM      4  N   UNL     1       0.715   1.031   0.000  0.00  0.00    +0.000 NA
ATOM      5  N   UNL     1       1.429   2.269   0.000  0.00  0.00    +0.000 NA
ATOM      6  C   UNL     1       0.000   1.444   0.000  0.00  0.00    +0.000 A 
ATOM      7  C   UNL     1       0.000   2.269   0.000  0.00  0.00    +0.000 A 
ATOM      8  C   UNL     1       0.715   2.681   0.000  0.00  0.00    +0.000 A 
ATOM      9  C   UNL     1       1.429   1.444   0.000  0.00  0.00    +0.000 A 
ATOM     10  H   UNL     1       0.271   3.762   0.000  0.00  0.00    +0.000 HD
BRANCH   3  13
ATOM     11  F   UNL     1       0.715   5.156   0.000  0.00  0.00    +0.000 F 
ATOM     12  F   UNL     1       2.143   2.681   0.000  0.00  0.00    +0.000 F 
ATOM     13  C   UNL     1       1.429   3.919   0.000  0.00  0.00    +0.000 A 
ATOM     14  C   UNL     1       1.429   4.744   0.000  0.00  0.00    +0.000 A 
ATOM     15  C   UNL     1       2.143   3.506   0.000  0.00  0.00    +0.000 A 
ATOM     16  C   UNL     1       2.143   5.156   0.000  0.00  0.00    +0.000 A 
ATOM     17  C   UNL     1       2.858   3.919   0.000  0.00  0.00    +0.000 A 
ATOM     18  C   UNL     1       2.858   4.744   0.000  0.00  0.00    +0.000 A 
ENDBRANCH   3  13
ENDBRANCH   1   6
BRANCH   1  20
ATOM     19  C   UNL     1      -0.715  -1.444   0.000  0.00  0.00    +0.000 A 
ATOM     20  C   UNL     1      -0.715   0.206   0.000  0.00  0.00    +0.000 A 
ATOM     21  C   UNL     1       0.000  -1.031   0.000  0.00  0.00    +0.000 A 
ATOM     22  C   UNL     1      -1.429  -1.031   0.000  0.00  0.00    +0.000 A 
ATOM     23  C   UNL     1       0.000  -0.206   0.000  0.00  0.00    +0.000 A 
ATOM     24  C   UNL     1      -1.429  -0.206   0.000  0.00  0.00    +0.000 A 
BRANCH  19  25
ATOM     25  O   UNL     1      -0.715  -2.269   0.000  0.00  0.00    +0.000 OA
BRANCH  25  26
ATOM     26  C   UNL     1      -1.429  -2.681   0.000  0.00  0.00    +0.000 C 
BRANCH  26  28
ATOM     27  O   UNL     1      -0.715  -3.919   0.000  0.00  0.00    +0.000 OA
ATOM     28  C   UNL     1      -1.429  -3.506   0.000  0.00  0.00    +0.000 C 
BRANCH  28  29
ATOM     29  C   UNL     1      -2.143  -3.919   0.000  0.00  0.00    +0.000 C 
BRANCH  29  30
ATOM     30  N   UNL     1      -2.143  -4.744   0.000  0.00  0.00    +0.000 NA
ATOM     31  C   UNL     1      -2.858  -5.156   0.000  0.00  0.00    +0.000 C 
ATOM     32  C   UNL     1      -1.429  -5.156   0.000  0.00  0.00    +0.000 C 
ENDBRANCH  29  30
ENDBRANCH  28  29
ENDBRANCH  26  28
ENDBRANCH  25  26
ENDBRANCH  19  25
ENDBRANCH   1  20
TORSDOF 8
