REMARK  Name = 
REMARK  3 active torsions:
REMARK  status: ('A' for Active; 'I' for Inactive)
REMARK    1  A    between atoms: C_13  and  C_20
REMARK    2  A    between atoms: C_15  and  C_16
REMARK    3  A    between atoms: C_16  and  C_17
REMARK                            x       y       z     vdW  Elec       q    Type
REMARK                         _______ _______ _______ _____ _____    ______ ____
ROOT
ATOM      1  C   UNL     1       1.629   0.233   0.000  0.00  0.00    +0.000 C 
ATOM      2  C   UNL     1       1.949   0.994   0.000  0.00  0.00    +0.000 A 
ATOM      3  N   UNL     1       2.752   1.182   0.000  0.00  0.00    +0.000 NA
ATOM      4  O   UNL     1       2.821   2.004   0.000  0.00  0.00    +0.000 OA
ATOM      5  C   UNL     1       2.061   2.324   0.000  0.00  0.00    +0.000 A 
ATOM      6  C   UNL     1       1.521   1.700   0.000  0.00  0.00    +0.000 A 
ATOM      7  C   UNL     1       0.697   1.732   0.000  0.00  0.00    +0.000 A 
ATOM      8  C   UNL     1       0.208   2.396   0.000  0.00  0.00    +0.000 A 
ATOM      9  C   UNL     1      -0.612   2.305   0.000  0.00  0.00    +0.000 A 
ATOM     10  C   UNL     1      -0.943   1.550   0.000  0.00  0.00    +0.000 A 
ATOM     11  C   UNL     1      -0.454   0.885   0.000  0.00  0.00    +0.000 A 
ATOM     12  C   UNL     1       0.366   0.976   0.000  0.00  0.00    +0.000 A 
ATOM     13  C   UNL     1       0.423   3.193   0.000  0.00  0.00    +0.000 C 
ATOM     14  N   UNL     1       1.180   3.522   0.000  0.00  0.00    +0.000 NA
ATOM     15  C   UNL     1       1.909   3.135   0.000  0.00  0.00    +0.000 C 
ENDROOT
BRANCH  13  16
ATOM     16  C   UNL     1      -0.201   3.732   0.000  0.00  0.00    +0.000 A 
ATOM     17  C   UNL     1      -0.981   3.461   0.000  0.00  0.00    +0.000 A 
ATOM     18  C   UNL     1      -1.605   4.000   0.000  0.00  0.00    +0.000 A 
ATOM     19  C   UNL     1      -1.450   4.810   0.000  0.00  0.00    +0.000 A 
ATOM     20 CL   UNL     1      -2.075   5.350   0.000  0.00  0.00    +0.000 Cl
ATOM     21  C   UNL     1      -0.671   5.082   0.000  0.00  0.00    +0.000 A 
ATOM     22  C   UNL     1      -0.047   4.543   0.000  0.00  0.00    +0.000 A 
ENDBRANCH  13  16
BRANCH  15  23
ATOM     23  C   UNL     1       2.573   3.624   0.000  0.00  0.00    +0.000 C 
BRANCH  23  24
ATOM     24  C   UNL     1       2.482   4.444   0.000  0.00  0.00    +0.000 C 
ATOM     25  N   UNL     1       1.726   4.775   0.000  0.00  0.00    +0.000 NA
ATOM     26  O   UNL     1       3.147   4.933   0.000  0.00  0.00    +0.000 OA
ENDBRANCH  23  24
ENDBRANCH  15  23
TORSDOF 3
