REMARK  Name = 
REMARK  7 active torsions:
REMARK  status: ('A' for Active; 'I' for Inactive)
REMARK    1  A    between atoms: C_2  and  C_6
REMARK    2  A    between atoms: C_6  and  C_7
REMARK    3  A    between atoms: C_7  and  N_8
REMARK    4  A    between atoms: C_9  and  C_11
REMARK    5  A    between atoms: C_11  and  C_12
REMARK    6  A    between atoms: C_12  and  C_13
REMARK    7  A    between atoms: C_13  and  C_14
REMARK                            x       y       z     vdW  Elec       q    Type
REMARK                         _______ _______ _______ _____ _____    ______ ____
ROOT
ATOM      1  N   UNL     1      -0.707   0.263   0.000  0.00  0.00    +0.000 NA
ATOM      2  C   UNL     1       0.008  -0.149   0.000  0.00  0.00    +0.000 C 
ATOM      3  O   UNL     1       0.008  -0.974   0.000  0.00  0.00    +0.000 OA
ENDROOT
BRANCH   1   4
ATOM      4  C   UNL     1      -1.421  -0.149   0.000  0.00  0.00    +0.000 C 
BRANCH   4   5
ATOM      5  C   UNL     1      -2.136   0.263   0.000  0.00  0.00    +0.000 C 
BRANCH   5   7
ATOM      6  C   UNL     1      -3.604   0.186   0.000  0.00  0.00    +0.000 A 
ATOM      7  C   UNL     1      -2.850  -0.149   0.000  0.00  0.00    +0.000 A 
ATOM      8  N   UNL     1      -2.936  -0.970   0.000  0.00  0.00    +0.000 NA
ATOM      9  C   UNL     1      -3.743  -1.141   0.000  0.00  0.00    +0.000 A 
ATOM     10  N   UNL     1      -4.156  -0.427   0.000  0.00  0.00    +0.000 NA
ENDBRANCH   5   7
ENDBRANCH   4   5
ENDBRANCH   1   4
BRANCH   2  11
ATOM     11  C   UNL     1       0.722   0.263   0.000  0.00  0.00    +0.000 C 
BRANCH  11  12
ATOM     12  C   UNL     1       1.437  -0.149   0.000  0.00  0.00    +0.000 C 
BRANCH  12  13
ATOM     13  C   UNL     1       2.151   0.263   0.000  0.00  0.00    +0.000 C 
BRANCH  13  14
ATOM     14  C   UNL     1       2.866  -0.149   0.000  0.00  0.00    +0.000 C 
ATOM     15  O   UNL     1       3.580   0.263   0.000  0.00  0.00    +0.000 OA
ATOM     16  O   UNL     1       2.866  -0.974   0.000  0.00  0.00    +0.000 OA
ENDBRANCH  13  14
ENDBRANCH  12  13
ENDBRANCH  11  12
ENDBRANCH   2  11
TORSDOF 7
