REMARK  Name = 
REMARK  5 active torsions:
REMARK  status: ('A' for Active; 'I' for Inactive)
REMARK    1  A    between atoms: C_9  and  C_16
REMARK    2  A    between atoms: C_9  and  O_29
REMARK    3  A    between atoms: C_11  and  C_12
REMARK    4  A    between atoms: C_17  and  C_18
REMARK    5  A    between atoms: C_19  and  O_29
REMARK                            x       y       z     vdW  Elec       q    Type
REMARK                         _______ _______ _______ _____ _____    ______ ____
ROOT
ATOM      1  C   UNL     1      -0.525  -1.525   0.000  0.00  0.00    +0.000 A 
ATOM      2  C   UNL     1       0.189  -1.112   0.000  0.00  0.00    +0.000 A 
ATOM      3  C   UNL     1      -1.240  -1.112   0.000  0.00  0.00    +0.000 A 
ATOM      4  C   UNL     1      -2.024  -0.032   0.000  0.00  0.00    +0.000 A 
ATOM      5  C   UNL     1       0.189  -0.287   0.000  0.00  0.00    +0.000 A 
ATOM      6  N   UNL     1      -2.024  -1.367   0.000  0.00  0.00    +0.000 NA
ATOM      7  N   UNL     1      -2.509  -0.700   0.000  0.00  0.00    +0.000 NA
ATOM      8  N   UNL     1      -0.525   0.125   0.000  0.00  0.00    +0.000 NA
ATOM      9  N   UNL     1      -1.240  -0.287   0.000  0.00  0.00    +0.000 N 
ENDROOT
BRANCH   4  15
ATOM     10  C   UNL     1      -2.789   2.321   0.000  0.00  0.00    +0.000 A 
ATOM     11  C   UNL     1      -3.341   1.708   0.000  0.00  0.00    +0.000 A 
ATOM     12  C   UNL     1      -1.982   2.150   0.000  0.00  0.00    +0.000 A 
ATOM     13  C   UNL     1      -3.086   0.924   0.000  0.00  0.00    +0.000 A 
ATOM     14  C   UNL     1      -1.727   1.365   0.000  0.00  0.00    +0.000 A 
ATOM     15  C   UNL     1      -2.279   0.752   0.000  0.00  0.00    +0.000 A 
ATOM     16  F   UNL     1      -3.638   0.311   0.000  0.00  0.00    +0.000 F 
ATOM     17  F   UNL     1      -0.920   1.194   0.000  0.00  0.00    +0.000 F 
ENDBRANCH   4  15
BRANCH   2  21
ATOM     18  C   UNL     1       1.914  -2.108   0.000  0.00  0.00    +0.000 C 
ATOM     19  C   UNL     1       1.700  -1.311   0.000  0.00  0.00    +0.000 C 
ATOM     20  C   UNL     1       1.117  -2.321   0.000  0.00  0.00    +0.000 C 
ATOM     21  C   UNL     1       0.904  -1.525   0.000  0.00  0.00    +0.000 C 
ENDBRANCH   2  21
BRANCH   5  22
ATOM     22  O   UNL     1       0.904   0.125   0.000  0.00  0.00    +0.000 OA
BRANCH  22  23
ATOM     23  C   UNL     1       1.618  -0.287   0.000  0.00  0.00    +0.000 C 
BRANCH  23  26
ATOM     24  C   UNL     1       3.258  -1.017   0.000  0.00  0.00    +0.000 C 
ATOM     25  C   UNL     1       3.226   1.117   0.000  0.00  0.00    +0.000 A 
ATOM     26  C   UNL     1       2.333   0.125   0.000  0.00  0.00    +0.000 A 
ATOM     27  N   UNL     1       2.419   0.946   0.000  0.00  0.00    +0.000 NA
ATOM     28  N   UNL     1       3.638   0.403   0.000  0.00  0.00    +0.000 NA
ATOM     29  N   UNL     1       3.086  -0.210   0.000  0.00  0.00    +0.000 N 
ENDBRANCH  23  26
ENDBRANCH  22  23
ENDBRANCH   5  22
TORSDOF 5
