REMARK  Name = 
REMARK  7 active torsions:
REMARK  status: ('A' for Active; 'I' for Inactive)
REMARK    1  A    between atoms: N_4  and  C_6
REMARK    2  A    between atoms: N_4  and  C_11
REMARK    3  A    between atoms: N_4  and  C_12
REMARK    4  A    between atoms: N_5  and  C_7
REMARK    5  A    between atoms: N_5  and  C_8
REMARK    6  A    between atoms: C_6  and  C_7
REMARK    7  A    between atoms: C_13  and  C_21
REMARK                            x       y       z     vdW  Elec       q    Type
REMARK                         _______ _______ _______ _____ _____    ______ ____
ROOT
ATOM      1  S   UNL     1      -1.041  -2.070   0.000  0.00  0.00    +0.000 S 
ATOM      2  O   UNL     1      -1.041   0.404   0.000  0.00  0.00    +0.000 OA
ATOM      3  C   UNL     1       0.411  -0.392   0.000  0.00  0.00    +0.000 A 
ATOM      4  C   UNL     1      -0.326  -0.833   0.000  0.00  0.00    +0.000 A 
ATOM      5  C   UNL     1      -0.326  -1.658   0.000  0.00  0.00    +0.000 A 
ATOM      6  C   UNL     1       0.411  -2.099   0.000  0.00  0.00    +0.000 A 
ATOM      7  C   UNL     1      -1.041  -0.420   0.000  0.00  0.00    +0.000 A 
ATOM      8  C   UNL     1       1.158  -0.816   0.000  0.00  0.00    +0.000 A 
ATOM      9  C   UNL     1      -1.755  -0.833   0.000  0.00  0.00    +0.000 A 
ATOM     10  C   UNL     1       1.158  -1.675   0.000  0.00  0.00    +0.000 A 
ATOM     11  C   UNL     1      -1.755  -1.658   0.000  0.00  0.00    +0.000 A 
ATOM     12  C   UNL     1      -2.492  -0.392   0.000  0.00  0.00    +0.000 A 
ATOM     13  C   UNL     1      -2.492  -2.099   0.000  0.00  0.00    +0.000 A 
ATOM     14  C   UNL     1      -3.240  -0.816   0.000  0.00  0.00    +0.000 A 
ATOM     15  C   UNL     1      -3.240  -1.675   0.000  0.00  0.00    +0.000 A 
ENDROOT
BRANCH   6  17
ATOM     16  O   UNL     1       1.111  -3.344   0.000  0.00  0.00    +0.000 OA
ATOM     17  C   UNL     1       0.402  -2.924   0.000  0.00  0.00    +0.000 C 
ENDBRANCH   6  17
BRANCH   3  18
ATOM     18  N   UNL     1       0.402   0.433   0.000  0.00  0.00    +0.000 NA
BRANCH  18  19
ATOM     19  C   UNL     1       1.111   0.853   0.000  0.00  0.00    +0.000 C 
BRANCH  19  20
ATOM     20  C   UNL     1       1.102   1.678   0.000  0.00  0.00    +0.000 C 
BRANCH  20  21
ATOM     21  N   UNL     1       1.811   2.099   0.000  0.00  0.00    +0.000 NA
BRANCH  21  22
ATOM     22  C   UNL     1       2.530   1.695   0.000  0.00  0.00    +0.000 C 
ATOM     23  C   UNL     1       3.240   2.115   0.000  0.00  0.00    +0.000 C 
ENDBRANCH  21  22
BRANCH  21  24
ATOM     24  C   UNL     1       1.802   2.924   0.000  0.00  0.00    +0.000 C 
ATOM     25  C   UNL     1       2.511   3.344   0.000  0.00  0.00    +0.000 C 
ENDBRANCH  21  24
ENDBRANCH  20  21
ENDBRANCH  19  20
ENDBRANCH  18  19
ENDBRANCH   3  18
TORSDOF 7
