REMARK  Name = 
REMARK  2 active torsions:
REMARK  status: ('A' for Active; 'I' for Inactive)
REMARK    1  A    between atoms: N_9  and  C_16
REMARK    2  A    between atoms: C_17  and  C_18
REMARK                            x       y       z     vdW  Elec       q    Type
REMARK                         _______ _______ _______ _____ _____    ______ ____
ROOT
ATOM      1  O   UNL     1      -1.298  -2.915   0.000  0.00  0.00    +0.000 OA
ATOM      2  N   UNL     1       0.197  -0.601   0.000  0.00  0.00    +0.000 N 
ATOM      3  N   UNL     1      -1.298  -0.440   0.000  0.00  0.00    +0.000 N 
ATOM      4  N   UNL     1       0.197  -1.929   0.000  0.00  0.00    +0.000 NA
ATOM      5  N   UNL     1      -2.012  -1.678   0.000  0.00  0.00    +0.000 NA
ATOM      6  N   UNL     1      -2.727  -0.440   0.000  0.00  0.00    +0.000 N 
ATOM      7  C   UNL     1      -0.583  -0.853   0.000  0.00  0.00    +0.000 A 
ATOM      8  C   UNL     1       0.679  -1.265   0.000  0.00  0.00    +0.000 A 
ATOM      9  C   UNL     1      -0.583  -1.678   0.000  0.00  0.00    +0.000 A 
ATOM     10  C   UNL     1      -1.298  -2.090   0.000  0.00  0.00    +0.000 A 
ATOM     11  C   UNL     1      -2.012  -0.853   0.000  0.00  0.00    +0.000 A 
ATOM     12  H   UNL     1      -1.298   0.071   0.000  0.00  0.00    +0.000 HD
ATOM     13  H   UNL     1      -3.170  -0.696   0.000  0.00  0.00    +0.000 HD
ATOM     14  H   UNL     1      -2.727   0.071   0.000  0.00  0.00    +0.000 HD
ENDROOT
BRANCH   2  23
ATOM     15  S   UNL     1       3.168   0.361   0.000  0.00  0.00    +0.000 S 
ATOM     16  P   UNL     1       2.502   0.847   0.000  0.00  0.00    +0.000 P 
ATOM     17  O   UNL     1      -0.030   0.851   0.000  0.00  0.00    +0.000 OA
ATOM     18  O   UNL     1       2.019   0.184   0.000  0.00  0.00    +0.000 OA
ATOM     19  O   UNL     1       2.021   1.512   0.000  0.00  0.00    +0.000 OA
ATOM     20  O   UNL     1       3.170   1.331   0.000  0.00  0.00    +0.000 OA
ATOM     21  C   UNL     1       1.239   0.436   0.000  0.00  0.00    +0.000 C 
ATOM     22  C   UNL     1       1.240   1.262   0.000  0.00  0.00    +0.000 C 
ATOM     23  C   UNL     1       0.454   0.183   0.000  0.00  0.00    +0.000 C 
ATOM     24  C   UNL     1       0.456   1.518   0.000  0.00  0.00    +0.000 C 
BRANCH  24  26
ATOM     25  O   UNL     1       0.755   2.915   0.000  0.00  0.00    +0.000 OA
ATOM     26  C   UNL     1       0.202   2.303   0.000  0.00  0.00    +0.000 C 
ENDBRANCH  24  26
ENDBRANCH   2  23
TORSDOF 2
