REMARK  Name = 
REMARK  5 active torsions:
REMARK  status: ('A' for Active; 'I' for Inactive)
REMARK    1  A    between atoms: C_2  and  N_4
REMARK    2  A    between atoms: C_8  and  C_9
REMARK    3  A    between atoms: C_15  and  C_17
REMARK    4  A    between atoms: C_19  and  N_20
REMARK    5  A    between atoms: C_23  and  C_25
REMARK                            x       y       z     vdW  Elec       q    Type
REMARK                         _______ _______ _______ _____ _____    ______ ____
ROOT
ATOM      1  C   UNL     1      -3.147  11.674   0.000  0.00  0.00    +0.000 A 
ATOM      2  C   UNL     1      -2.326  11.760   0.000  0.00  0.00    +0.000 A 
ATOM      3  C   UNL     1      -1.841  11.092   0.000  0.00  0.00    +0.000 A 
ATOM      4  C   UNL     1      -2.177  10.339   0.000  0.00  0.00    +0.000 A 
ATOM      5  C   UNL     1      -2.998  10.252   0.000  0.00  0.00    +0.000 A 
ATOM      6  N   UNL     1      -3.333   9.499   0.000  0.00  0.00    +0.000 NA
ATOM      7  C   UNL     1      -2.848   8.831   0.000  0.00  0.00    +0.000 C 
ATOM      8  O   UNL     1      -2.028   8.918   0.000  0.00  0.00    +0.000 OA
ATOM      9  N   UNL     1      -3.482  10.920   0.000  0.00  0.00    +0.000 NA
ENDROOT
BRANCH   7  10
ATOM     10  C   UNL     1      -3.184   8.078   0.000  0.00  0.00    +0.000 A 
ATOM     11  C   UNL     1      -2.699   7.410   0.000  0.00  0.00    +0.000 A 
ATOM     12  C   UNL     1      -3.034   6.657   0.000  0.00  0.00    +0.000 A 
ATOM     13  C   UNL     1      -3.855   6.570   0.000  0.00  0.00    +0.000 A 
ATOM     14  C   UNL     1      -4.190   5.817   0.000  0.00  0.00    +0.000 C 
ATOM     15  C   UNL     1      -4.340   7.238   0.000  0.00  0.00    +0.000 A 
ATOM     16  C   UNL     1      -4.004   7.992   0.000  0.00  0.00    +0.000 A 
ATOM     17  F   UNL     1      -4.489   8.659   0.000  0.00  0.00    +0.000 F 
BRANCH  12  18
ATOM     18  N   UNL     1      -2.550   5.989   0.000  0.00  0.00    +0.000 N 
ATOM     19  C   UNL     1      -1.724   5.989   0.000  0.00  0.00    +0.000 A 
ATOM     20  N   UNL     1      -1.470   5.205   0.000  0.00  0.00    +0.000 NA
ATOM     21  C   UNL     1      -2.137   4.720   0.000  0.00  0.00    +0.000 A 
ATOM     22  C   UNL     1      -2.804   5.205   0.000  0.00  0.00    +0.000 A 
BRANCH  21  23
ATOM     23  C   UNL     1      -2.137   3.895   0.000  0.00  0.00    +0.000 C 
ATOM     24  C   UNL     1      -1.724   3.180   0.000  0.00  0.00    +0.000 C 
ATOM     25  C   UNL     1      -2.550   3.180   0.000  0.00  0.00    +0.000 C 
ENDBRANCH  21  23
ENDBRANCH  12  18
ENDBRANCH   7  10
BRANCH   1  30
ATOM     26  N   UNL     1      -4.457  12.341   0.000  0.00  0.00    +0.000 N 
ATOM     27  C   UNL     1      -4.712  13.126   0.000  0.00  0.00    +0.000 A 
ATOM     28  N   UNL     1      -4.044  13.611   0.000  0.00  0.00    +0.000 NA
ATOM     29  N   UNL     1      -3.377  13.126   0.000  0.00  0.00    +0.000 NA
ATOM     30  C   UNL     1      -3.632  12.341   0.000  0.00  0.00    +0.000 A 
BRANCH  26  32
ATOM     31  C   UNL     1      -5.762  11.760   0.000  0.00  0.00    +0.000 C 
ATOM     32  C   UNL     1      -4.942  11.674   0.000  0.00  0.00    +0.000 C 
ATOM     33  C   UNL     1      -4.606  10.920   0.000  0.00  0.00    +0.000 C 
ENDBRANCH  26  32
ENDBRANCH   1  30
TORSDOF 5
