REMARK  Name = 
REMARK  5 active torsions:
REMARK  status: ('A' for Active; 'I' for Inactive)
REMARK    1  A    between atoms: C_15  and  C_26
REMARK    2  A    between atoms: C_15  and  O_30
REMARK    3  A    between atoms: C_26  and  C_27
REMARK    4  A    between atoms: O_30  and  C_31
REMARK    5  A    between atoms: C_31  and  C_33
REMARK                            x       y       z     vdW  Elec       q    Type
REMARK                         _______ _______ _______ _____ _____    ______ ____
ROOT
ATOM      1  C   UNL     1      -0.758  -1.984   0.000  0.00  0.00    +0.000 C 
ATOM      2  C   UNL     1      -0.758  -1.159   0.000  0.00  0.00    +0.000 C 
ATOM      3  C   UNL     1      -2.187  -1.984   0.000  0.00  0.00    +0.000 C 
ATOM      4  C   UNL     1      -1.472  -2.396   0.000  0.00  0.00    +0.000 C 
ATOM      5  C   UNL     1      -1.472  -0.746   0.000  0.00  0.00    +0.000 C 
ATOM      6  C   UNL     1      -2.187  -1.159   0.000  0.00  0.00    +0.000 C 
ATOM      7  C   UNL     1      -3.616  -1.159   0.000  0.00  0.00    +0.000 C 
ATOM      8  C   UNL     1      -3.616  -1.984   0.000  0.00  0.00    +0.000 C 
ATOM      9  C   UNL     1      -2.901  -2.396   0.000  0.00  0.00    +0.000 C 
ATOM     10  C   UNL     1      -2.901  -0.746   0.000  0.00  0.00    +0.000 C 
ATOM     11  C   UNL     1      -0.758   0.491   0.000  0.00  0.00    +0.000 C 
ATOM     12  C   UNL     1      -1.472   0.079   0.000  0.00  0.00    +0.000 C 
ATOM     13  C   UNL     1       0.741  -1.001   0.000  0.00  0.00    +0.000 C 
ATOM     14  C   UNL     1       1.226  -0.334   0.000  0.00  0.00    +0.000 C 
ATOM     15  C   UNL     1       0.741   0.334   0.000  0.00  0.00    +0.000 C 
ATOM     16  O   UNL     1      -4.330  -2.396   0.000  0.00  0.00    +0.000 OA
ATOM     17 CL   UNL     1      -1.472  -1.571   0.000  0.00  0.00    +0.000 Cl
ATOM     18  C   UNL     1      -0.043   0.079   0.000  0.00  0.00    +0.000 C 
ATOM     19  C   UNL     1      -0.043   0.904   0.000  0.00  0.00    +0.000 C 
ATOM     20  C   UNL     1      -0.043  -0.746   0.000  0.00  0.00    +0.000 C 
ATOM     21  C   UNL     1      -2.187  -0.334   0.000  0.00  0.00    +0.000 C 
ATOM     22  O   UNL     1      -2.187   0.491   0.000  0.00  0.00    +0.000 OA
ATOM     23  C   UNL     1       2.051  -0.334   0.000  0.00  0.00    +0.000 C 
ENDROOT
BRANCH  15  24
ATOM     24  C   UNL     1       0.741   1.159   0.000  0.00  0.00    +0.000 C 
ATOM     25  O   UNL     1       0.027   1.571   0.000  0.00  0.00    +0.000 OA
BRANCH  24  26
ATOM     26  C   UNL     1       1.456   1.571   0.000  0.00  0.00    +0.000 C 
ATOM     27 CL   UNL     1       1.456   2.396   0.000  0.00  0.00    +0.000 Cl
ENDBRANCH  24  26
ENDBRANCH  15  24
BRANCH  15  28
ATOM     28  O   UNL     1       1.566   0.334   0.000  0.00  0.00    +0.000 OA
BRANCH  28  29
ATOM     29  C   UNL     1       2.281   0.746   0.000  0.00  0.00    +0.000 C 
ATOM     30  O   UNL     1       2.281   1.571   0.000  0.00  0.00    +0.000 OA
BRANCH  29  31
ATOM     31  C   UNL     1       2.995   0.334   0.000  0.00  0.00    +0.000 A 
ATOM     32  O   UNL     1       3.663   0.819   0.000  0.00  0.00    +0.000 OA
ATOM     33  C   UNL     1       3.250  -0.451   0.000  0.00  0.00    +0.000 A 
ATOM     34  C   UNL     1       4.075  -0.451   0.000  0.00  0.00    +0.000 A 
ATOM     35  C   UNL     1       4.330   0.334   0.000  0.00  0.00    +0.000 A 
ENDBRANCH  29  31
ENDBRANCH  28  29
ENDBRANCH  15  28
TORSDOF 5
