REMARK  Name = 
REMARK  10 active torsions:
REMARK  status: ('A' for Active; 'I' for Inactive)
REMARK    1  A    between atoms: C_1  and  C_6
REMARK    2  A    between atoms: C_2  and  C_16
REMARK    3  A    between atoms: N_3  and  C_4
REMARK    4  A    between atoms: C_4  and  C_8
REMARK    5  A    between atoms: C_4  and  C_15
REMARK    6  A    between atoms: C_5  and  C_17
REMARK    7  A    between atoms: C_6  and  C_8
REMARK    8  A    between atoms: C_7  and  C_12
REMARK    9  A    between atoms: C_15  and  C_19
REMARK   10  A    between atoms: C_16  and  C_17
REMARK                            x       y       z     vdW  Elec       q    Type
REMARK                         _______ _______ _______ _____ _____    ______ ____
ROOT
ATOM      1  C   UNL     1       0.712   1.634   0.000  0.00  0.00    +0.000 C 
ENDROOT
BRANCH   1   3
ATOM      2  C   UNL     1      -0.712   1.643   0.000  0.00  0.00    +0.000 C 
ATOM      3  N   UNL     1       0.008   2.047   0.000  0.00  0.00    +0.000 NA
ATOM      4  O   UNL     1      -0.737   1.043   0.000  0.00  0.00    +0.000 OA
BRANCH   2   5
ATOM      5  C   UNL     1      -1.424   2.055   0.000  0.00  0.00    +0.000 C 
BRANCH   5   6
ATOM      6  C   UNL     1      -2.136   1.647   0.000  0.00  0.00    +0.000 C 
BRANCH   6   7
ATOM      7  C   UNL     1      -2.848   2.067   0.000  0.00  0.00    +0.000 C 
ATOM      8  O   UNL     1      -3.573   1.655   0.000  0.00  0.00    +0.000 OA
ATOM      9  O   UNL     1      -2.848   2.892   0.000  0.00  0.00    +0.000 OA
ENDBRANCH   6   7
ENDBRANCH   5   6
ENDBRANCH   2   5
ENDBRANCH   1   3
BRANCH   1  10
ATOM     10  C   UNL     1       1.432   2.047   0.000  0.00  0.00    +0.000 C 
BRANCH  10  11
ATOM     11  C   UNL     1       2.149   1.634   0.000  0.00  0.00    +0.000 C 
ATOM     12  C   UNL     1       2.149   0.810   0.000  0.00  0.00    +0.000 C 
BRANCH  11  13
ATOM     13  C   UNL     1       2.861   2.047   0.000  0.00  0.00    +0.000 C 
ATOM     14  O   UNL     1       2.861   2.879   0.000  0.00  0.00    +0.000 OA
ATOM     15  O   UNL     1       3.573   1.643   0.000  0.00  0.00    +0.000 OA
ENDBRANCH  11  13
ENDBRANCH  10  11
ENDBRANCH   1  10
BRANCH   1  16
ATOM     16  C   UNL     1       0.712   0.810   0.000  0.00  0.00    +0.000 C 
BRANCH  16  20
ATOM     17  C   UNL     1      -1.049  -0.931   0.000  0.00  0.00    +0.000 A 
ATOM     18  C   UNL     1      -1.262  -0.131   0.000  0.00  0.00    +0.000 A 
ATOM     19  C   UNL     1      -0.241  -1.151   0.000  0.00  0.00    +0.000 A 
ATOM     20  C   UNL     1       0.133   0.231   0.000  0.00  0.00    +0.000 A 
ATOM     21  C   UNL     1       0.337  -0.568   0.000  0.00  0.00    +0.000 A 
ATOM     22  C   UNL     1      -0.666   0.456   0.000  0.00  0.00    +0.000 A 
BRANCH  17  23
ATOM     23  C   UNL     1      -1.636  -1.514   0.000  0.00  0.00    +0.000 A 
ATOM     24  C   UNL     1      -2.424  -1.293   0.000  0.00  0.00    +0.000 A 
ATOM     25  C   UNL     1      -1.424  -2.305   0.000  0.00  0.00    +0.000 A 
ATOM     26  C   UNL     1      -1.999  -2.892   0.000  0.00  0.00    +0.000 A 
ATOM     27  C   UNL     1      -3.011  -1.876   0.000  0.00  0.00    +0.000 A 
ATOM     28  C   UNL     1      -2.798  -2.675   0.000  0.00  0.00    +0.000 A 
ENDBRANCH  17  23
ENDBRANCH  16  20
ENDBRANCH   1  16
TORSDOF 10
