REMARK  Name = 
REMARK  1 active torsions:
REMARK  status: ('A' for Active; 'I' for Inactive)
REMARK    1  A    between atoms: C_1  and  C_4
REMARK                            x       y       z     vdW  Elec       q    Type
REMARK                         _______ _______ _______ _____ _____    ______ ____
ROOT
ATOM      1  C   UNL     1      -0.084  -0.484   0.000  0.00  0.00    +0.000 A 
ATOM      2  C   UNL     1       0.171   0.301   0.000  0.00  0.00    +0.000 A 
ATOM      3  O   UNL     1       0.584  -0.968   0.000  0.00  0.00    +0.000 OA
ATOM      4  C   UNL     1       0.996   0.301   0.000  0.00  0.00    +0.000 A 
ATOM      5  N   UNL     1       1.251  -0.484   0.000  0.00  0.00    +0.000 NA
ATOM      6  O   UNL     1       1.481   0.968   0.000  0.00  0.00    +0.000 OA
ENDROOT
BRANCH   1   7
ATOM      7  C   UNL     1      -0.868  -0.739   0.000  0.00  0.00    +0.000 C 
ATOM      8  N   UNL     1      -1.481  -0.186   0.000  0.00  0.00    +0.000 NA
ENDBRANCH   1   7
TORSDOF 1
