REMARK  Name = 
REMARK  12 active torsions:
REMARK  status: ('A' for Active; 'I' for Inactive)
REMARK    1  A    between atoms: C_14  and  C_26
REMARK    2  A    between atoms: C_26  and  C_47
REMARK    3  A    between atoms: C_27  and  C_54
REMARK    4  A    between atoms: C_27  and  N_74
REMARK    5  A    between atoms: C_29  and  C_55
REMARK    6  A    between atoms: C_29  and  N_77
REMARK    7  A    between atoms: C_32  and  C_37
REMARK    8  A    between atoms: C_33  and  C_48
REMARK    9  A    between atoms: C_35  and  C_71
REMARK   10  A    between atoms: C_40  and  C_66
REMARK   11  A    between atoms: C_43  and  C_59
REMARK   12  A    between atoms: C_53  and  C_71
REMARK                            x       y       z     vdW  Elec       q    Type
REMARK                         _______ _______ _______ _____ _____    ______ ____
ROOT
ATOM      1  C   UNL     1       5.070   3.442   0.000  0.00  0.00    +0.000 C 
ATOM      2  C   UNL     1      12.519  -0.408   0.000  0.00  0.00    +0.000 C 
ATOM      3  C   UNL     1       9.427   0.436   0.000  0.00  0.00    +0.000 C 
ATOM      4  C   UNL     1      14.437   2.155   0.000  0.00  0.00    +0.000 C 
ATOM      5  C   UNL     1      11.309   6.668   0.000  0.00  0.00    +0.000 C 
ATOM      6  C   UNL     1       5.795   3.048   0.000  0.00  0.00    +0.000 C 
ATOM      7  C   UNL     1       8.151   5.002   0.000  0.00  0.00    +0.000 C 
ATOM      8  C   UNL     1       8.690   4.383   0.000  0.00  0.00    +0.000 C 
ATOM      9  C   UNL     1      13.787   4.545   0.000  0.00  0.00    +0.000 C 
ATOM     10  C   UNL     1      13.192   4.148   0.000  0.00  0.00    +0.000 C 
ATOM     11  C   UNL     1       8.167   7.191   0.000  0.00  0.00    +0.000 A 
ATOM     12  C   UNL     1      13.065   6.514   0.000  0.00  0.00    +0.000 A 
ATOM     13  C   UNL     1       5.182   5.209   0.000  0.00  0.00    +0.000 C 
ATOM     14  C   UNL     1       8.449   9.803   0.000  0.00  0.00    +0.000 A 
ATOM     15  C   UNL     1      11.774   2.271   0.000  0.00  0.00    +0.000 A 
ATOM     16  C   UNL     1      12.121   0.314   0.000  0.00  0.00    +0.000 C 
ATOM     17  C   UNL     1      10.172   0.790   0.000  0.00  0.00    +0.000 C 
ATOM     18  C   UNL     1      13.616   2.227   0.000  0.00  0.00    +0.000 C 
ATOM     19  C   UNL     1      11.064   7.455   0.000  0.00  0.00    +0.000 C 
ATOM     20  C   UNL     1       8.415   5.787   0.000  0.00  0.00    +0.000 A 
ATOM     21  C   UNL     1       7.890   6.431   0.000  0.00  0.00    +0.000 A 
ATOM     22  C   UNL     1       6.498   3.479   0.000  0.00  0.00    +0.000 C 
ATOM     23  C   UNL     1       9.509   4.552   0.000  0.00  0.00    +0.000 C 
ATOM     24  C   UNL     1      13.692   5.365   0.000  0.00  0.00    +0.000 C 
ATOM     25  C   UNL     1       9.000   7.332   0.000  0.00  0.00    +0.000 A 
ATOM     26  C   UNL     1      12.365   6.057   0.000  0.00  0.00    +0.000 A 
ATOM     27  C   UNL     1       9.051   9.211   0.000  0.00  0.00    +0.000 A 
ATOM     28  C   UNL     1       5.916   5.633   0.000  0.00  0.00    +0.000 C 
ATOM     29  C   UNL     1      10.959   2.520   0.000  0.00  0.00    +0.000 A 
ATOM     30  C   UNL     1       9.628   3.314   0.000  0.00  0.00    +0.000 C 
ATOM     31  C   UNL     1       8.398   1.893   0.000  0.00  0.00    +0.000 C 
ATOM     32  C   UNL     1      11.469   8.171   0.000  0.00  0.00    +0.000 C 
ATOM     33  C   UNL     1       9.246   5.941   0.000  0.00  0.00    +0.000 A 
ATOM     34  C   UNL     1       9.797   5.327   0.000  0.00  0.00    +0.000 C 
ATOM     35  C   UNL     1      12.273   5.200   0.000  0.00  0.00    +0.000 C 
ATOM     36  C   UNL     1       7.038   8.027   0.000  0.00  0.00    +0.000 C 
ATOM     37  C   UNL     1      12.872   0.752   0.000  0.00  0.00    +0.000 C 
ATOM     38  C   UNL     1      10.569   0.041   0.000  0.00  0.00    +0.000 C 
ATOM     39  C   UNL     1      13.495   3.113   0.000  0.00  0.00    +0.000 C 
ATOM     40  C   UNL     1       9.969   9.133   0.000  0.00  0.00    +0.000 C 
ATOM     41  C   UNL     1      10.174   2.147   0.000  0.00  0.00    +0.000 C 
ATOM     42  C   UNL     1       6.160   6.493   0.000  0.00  0.00    +0.000 C 
ATOM     43  C   UNL     1       9.596   2.465   0.000  0.00  0.00    +0.000 C 
ATOM     44  C   UNL     1       7.609   2.220   0.000  0.00  0.00    +0.000 C 
ATOM     45  C   UNL     1       6.120   4.227   0.000  0.00  0.00    +0.000 C 
ATOM     46  C   UNL     1      12.027   7.436   0.000  0.00  0.00    +0.000 A 
ATOM     47  C   UNL     1       7.667   8.649   0.000  0.00  0.00    +0.000 A 
ATOM     48  C   UNL     1       9.544   7.933   0.000  0.00  0.00    +0.000 C 
ATOM     49  C   UNL     1      11.828   3.661   0.000  0.00  0.00    +0.000 A 
ATOM     50  C   UNL     1      12.368   4.380   0.000  0.00  0.00    +0.000 C 
ATOM     51  N   UNL     1      11.381  -0.072   0.000  0.00  0.00    +0.000 NA
ATOM     52  N   UNL     1      13.361   1.432   0.000  0.00  0.00    +0.000 NA
ATOM     53  N   UNL     1       9.839   1.579   0.000  0.00  0.00    +0.000 NA
ATOM     54  N   UNL     1      10.097   3.994   0.000  0.00  0.00    +0.000 NA
ATOM     55  N   UNL     1       9.521   6.708   0.000  0.00  0.00    +0.000 NA
ATOM     56  N   UNL     1      12.935   5.692   0.000  0.00  0.00    +0.000 NA
ATOM     57  N   UNL     1       7.004   2.788   0.000  0.00  0.00    +0.000 NA
ATOM     58  N   UNL     1      11.764   6.639   0.000  0.00  0.00    +0.000 NA
ATOM     59  N   UNL     1       6.480   4.994   0.000  0.00  0.00    +0.000 NA
ATOM     60  N   UNL     1       8.522   8.525   0.000  0.00  0.00    +0.000 NA
ATOM     61  N   UNL     1      11.018   3.364   0.000  0.00  0.00    +0.000 NA
ATOM     62  N   UNL     1       9.261   1.907   0.000  0.00  0.00    +0.000 NA
ATOM     63  N   UNL     1      10.791   8.777   0.000  0.00  0.00    +0.000 NA
ATOM     64  N   UNL     1       6.524   7.300   0.000  0.00  0.00    +0.000 NA
ATOM     65  N   UNL     1      13.148   3.839   0.000  0.00  0.00    +0.000 NA
ATOM     66  O   UNL     1      10.608   5.481   0.000  0.00  0.00    +0.000 OA
ATOM     67  O   UNL     1      13.427   0.142   0.000  0.00  0.00    +0.000 OA
ATOM     68  O   UNL     1      10.097  -0.635   0.000  0.00  0.00    +0.000 OA
ATOM     69  O   UNL     1      14.285   3.350   0.000  0.00  0.00    +0.000 OA
ATOM     70  O   UNL     1      10.170   9.933   0.000  0.00  0.00    +0.000 OA
ATOM     71  O   UNL     1      10.457   1.372   0.000  0.00  0.00    +0.000 OA
ATOM     72  O   UNL     1       5.385   6.776   0.000  0.00  0.00    +0.000 OA
ATOM     73  O   UNL     1       8.776   2.371   0.000  0.00  0.00    +0.000 OA
ATOM     74  O   UNL     1       7.161   1.527   0.000  0.00  0.00    +0.000 OA
ATOM     75  O   UNL     1       9.268   8.710   0.000  0.00  0.00    +0.000 OA
ATOM     76  O   UNL     1      10.324   7.813   0.000  0.00  0.00    +0.000 OA
ATOM     77  S   UNL     1       5.294   4.378   0.000  0.00  0.00    +0.000 S 
ATOM     78  S   UNL     1      12.866   7.340   0.000  0.00  0.00    +0.000 S 
ATOM     79  S   UNL     1       7.671   9.504   0.000  0.00  0.00    +0.000 S 
ATOM     80  S   UNL     1      12.249   2.917   0.000  0.00  0.00    +0.000 S 
ENDROOT
BRANCH  24  83
ATOM     81  C   UNL     1      15.127   6.945   0.000  0.00  0.00    +0.000 A 
ATOM     82  C   UNL     1      15.619   6.283   0.000  0.00  0.00    +0.000 A 
ATOM     83  C   UNL     1      14.354   5.857   0.000  0.00  0.00    +0.000 A 
ATOM     84  N   UNL     1      15.142   5.611   0.000  0.00  0.00    +0.000 NA
ATOM     85  S   UNL     1      14.345   6.682   0.000  0.00  0.00    +0.000 S 
BRANCH  82  86
ATOM     86  C   UNL     1      16.444   6.292   0.000  0.00  0.00    +0.000 C 
ATOM     87  N   UNL     1      16.849   7.011   0.000  0.00  0.00    +0.000 NA
ATOM     88  O   UNL     1      16.864   5.582   0.000  0.00  0.00    +0.000 OA
BRANCH  87  90
ATOM     89  C   UNL     1      18.078   7.739   0.000  0.00  0.00    +0.000 C 
ATOM     90  C   UNL     1      17.674   7.020   0.000  0.00  0.00    +0.000 C 
BRANCH  90  91
ATOM     91  C   UNL     1      18.094   6.310   0.000  0.00  0.00    +0.000 C 
ATOM     92  N   UNL     1      18.919   6.319   0.000  0.00  0.00    +0.000 NA
ATOM     93  O   UNL     1      17.689   5.591   0.000  0.00  0.00    +0.000 OA
BRANCH  92  95
ATOM     94  C   UNL     1      18.935   4.891   0.000  0.00  0.00    +0.000 C 
ATOM     95  C   UNL     1      19.339   5.610   0.000  0.00  0.00    +0.000 C 
BRANCH  95  96
ATOM     96  C   UNL     1      20.164   5.619   0.000  0.00  0.00    +0.000 C 
ATOM     97  N   UNL     1      20.569   6.338   0.000  0.00  0.00    +0.000 NA
ATOM     98  O   UNL     1      20.585   4.909   0.000  0.00  0.00    +0.000 OA
ENDBRANCH  95  96
ENDBRANCH  92  95
ENDBRANCH  90  91
ENDBRANCH  87  90
ENDBRANCH  82  86
ENDBRANCH  24  83
BRANCH  36 100
ATOM     99  C   UNL     1       6.943   9.190   0.000  0.00  0.00    +0.000 C 
ATOM    100  C   UNL     1       6.409   8.561   0.000  0.00  0.00    +0.000 C 
ATOM    101  O   UNL     1       5.875   7.932   0.000  0.00  0.00    +0.000 OA
BRANCH 100 103
ATOM    102  C   UNL     1       5.003   8.817   0.000  0.00  0.00    +0.000 C 
ATOM    103  C   UNL     1       5.780   9.095   0.000  0.00  0.00    +0.000 C 
ATOM    104  O   UNL     1       5.927   9.906   0.000  0.00  0.00    +0.000 OA
ENDBRANCH 100 103
ENDBRANCH  36 100
BRANCH  21 106
ATOM    105  C   UNL     1       6.789   5.520   0.000  0.00  0.00    +0.000 C 
ATOM    106  C   UNL     1       7.077   6.293   0.000  0.00  0.00    +0.000 C 
ATOM    107  O   UNL     1       6.551   6.929   0.000  0.00  0.00    +0.000 OA
ENDBRANCH  21 106
BRANCH  31 109
ATOM    108  C   UNL     1       8.869   0.543   0.000  0.00  0.00    +0.000 C 
ATOM    109  C   UNL     1       8.244   1.082   0.000  0.00  0.00    +0.000 C 
ATOM    110  O   UNL     1       7.465   0.810   0.000  0.00  0.00    +0.000 OA
ENDBRANCH  31 109
BRANCH  30 112
ATOM    111  C   UNL     1       8.236   4.130   0.000  0.00  0.00    +0.000 C 
ATOM    112  C   UNL     1       8.845   3.574   0.000  0.00  0.00    +0.000 C 
BRANCH 112 114
ATOM    113  C   UNL     1       7.446   3.287   0.000  0.00  0.00    +0.000 C 
ATOM    114  C   UNL     1       8.229   3.026   0.000  0.00  0.00    +0.000 C 
ENDBRANCH 112 114
ENDBRANCH  30 112
TORSDOF 12
