REMARK  Name = 
REMARK  5 active torsions:
REMARK  status: ('A' for Active; 'I' for Inactive)
REMARK    1  A    between atoms: N_6  and  C_9
REMARK    2  A    between atoms: N_8  and  C_17
REMARK    3  A    between atoms: N_8  and  C_18
REMARK    4  A    between atoms: C_11  and  C_14
REMARK    5  A    between atoms: C_13  and  C_15
REMARK                            x       y       z     vdW  Elec       q    Type
REMARK                         _______ _______ _______ _____ _____    ______ ____
ROOT
ATOM      1  O   UNL     1      -0.357  -0.886   0.000  0.00  0.00    +0.000 OA
ATOM      2  N   UNL     1      -2.501   0.351   0.000  0.00  0.00    +0.000 NA
ATOM      3  C   UNL     1      -1.072   0.351   0.000  0.00  0.00    +0.000 C 
ATOM      4  C   UNL     1      -1.786  -0.061   0.000  0.00  0.00    +0.000 C 
ATOM      5  C   UNL     1      -0.357  -0.061   0.000  0.00  0.00    +0.000 C 
ATOM      6  C   UNL     1      -1.786  -0.886   0.000  0.00  0.00    +0.000 C 
ATOM      7  C   UNL     1      -1.072  -1.299   0.000  0.00  0.00    +0.000 C 
ENDROOT
BRANCH   3   9
ATOM      8  O   UNL     1      -2.309   1.891   0.000  0.00  0.00    +0.000 OA
ATOM      9  N   UNL     1      -1.072   1.176   0.000  0.00  0.00    +0.000 NA
ATOM     10  C   UNL     1      -1.484   1.891   0.000  0.00  0.00    +0.000 C 
ATOM     11  C   UNL     1      -1.072   2.605   0.000  0.00  0.00    +0.000 C 
ENDBRANCH   3   9
BRANCH   5  14
ATOM     12  O   UNL     1       0.357   1.176   0.000  0.00  0.00    +0.000 OA
ATOM     13  N   UNL     1       1.072  -0.061   0.000  0.00  0.00    +0.000 N 
ATOM     14  C   UNL     1       0.357   0.351   0.000  0.00  0.00    +0.000 C 
BRANCH  13  15
ATOM     15  C   UNL     1       1.786   0.351   0.000  0.00  0.00    +0.000 C 
ATOM     16  C   UNL     1       2.501  -0.061   0.000  0.00  0.00    +0.000 C 
ENDBRANCH  13  15
BRANCH  13  17
ATOM     17  C   UNL     1       1.072  -0.886   0.000  0.00  0.00    +0.000 C 
ATOM     18  C   UNL     1       1.786  -1.299   0.000  0.00  0.00    +0.000 C 
ENDBRANCH  13  17
ENDBRANCH   5  14
BRANCH   7  21
ATOM     19  O   UNL     1      -1.786  -2.537   0.000  0.00  0.00    +0.000 OA
ATOM     20  O   UNL     1      -0.357  -2.537   0.000  0.00  0.00    +0.000 OA
ATOM     21  C   UNL     1      -1.072  -2.124   0.000  0.00  0.00    +0.000 C 
ENDBRANCH   7  21
TORSDOF 5
