REMARK  Name = 
REMARK  7 active torsions:
REMARK  status: ('A' for Active; 'I' for Inactive)
REMARK    1  A    between atoms: N_2  and  C_4
REMARK    2  A    between atoms: C_4  and  C_5
REMARK    3  A    between atoms: C_5  and  C_6
REMARK    4  A    between atoms: C_6  and  C_7
REMARK    5  A    between atoms: C_6  and  C_14
REMARK    6  A    between atoms: C_20  and  C_25
REMARK    7  A    between atoms: C_21  and  C_22
REMARK                            x       y       z     vdW  Elec       q    Type
REMARK                         _______ _______ _______ _____ _____    ______ ____
ROOT
ATOM      1  C   UNL     1      -0.113  -0.065   0.000  0.00  0.00    +0.000 C 
ENDROOT
BRANCH   1   2
ATOM      2  C   UNL     1       0.602  -0.478   0.000  0.00  0.00    +0.000 A 
ATOM      3  C   UNL     1       1.316  -0.065   0.000  0.00  0.00    +0.000 A 
ATOM      4  C   UNL     1       2.031  -0.478   0.000  0.00  0.00    +0.000 A 
ATOM      5  C   UNL     1       2.031  -1.303   0.000  0.00  0.00    +0.000 A 
ATOM      6  C   UNL     1       1.316  -1.715   0.000  0.00  0.00    +0.000 A 
ATOM      7  C   UNL     1       0.602  -1.303   0.000  0.00  0.00    +0.000 A 
ATOM      8 CL   UNL     1       2.745  -1.715   0.000  0.00  0.00    +0.000 Cl
ENDBRANCH   1   2
BRANCH   1   9
ATOM      9  C   UNL     1      -0.113   0.760   0.000  0.00  0.00    +0.000 A 
ATOM     10  C   UNL     1      -0.827   1.172   0.000  0.00  0.00    +0.000 A 
ATOM     11  C   UNL     1      -0.827   1.997   0.000  0.00  0.00    +0.000 A 
ATOM     12  C   UNL     1      -0.113   2.410   0.000  0.00  0.00    +0.000 A 
ATOM     13  C   UNL     1       0.602   1.997   0.000  0.00  0.00    +0.000 A 
ATOM     14  N   UNL     1       0.602   1.172   0.000  0.00  0.00    +0.000 NA
ENDBRANCH   1   9
BRANCH   1  15
ATOM     15  C   UNL     1      -0.827  -0.478   0.000  0.00  0.00    +0.000 C 
BRANCH  15  16
ATOM     16  C   UNL     1      -1.542  -0.065   0.000  0.00  0.00    +0.000 C 
BRANCH  16  18
ATOM     17  C   UNL     1      -2.971  -0.065   0.000  0.00  0.00    +0.000 C 
ATOM     18  N   UNL     1      -2.256  -0.478   0.000  0.00  0.00    +0.000 NA
ATOM     19  C   UNL     1      -2.256  -1.303   0.000  0.00  0.00    +0.000 C 
ENDBRANCH  16  18
ENDBRANCH  15  16
ENDBRANCH   1  15
TORSDOF 5
REMARK  Name = 
REMARK  7 active torsions:
REMARK  status: ('A' for Active; 'I' for Inactive)
REMARK    1  A    between atoms: N_2  and  C_4
REMARK    2  A    between atoms: C_4  and  C_5
REMARK    3  A    between atoms: C_5  and  C_6
REMARK    4  A    between atoms: C_6  and  C_7
REMARK    5  A    between atoms: C_6  and  C_14
REMARK    6  A    between atoms: C_20  and  C_25
REMARK    7  A    between atoms: C_21  and  C_22
REMARK                            x       y       z     vdW  Elec       q    Type
REMARK                         _______ _______ _______ _____ _____    ______ ____
ROOT
ATOM      1  C   UNL     1       6.575   0.715   0.000  0.00  0.00    +0.000 C 
ATOM      2  C   UNL     1       5.750   0.715   0.000  0.00  0.00    +0.000 C 
ENDROOT
BRANCH   2   3
ATOM      3  C   UNL     1       5.338   0.000   0.000  0.00  0.00    +0.000 C 
ATOM      4  O   UNL     1       4.513   0.000   0.000  0.00  0.00    +0.000 OA
ATOM      5  O   UNL     1       5.750  -0.715   0.000  0.00  0.00    +0.000 OA
ENDBRANCH   2   3
BRANCH   1   6
ATOM      6  C   UNL     1       6.988   0.000   0.000  0.00  0.00    +0.000 C 
ATOM      7  O   UNL     1       7.813   0.000   0.000  0.00  0.00    +0.000 OA
ATOM      8  O   UNL     1       6.575  -0.715   0.000  0.00  0.00    +0.000 OA
ENDBRANCH   1   6
TORSDOF 2
