REMARK  Name = 
REMARK  4 active torsions:
REMARK  status: ('A' for Active; 'I' for Inactive)
REMARK    1  A    between atoms: C_10  and  N_11
REMARK    2  A    between atoms: C_12  and  C_13
REMARK    3  A    between atoms: C_30  and  N_39
REMARK    4  A    between atoms: C_33  and  C_34
REMARK                            x       y       z     vdW  Elec       q    Type
REMARK                         _______ _______ _______ _____ _____    ______ ____
ROOT
ATOM      1  O   UNL     1       2.439   1.360   0.000  0.00  0.00    +0.000 OA
ATOM      2  C   UNL     1       2.439   0.535   0.000  0.00  0.00    +0.000 C 
ATOM      3  C   UNL     1       1.725   0.948   0.000  0.00  0.00    +0.000 C 
ATOM      4  O   UNL     1       1.725   1.773   0.000  0.00  0.00    +0.000 OA
ATOM      5  C   UNL     1       1.010   0.535   0.000  0.00  0.00    +0.000 C 
ATOM      6  C   UNL     1       0.296   0.948   0.000  0.00  0.00    +0.000 C 
ATOM      7  C   UNL     1      -0.419   0.535   0.000  0.00  0.00    +0.000 A 
ATOM      8  C   UNL     1      -1.133   0.948   0.000  0.00  0.00    +0.000 A 
ATOM      9  O   UNL     1      -1.133   1.773   0.000  0.00  0.00    +0.000 OA
ATOM     10  C   UNL     1      -1.848   0.535   0.000  0.00  0.00    +0.000 A 
ATOM     11  C   UNL     1      -1.848  -0.290   0.000  0.00  0.00    +0.000 A 
ATOM     12  C   UNL     1      -1.133  -0.702   0.000  0.00  0.00    +0.000 A 
ATOM     13  F   UNL     1      -1.133  -1.527   0.000  0.00  0.00    +0.000 F 
ATOM     14  C   UNL     1      -0.419  -0.290   0.000  0.00  0.00    +0.000 A 
ATOM     15  C   UNL     1       0.296  -0.702   0.000  0.00  0.00    +0.000 C 
ATOM     16  C   UNL     1       1.010  -0.290   0.000  0.00  0.00    +0.000 C 
ATOM     17  C   UNL     1       1.725  -0.702   0.000  0.00  0.00    +0.000 C 
ATOM     18  C   UNL     1       2.439  -0.290   0.000  0.00  0.00    +0.000 C 
ATOM     19  C   UNL     1       3.154  -0.702   0.000  0.00  0.00    +0.000 C 
ATOM     20  C   UNL     1       3.868  -0.290   0.000  0.00  0.00    +0.000 C 
ATOM     21  O   UNL     1       4.582  -0.702   0.000  0.00  0.00    +0.000 OA
ATOM     22  C   UNL     1       3.868   0.535   0.000  0.00  0.00    +0.000 C 
ATOM     23  C   UNL     1       3.154   0.948   0.000  0.00  0.00    +0.000 C 
ATOM     24  O   UNL     1       3.154   1.773   0.000  0.00  0.00    +0.000 OA
ATOM     25  O   UNL     1       0.296   1.773   0.000  0.00  0.00    +0.000 OA
ENDROOT
BRANCH  10  26
ATOM     26  N   UNL     1      -2.562   0.948   0.000  0.00  0.00    +0.000 NA
ATOM     27  C   UNL     1      -3.277   0.535   0.000  0.00  0.00    +0.000 C 
ATOM     28  O   UNL     1      -3.277  -0.290   0.000  0.00  0.00    +0.000 OA
BRANCH  27  29
ATOM     29  C   UNL     1      -3.991   0.948   0.000  0.00  0.00    +0.000 C 
ATOM     30  C   UNL     1      -4.077   1.768   0.000  0.00  0.00    +0.000 C 
ATOM     31  C   UNL     1      -4.884   1.940   0.000  0.00  0.00    +0.000 C 
ATOM     32  C   UNL     1      -5.297   1.225   0.000  0.00  0.00    +0.000 C 
ATOM     33  N   UNL     1      -4.745   0.612   0.000  0.00  0.00    +0.000 NA
ATOM     34  C   UNL     1      -4.916  -0.195   0.000  0.00  0.00    +0.000 C 
ENDBRANCH  27  29
ENDBRANCH  10  26
BRANCH  22  35
ATOM     35  C   UNL     1       4.582   0.948   0.000  0.00  0.00    +0.000 C 
ATOM     36  O   UNL     1       4.582   1.773   0.000  0.00  0.00    +0.000 OA
ATOM     37  N   UNL     1       5.297   0.535   0.000  0.00  0.00    +0.000 NA
ENDBRANCH  22  35
BRANCH  19  38
ATOM     38  N   UNL     1       3.154  -1.527   0.000  0.00  0.00    +0.000 NA
ATOM     39  C   UNL     1       2.439  -1.940   0.000  0.00  0.00    +0.000 C 
ATOM     40  C   UNL     1       3.868  -1.940   0.000  0.00  0.00    +0.000 C 
ENDBRANCH  19  38
TORSDOF 4
