REMARK  Name = 
REMARK  7 active torsions:
REMARK  status: ('A' for Active; 'I' for Inactive)
REMARK    1  A    between atoms: C_9  and  N_11
REMARK    2  A    between atoms: C_12  and  N_19
REMARK    3  A    between atoms: C_14  and  C_38
REMARK    4  A    between atoms: C_16  and  N_17
REMARK    5  A    between atoms: C_21  and  O_26
REMARK    6  A    between atoms: C_25  and  O_26
REMARK    7  A    between atoms: C_31  and  C_32
REMARK                            x       y       z     vdW  Elec       q    Type
REMARK                         _______ _______ _______ _____ _____    ______ ____
ROOT
ATOM      1  N   UNL     1       0.275  -0.592   0.000  0.00  0.00    +0.000 NA
ATOM      2  C   UNL     1       0.986  -1.000   0.000  0.00  0.00    +0.000 C 
ATOM      3  N   UNL     1       1.697  -0.588   0.000  0.00  0.00    +0.000 NA
ATOM      4  O   UNL     1       0.981  -1.823   0.000  0.00  0.00    +0.000 OA
ENDROOT
BRANCH   1   5
ATOM      5  C   UNL     1      -0.436  -1.004   0.000  0.00  0.00    +0.000 A 
ATOM      6  C   UNL     1      -1.860  -1.008   0.000  0.00  0.00    +0.000 A 
ATOM      7  C   UNL     1      -1.861  -1.833   0.000  0.00  0.00    +0.000 A 
ATOM      8  C   UNL     1      -1.148  -2.245   0.000  0.00  0.00    +0.000 A 
ATOM      9  C   UNL     1      -0.433  -1.833   0.000  0.00  0.00    +0.000 A 
ATOM     10  C   UNL     1      -1.150  -0.596   0.000  0.00  0.00    +0.000 A 
ATOM     11  F   UNL     1       0.274  -2.243   0.000  0.00  0.00    +0.000 F 
BRANCH   7  12
ATOM     12  O   UNL     1      -2.570  -2.248   0.000  0.00  0.00    +0.000 OA
BRANCH  12  13
ATOM     13  C   UNL     1      -3.281  -1.841   0.000  0.00  0.00    +0.000 A 
ATOM     14  N   UNL     1      -4.708  -1.016   0.000  0.00  0.00    +0.000 NA
ATOM     15  C   UNL     1      -4.709  -1.841   0.000  0.00  0.00    +0.000 A 
ATOM     16  C   UNL     1      -3.996  -2.253   0.000  0.00  0.00    +0.000 A 
ATOM     17  C   UNL     1      -3.284  -1.012   0.000  0.00  0.00    +0.000 A 
ATOM     18  C   UNL     1      -3.998  -0.604   0.000  0.00  0.00    +0.000 A 
BRANCH  18  19
ATOM     19  C   UNL     1      -4.004   0.223   0.000  0.00  0.00    +0.000 C 
ATOM     20  N   UNL     1      -3.293   0.639   0.000  0.00  0.00    +0.000 NA
ATOM     21  C   UNL     1      -2.582   0.227   0.000  0.00  0.00    +0.000 C 
ATOM     22  O   UNL     1      -4.719   0.635   0.000  0.00  0.00    +0.000 OA
ENDBRANCH  18  19
ENDBRANCH  12  13
ENDBRANCH   7  12
ENDBRANCH   1   5
BRANCH   3  24
ATOM     23  N   UNL     1       3.081  -0.509   0.000  0.00  0.00    +0.000 N 
ATOM     24  C   UNL     1       2.409  -0.994   0.000  0.00  0.00    +0.000 A 
ATOM     25  C   UNL     1       2.665  -1.781   0.000  0.00  0.00    +0.000 A 
ATOM     26  C   UNL     1       3.492  -1.781   0.000  0.00  0.00    +0.000 A 
ATOM     27  N   UNL     1       3.748  -0.994   0.000  0.00  0.00    +0.000 NA
BRANCH  23  36
ATOM     28  N   UNL     1       3.075   2.791   0.000  0.00  0.00    +0.000 NA
ATOM     29  C   UNL     1       3.074   1.965   0.000  0.00  0.00    +0.000 A 
ATOM     30  C   UNL     1       3.788   1.553   0.000  0.00  0.00    +0.000 A 
ATOM     31  C   UNL     1       4.502   1.966   0.000  0.00  0.00    +0.000 A 
ATOM     32  C   UNL     1       4.500   2.795   0.000  0.00  0.00    +0.000 A 
ATOM     33  C   UNL     1       3.786   3.203   0.000  0.00  0.00    +0.000 A 
ATOM     34  C   UNL     1       2.360   1.552   0.000  0.00  0.00    +0.000 A 
ATOM     35  C   UNL     1       2.359   0.726   0.000  0.00  0.00    +0.000 A 
ATOM     36  C   UNL     1       3.072   0.314   0.000  0.00  0.00    +0.000 A 
ATOM     37  C   UNL     1       3.787   0.727   0.000  0.00  0.00    +0.000 A 
ENDBRANCH  23  36
BRANCH  26  38
ATOM     38  C   UNL     1       3.896  -2.492   0.000  0.00  0.00    +0.000 C 
ATOM     39  C   UNL     1       3.480  -3.203   0.000  0.00  0.00    +0.000 C 
ATOM     40  C   UNL     1       4.719  -2.492   0.000  0.00  0.00    +0.000 C 
ATOM     41  C   UNL     1       4.303  -3.203   0.000  0.00  0.00    +0.000 C 
ENDBRANCH  26  38
ENDBRANCH   3  24
TORSDOF 7
