REMARK  Name = 
REMARK  6 active torsions:
REMARK  status: ('A' for Active; 'I' for Inactive)
REMARK    1  A    between atoms: C_2  and  C_4
REMARK    2  A    between atoms: C_4  and  N_5
REMARK    3  A    between atoms: C_4  and  C_14
REMARK    4  A    between atoms: N_8  and  C_9
REMARK    5  A    between atoms: C_9  and  C_10
REMARK    6  A    between atoms: C_19  and  C_21
REMARK                            x       y       z     vdW  Elec       q    Type
REMARK                         _______ _______ _______ _____ _____    ______ ____
ROOT
ATOM      1  C   UNL     1       5.077  -3.622   0.000  0.00  0.00    +0.000 C 
ATOM      2  O   UNL     1       5.077  -2.797   0.000  0.00  0.00    +0.000 OA
ATOM      3  N   UNL     1       5.792  -4.035   0.000  0.00  0.00    +0.000 N 
ATOM      4  C   UNL     1       6.506  -3.622   0.000  0.00  0.00    +0.000 C 
ATOM      5  C   UNL     1       7.221  -4.035   0.000  0.00  0.00    +0.000 C 
ATOM      6  C   UNL     1       7.221  -4.860   0.000  0.00  0.00    +0.000 C 
ATOM      7  O   UNL     1       8.033  -4.716   0.000  0.00  0.00    +0.000 OA
ATOM      8  C   UNL     1       6.506  -5.272   0.000  0.00  0.00    +0.000 C 
ATOM      9  C   UNL     1       7.036  -5.904   0.000  0.00  0.00    +0.000 C 
ATOM     10  C   UNL     1       5.976  -5.904   0.000  0.00  0.00    +0.000 C 
ATOM     11  C   UNL     1       5.792  -4.860   0.000  0.00  0.00    +0.000 C 
ENDROOT
BRANCH   6  12
ATOM     12  C   UNL     1       7.503  -5.635   0.000  0.00  0.00    +0.000 A 
ATOM     13  C   UNL     1       8.315  -5.778   0.000  0.00  0.00    +0.000 A 
ATOM     14  C   UNL     1       8.597  -6.553   0.000  0.00  0.00    +0.000 A 
ATOM     15  C   UNL     1       8.067  -7.185   0.000  0.00  0.00    +0.000 A 
ATOM     16 CL   UNL     1       8.349  -7.961   0.000  0.00  0.00    +0.000 Cl
ATOM     17  C   UNL     1       7.255  -7.042   0.000  0.00  0.00    +0.000 A 
ATOM     18  C   UNL     1       6.972  -6.267   0.000  0.00  0.00    +0.000 A 
ENDBRANCH   6  12
BRANCH   1  19
ATOM     19  C   UNL     1       4.363  -4.035   0.000  0.00  0.00    +0.000 C 
BRANCH  19  20
ATOM     20  N   UNL     1       3.648  -3.622   0.000  0.00  0.00    +0.000 NA
ATOM     21  C   UNL     1       2.934  -4.035   0.000  0.00  0.00    +0.000 C 
ATOM     22  O   UNL     1       2.934  -4.860   0.000  0.00  0.00    +0.000 OA
ATOM     23  N   UNL     1       2.219  -3.622   0.000  0.00  0.00    +0.000 NA
BRANCH  23  24
ATOM     24  C   UNL     1       2.219  -2.797   0.000  0.00  0.00    +0.000 C 
BRANCH  24  25
ATOM     25  C   UNL     1       2.934  -2.385   0.000  0.00  0.00    +0.000 C 
ATOM     26  C   UNL     1       3.648  -1.972   0.000  0.00  0.00    +0.000 C 
ATOM     27  C   UNL     1       2.521  -1.670   0.000  0.00  0.00    +0.000 C 
ATOM     28  O   UNL     1       3.346  -3.099   0.000  0.00  0.00    +0.000 OA
ENDBRANCH  24  25
ENDBRANCH  23  24
ENDBRANCH  19  20
BRANCH  19  30
ATOM     29  C   UNL     1       5.077  -5.272   0.000  0.00  0.00    +0.000 C 
ATOM     30  C   UNL     1       4.363  -4.860   0.000  0.00  0.00    +0.000 C 
ATOM     31  C   UNL     1       3.648  -5.272   0.000  0.00  0.00    +0.000 C 
ENDBRANCH  19  30
ENDBRANCH   1  19
TORSDOF 6
