REMARK  Name = 
REMARK  5 active torsions:
REMARK  status: ('A' for Active; 'I' for Inactive)
REMARK    1  A    between atoms: N_8  and  C_11
REMARK    2  A    between atoms: C_11  and  C_12
REMARK    3  A    between atoms: N_15  and  C_18
REMARK    4  A    between atoms: C_18  and  C_19
REMARK    5  A    between atoms: C_19  and  C_21
REMARK                            x       y       z     vdW  Elec       q    Type
REMARK                         _______ _______ _______ _____ _____    ______ ____
ROOT
ATOM      1  C   UNL     1      -0.584   2.237   0.000  0.00  0.00    +0.000 C 
ATOM      2  C   UNL     1      -1.409   2.237   0.000  0.00  0.00    +0.000 C 
ATOM      3  C   UNL     1      -1.821   2.952   0.000  0.00  0.00    +0.000 C 
ATOM      4  N   UNL     1      -1.409   3.666   0.000  0.00  0.00    +0.000 NA
ATOM      5  C   UNL     1      -0.584   3.666   0.000  0.00  0.00    +0.000 C 
ATOM      6  C   UNL     1      -0.171   2.952   0.000  0.00  0.00    +0.000 C 
ENDROOT
BRANCH   1   7
ATOM      7  C   UNL     1      -0.171   1.523   0.000  0.00  0.00    +0.000 C 
BRANCH   7  15
ATOM      8  C   UNL     1       3.352   1.935   0.000  0.00  0.00    +0.000 A 
ATOM      9  C   UNL     1       3.352   1.110   0.000  0.00  0.00    +0.000 A 
ATOM     10  C   UNL     1       2.638   0.698   0.000  0.00  0.00    +0.000 A 
ATOM     11  C   UNL     1       1.923   1.110   0.000  0.00  0.00    +0.000 A 
ATOM     12  C   UNL     1       1.923   1.935   0.000  0.00  0.00    +0.000 A 
ATOM     13  C   UNL     1       2.638   2.348   0.000  0.00  0.00    +0.000 A 
ATOM     14  C   UNL     1       1.139   2.190   0.000  0.00  0.00    +0.000 C 
ATOM     15  N   UNL     1       0.654   1.523   0.000  0.00  0.00    +0.000 N 
ATOM     16  C   UNL     1       1.139   0.856   0.000  0.00  0.00    +0.000 C 
ATOM     17  O   UNL     1       0.884   0.071   0.000  0.00  0.00    +0.000 OA
ENDBRANCH   7  15
ENDBRANCH   1   7
BRANCH   4  18
ATOM     18  C   UNL     1      -1.821   4.381   0.000  0.00  0.00    +0.000 C 
BRANCH  18  19
ATOM     19  C   UNL     1      -2.646   4.381   0.000  0.00  0.00    +0.000 C 
ATOM     20  O   UNL     1      -3.059   3.666   0.000  0.00  0.00    +0.000 OA
BRANCH  19  21
ATOM     21  C   UNL     1      -3.059   5.095   0.000  0.00  0.00    +0.000 A 
ATOM     22  C   UNL     1      -3.884   5.095   0.000  0.00  0.00    +0.000 A 
ATOM     23  C   UNL     1      -4.296   5.810   0.000  0.00  0.00    +0.000 A 
ATOM     24  C   UNL     1      -3.884   6.524   0.000  0.00  0.00    +0.000 A 
ATOM     25  C   UNL     1      -3.059   6.524   0.000  0.00  0.00    +0.000 A 
ATOM     26  C   UNL     1      -2.646   5.810   0.000  0.00  0.00    +0.000 A 
ATOM     27  F   UNL     1      -4.296   7.239   0.000  0.00  0.00    +0.000 F 
ENDBRANCH  19  21
ENDBRANCH  18  19
ENDBRANCH   4  18
TORSDOF 5
