REMARK  Name = 
REMARK  8 active torsions:
REMARK  status: ('A' for Active; 'I' for Inactive)
REMARK    1  A    between atoms: O_2  and  C_3
REMARK    2  A    between atoms: C_3  and  C_4
REMARK    3  A    between atoms: C_4  and  O_6
REMARK    4  A    between atoms: O_6  and  C_7
REMARK    5  A    between atoms: C_9  and  C_26
REMARK    6  A    between atoms: C_11  and  O_12
REMARK    7  A    between atoms: O_12  and  C_13
REMARK    8  A    between atoms: C_16  and  C_19
REMARK                            x       y       z     vdW  Elec       q    Type
REMARK                         _______ _______ _______ _____ _____    ______ ____
ROOT
ATOM      1  C   UNL     1      -2.649  -6.721   0.000  0.00  0.00    +0.000 A 
ATOM      2  C   UNL     1      -3.363  -6.308   0.000  0.00  0.00    +0.000 A 
ATOM      3  C   UNL     1      -3.363  -5.483   0.000  0.00  0.00    +0.000 A 
ATOM      4  C   UNL     1      -2.649  -5.071   0.000  0.00  0.00    +0.000 A 
ATOM      5  C   UNL     1      -1.934  -5.483   0.000  0.00  0.00    +0.000 A 
ATOM      6  C   UNL     1      -1.934  -6.308   0.000  0.00  0.00    +0.000 A 
ENDROOT
BRANCH   3   7
ATOM      7  C   UNL     1      -4.078  -5.071   0.000  0.00  0.00    +0.000 C 
ATOM      8  O   UNL     1      -4.078  -4.246   0.000  0.00  0.00    +0.000 OA
ATOM      9  N   UNL     1      -4.792  -5.483   0.000  0.00  0.00    +0.000 NA
ATOM     10  C   UNL     1      -5.506  -5.071   0.000  0.00  0.00    +0.000 A 
ATOM     11  N   UNL     1      -6.221  -5.483   0.000  0.00  0.00    +0.000 NA
ATOM     12  C   UNL     1      -6.935  -5.071   0.000  0.00  0.00    +0.000 A 
ATOM     13  C   UNL     1      -6.935  -4.246   0.000  0.00  0.00    +0.000 A 
ATOM     14  C   UNL     1      -7.650  -3.833   0.000  0.00  0.00    +0.000 C 
ATOM     15  N   UNL     1      -6.221  -3.833   0.000  0.00  0.00    +0.000 NA
ATOM     16  C   UNL     1      -5.506  -4.246   0.000  0.00  0.00    +0.000 A 
ENDBRANCH   3   7
BRANCH   1  17
ATOM     17  O   UNL     1      -2.649  -7.546   0.000  0.00  0.00    +0.000 OA
BRANCH  17  18
ATOM     18  C   UNL     1      -1.934  -7.958   0.000  0.00  0.00    +0.000 C 
ATOM     19  C   UNL     1      -1.220  -7.546   0.000  0.00  0.00    +0.000 C 
BRANCH  18  20
ATOM     20  C   UNL     1      -1.934  -8.783   0.000  0.00  0.00    +0.000 C 
BRANCH  20  22
ATOM     21  C   UNL     1      -1.220 -10.021   0.000  0.00  0.00    +0.000 C 
ATOM     22  O   UNL     1      -1.220  -9.196   0.000  0.00  0.00    +0.000 OA
ENDBRANCH  20  22
ENDBRANCH  18  20
ENDBRANCH  17  18
ENDBRANCH   1  17
BRANCH   5  23
ATOM     23  O   UNL     1      -1.220  -5.071   0.000  0.00  0.00    +0.000 OA
BRANCH  23  24
ATOM     24  C   UNL     1      -0.505  -5.483   0.000  0.00  0.00    +0.000 A 
ATOM     25  N   UNL     1       0.209  -5.071   0.000  0.00  0.00    +0.000 NA
ATOM     26  C   UNL     1       0.924  -5.483   0.000  0.00  0.00    +0.000 A 
ATOM     27  C   UNL     1       0.924  -6.308   0.000  0.00  0.00    +0.000 A 
ATOM     28  N   UNL     1       0.209  -6.721   0.000  0.00  0.00    +0.000 NA
ATOM     29  C   UNL     1      -0.505  -6.308   0.000  0.00  0.00    +0.000 A 
BRANCH  27  30
ATOM     30  C   UNL     1       1.638  -6.721   0.000  0.00  0.00    +0.000 C 
ATOM     31  O   UNL     1       2.353  -6.308   0.000  0.00  0.00    +0.000 OA
ATOM     32  N   UNL     1       1.638  -7.546   0.000  0.00  0.00    +0.000 N 
ATOM     33  C   UNL     1       2.222  -8.129   0.000  0.00  0.00    +0.000 C 
ATOM     34  C   UNL     1       1.638  -8.713   0.000  0.00  0.00    +0.000 C 
ATOM     35  C   UNL     1       1.055  -8.129   0.000  0.00  0.00    +0.000 C 
ENDBRANCH  27  30
ENDBRANCH  23  24
ENDBRANCH   5  23
TORSDOF 8
