REMARK  Name = 
REMARK  4 active torsions:
REMARK  status: ('A' for Active; 'I' for Inactive)
REMARK    1  A    between atoms: N_9  and  C_10
REMARK    2  A    between atoms: C_13  and  C_28
REMARK    3  A    between atoms: C_16  and  C_22
REMARK    4  A    between atoms: N_18  and  C_25
REMARK                            x       y       z     vdW  Elec       q    Type
REMARK                         _______ _______ _______ _____ _____    ______ ____
ROOT
ATOM      1  C   UNL     1      -0.514  -0.028   0.000  0.00  0.00    +0.000 A 
ATOM      2  C   UNL     1       0.200  -1.266   0.000  0.00  0.00    +0.000 A 
ATOM      3  C   UNL     1      -0.514  -0.853   0.000  0.00  0.00    +0.000 A 
ATOM      4  C   UNL     1       0.200   0.384   0.000  0.00  0.00    +0.000 A 
ATOM      5  C   UNL     1       0.914  -0.028   0.000  0.00  0.00    +0.000 A 
ATOM      6  C   UNL     1       0.914  -0.853   0.000  0.00  0.00    +0.000 A 
ATOM      7  C   UNL     1       2.343  -0.853   0.000  0.00  0.00    +0.000 A 
ATOM      8  C   UNL     1       1.629  -1.266   0.000  0.00  0.00    +0.000 A 
ATOM      9  N   UNL     1       1.629   0.384   0.000  0.00  0.00    +0.000 N 
ATOM     10  C   UNL     1       2.343  -0.028   0.000  0.00  0.00    +0.000 A 
ATOM     11  F   UNL     1      -1.229  -1.266   0.000  0.00  0.00    +0.000 F 
ATOM     12  O   UNL     1       1.629  -2.091   0.000  0.00  0.00    +0.000 OA
ENDROOT
BRANCH   1  21
ATOM     13  N   UNL     1      -3.360   0.662   0.000  0.00  0.00    +0.000 NA
ATOM     14  C   UNL     1      -3.772   1.376   0.000  0.00  0.00    +0.000 C 
ATOM     15  C   UNL     1      -3.360   2.091   0.000  0.00  0.00    +0.000 C 
ATOM     16  C   UNL     1      -2.535   2.091   0.000  0.00  0.00    +0.000 C 
ATOM     17  C   UNL     1      -2.122   1.376   0.000  0.00  0.00    +0.000 C 
ATOM     18  C   UNL     1      -2.535   0.662   0.000  0.00  0.00    +0.000 C 
ATOM     19  C   UNL     1      -1.983   0.049   0.000  0.00  0.00    +0.000 C 
ATOM     20  C   UNL     1      -1.315   1.205   0.000  0.00  0.00    +0.000 C 
ATOM     21  N   UNL     1      -1.229   0.384   0.000  0.00  0.00    +0.000 N 
ENDBRANCH   1  21
BRANCH   7  22
ATOM     22  C   UNL     1       3.058  -1.266   0.000  0.00  0.00    +0.000 C 
ATOM     23  O   UNL     1       3.772  -0.853   0.000  0.00  0.00    +0.000 OA
ATOM     24  O   UNL     1       3.058  -2.091   0.000  0.00  0.00    +0.000 OA
ENDBRANCH   7  22
BRANCH   9  25
ATOM     25  C   UNL     1       1.629   1.209   0.000  0.00  0.00    +0.000 C 
ATOM     26  C   UNL     1       1.169   1.813   0.000  0.00  0.00    +0.000 C 
ATOM     27  C   UNL     1       1.932   1.834   0.000  0.00  0.00    +0.000 C 
ENDBRANCH   9  25
BRANCH   4  28
ATOM     28  C   UNL     1       0.200   1.209   0.000  0.00  0.00    +0.000 C 
ATOM     29  N   UNL     1       0.212   1.893   0.000  0.00  0.00    +0.000 NA
ENDBRANCH   4  28
TORSDOF 4
