REMARK  Name = 
REMARK  4 active torsions:
REMARK  status: ('A' for Active; 'I' for Inactive)
REMARK    1  A    between atoms: C_3  and  C_16
REMARK    2  A    between atoms: N_10  and  C_11
REMARK    3  A    between atoms: C_11  and  C_12
REMARK    4  A    between atoms: C_16  and  C_17
REMARK                            x       y       z     vdW  Elec       q    Type
REMARK                         _______ _______ _______ _____ _____    ______ ____
ROOT
ATOM      1  C   UNL     1      -1.452  -2.705   0.000  0.00  0.00    +0.000 C 
ATOM      2  C   UNL     1      -0.667  -2.960   0.000  0.00  0.00    +0.000 A 
ATOM      3  C   UNL     1       0.000  -2.475   0.000  0.00  0.00    +0.000 A 
ATOM      4  C   UNL     1       0.667  -2.960   0.000  0.00  0.00    +0.000 A 
ATOM      5  C   UNL     1       1.474  -2.788   0.000  0.00  0.00    +0.000 A 
ATOM      6  C   UNL     1       2.026  -3.401   0.000  0.00  0.00    +0.000 A 
ATOM      7  C   UNL     1       1.772  -4.186   0.000  0.00  0.00    +0.000 A 
ATOM      8  C   UNL     1       0.965  -4.358   0.000  0.00  0.00    +0.000 A 
ATOM      9  C   UNL     1       0.412  -3.744   0.000  0.00  0.00    +0.000 A 
ATOM     10  N   UNL     1      -0.412  -3.744   0.000  0.00  0.00    +0.000 N 
ATOM     11  F   UNL     1       2.833  -3.230   0.000  0.00  0.00    +0.000 F 
ENDROOT
BRANCH  10  12
ATOM     12  C   UNL     1      -0.897  -4.412   0.000  0.00  0.00    +0.000 C 
BRANCH  12  13
ATOM     13  C   UNL     1      -0.562  -5.166   0.000  0.00  0.00    +0.000 C 
ATOM     14  O   UNL     1      -1.047  -5.833   0.000  0.00  0.00    +0.000 OA
ATOM     15  O   UNL     1       0.259  -5.252   0.000  0.00  0.00    +0.000 OA
ENDBRANCH  12  13
ENDBRANCH  10  12
BRANCH   3  16
ATOM     16  C   UNL     1       0.000  -1.650   0.000  0.00  0.00    +0.000 C 
BRANCH  16  17
ATOM     17  C   UNL     1       0.715  -1.238   0.000  0.00  0.00    +0.000 A 
ATOM     18  C   UNL     1       0.715  -0.412   0.000  0.00  0.00    +0.000 A 
ATOM     19  C   UNL     1       1.429   0.000   0.000  0.00  0.00    +0.000 A 
ATOM     20  C   UNL     1       2.143  -0.412   0.000  0.00  0.00    +0.000 A 
ATOM     21  C   UNL     1       2.858   0.000   0.000  0.00  0.00    +0.000 A 
ATOM     22  C   UNL     1       3.572  -0.412   0.000  0.00  0.00    +0.000 A 
ATOM     23  C   UNL     1       3.572  -1.238   0.000  0.00  0.00    +0.000 A 
ATOM     24  C   UNL     1       2.858  -1.650   0.000  0.00  0.00    +0.000 A 
ATOM     25  C   UNL     1       2.143  -1.238   0.000  0.00  0.00    +0.000 A 
ATOM     26  N   UNL     1       1.429  -1.650   0.000  0.00  0.00    +0.000 NA
ENDBRANCH  16  17
ENDBRANCH   3  16
TORSDOF 4
