REMARK  Name = 
REMARK  8 active torsions:
REMARK  status: ('A' for Active; 'I' for Inactive)
REMARK    1  A    between atoms: C_3  and  O_15
REMARK    2  A    between atoms: C_8  and  O_11
REMARK    3  A    between atoms: C_9  and  O_13
REMARK    4  A    between atoms: O_15  and  C_16
REMARK    5  A    between atoms: C_19  and  N_22
REMARK    6  A    between atoms: C_23  and  C_24
REMARK    7  A    between atoms: C_24  and  C_26
REMARK    8  A    between atoms: N_27  and  C_29
REMARK                            x       y       z     vdW  Elec       q    Type
REMARK                         _______ _______ _______ _____ _____    ______ ____
ROOT
ATOM      1  C   UNL     1      -3.176  -0.495   0.000  0.00  0.00    +0.000 A 
ATOM      2  C   UNL     1      -3.176  -1.320   0.000  0.00  0.00    +0.000 A 
ATOM      3  C   UNL     1      -2.475  -1.733   0.000  0.00  0.00    +0.000 A 
ATOM      4  C   UNL     1      -1.774  -1.320   0.000  0.00  0.00    +0.000 A 
ATOM      5  C   UNL     1      -1.774  -0.454   0.000  0.00  0.00    +0.000 A 
ATOM      6  C   UNL     1      -2.475  -0.041   0.000  0.00  0.00    +0.000 A 
ENDROOT
BRANCH   4   7
ATOM      7  N   UNL     1      -1.031  -1.691   0.000  0.00  0.00    +0.000 NA
ATOM      8  C   UNL     1      -0.330  -1.279   0.000  0.00  0.00    +0.000 C 
ATOM      9  O   UNL     1      -0.330  -0.454   0.000  0.00  0.00    +0.000 OA
BRANCH   8  10
ATOM     10  C   UNL     1       0.412  -1.691   0.000  0.00  0.00    +0.000 C 
ATOM     11  C   UNL     1       0.000  -2.393   0.000  0.00  0.00    +0.000 C 
ATOM     12  C   UNL     1       0.825  -2.393   0.000  0.00  0.00    +0.000 C 
BRANCH  10  13
ATOM     13  C   UNL     1       1.114  -1.238   0.000  0.00  0.00    +0.000 C 
ATOM     14  N   UNL     1       1.815  -1.650   0.000  0.00  0.00    +0.000 NA
ATOM     15  O   UNL     1       1.114  -0.412   0.000  0.00  0.00    +0.000 OA
BRANCH  14  16
ATOM     16  C   UNL     1       2.516  -1.238   0.000  0.00  0.00    +0.000 A 
ATOM     17  C   UNL     1       3.259  -1.650   0.000  0.00  0.00    +0.000 A 
ATOM     18  C   UNL     1       3.919  -1.196   0.000  0.00  0.00    +0.000 A 
ATOM     19  C   UNL     1       3.919  -0.371   0.000  0.00  0.00    +0.000 A 
ATOM     20  C   UNL     1       3.218   0.000   0.000  0.00  0.00    +0.000 A 
ATOM     21  C   UNL     1       2.516  -0.412   0.000  0.00  0.00    +0.000 A 
ATOM     22  F   UNL     1       4.662   0.000   0.000  0.00  0.00    +0.000 F 
ENDBRANCH  14  16
ENDBRANCH  10  13
ENDBRANCH   8  10
ENDBRANCH   4   7
BRANCH   1  23
ATOM     23  O   UNL     1      -3.919  -0.082   0.000  0.00  0.00    +0.000 OA
BRANCH  23  26
ATOM     24  C   UNL     1      -3.218   1.980   0.000  0.00  0.00    +0.000 A 
ATOM     25  C   UNL     1      -3.218   1.155   0.000  0.00  0.00    +0.000 A 
ATOM     26  C   UNL     1      -3.919   0.743   0.000  0.00  0.00    +0.000 A 
ATOM     27  C   UNL     1      -4.661   1.155   0.000  0.00  0.00    +0.000 A 
ATOM     28  C   UNL     1      -4.661   1.980   0.000  0.00  0.00    +0.000 A 
ATOM     29  N   UNL     1      -3.919   2.393   0.000  0.00  0.00    +0.000 NA
ATOM     30  C   UNL     1      -2.516   2.393   0.000  0.00  0.00    +0.000 A 
ATOM     31  C   UNL     1      -1.774   1.980   0.000  0.00  0.00    +0.000 A 
ATOM     32  C   UNL     1      -1.774   1.155   0.000  0.00  0.00    +0.000 A 
ATOM     33  C   UNL     1      -2.516   0.743   0.000  0.00  0.00    +0.000 A 
BRANCH  31  34
ATOM     34  O   UNL     1      -1.073   2.393   0.000  0.00  0.00    +0.000 OA
ATOM     35  C   UNL     1      -0.371   1.980   0.000  0.00  0.00    +0.000 C 
ENDBRANCH  31  34
BRANCH  32  36
ATOM     36  O   UNL     1      -1.073   0.743   0.000  0.00  0.00    +0.000 OA
ATOM     37  C   UNL     1      -0.371   1.155   0.000  0.00  0.00    +0.000 C 
ENDBRANCH  32  36
ENDBRANCH  23  26
ENDBRANCH   1  23
TORSDOF 8
