REMARK  Name = 
REMARK  4 active torsions:
REMARK  status: ('A' for Active; 'I' for Inactive)
REMARK    1  A    between atoms: C_2  and  C_4
REMARK    2  A    between atoms: C_7  and  C_10
REMARK    3  A    between atoms: N_20  and  C_21
REMARK    4  A    between atoms: C_24  and  O_27
REMARK                            x       y       z     vdW  Elec       q    Type
REMARK                         _______ _______ _______ _____ _____    ______ ____
ROOT
ATOM      1  C   UNL     1      -0.715  -1.238   0.000  0.00  0.00    +0.000 A 
ATOM      2  N   UNL     1       0.000  -1.650   0.000  0.00  0.00    +0.000 NA
ATOM      3  C   UNL     1       0.715  -1.238   0.000  0.00  0.00    +0.000 A 
ATOM      4  C   UNL     1       0.715  -0.412   0.000  0.00  0.00    +0.000 A 
ATOM      5  N   UNL     1       0.000   0.000   0.000  0.00  0.00    +0.000 NA
ATOM      6  C   UNL     1      -0.715  -0.412   0.000  0.00  0.00    +0.000 A 
ATOM      7  N   UNL     1       1.429   0.000   0.000  0.00  0.00    +0.000 NA
ATOM      8  C   UNL     1       2.143  -0.412   0.000  0.00  0.00    +0.000 C 
ATOM      9  C   UNL     1       2.143  -1.238   0.000  0.00  0.00    +0.000 C 
ATOM     10  O   UNL     1       2.858  -1.650   0.000  0.00  0.00    +0.000 OA
ATOM     11  N   UNL     1       1.429  -1.650   0.000  0.00  0.00    +0.000 N 
ENDROOT
BRANCH   1  15
ATOM     12  C   UNL     1      -2.858  -2.475   0.000  0.00  0.00    +0.000 A 
ATOM     13  N   UNL     1      -2.858  -1.650   0.000  0.00  0.00    +0.000 NA
ATOM     14  C   UNL     1      -2.143  -1.238   0.000  0.00  0.00    +0.000 A 
ATOM     15  C   UNL     1      -1.429  -1.650   0.000  0.00  0.00    +0.000 A 
ATOM     16  C   UNL     1      -1.429  -2.475   0.000  0.00  0.00    +0.000 A 
ATOM     17  C   UNL     1      -2.143  -2.888   0.000  0.00  0.00    +0.000 A 
BRANCH  12  19
ATOM     18  C   UNL     1      -4.287  -3.300   0.000  0.00  0.00    +0.000 C 
ATOM     19  C   UNL     1      -3.572  -2.888   0.000  0.00  0.00    +0.000 C 
ATOM     20  O   UNL     1      -3.160  -3.602   0.000  0.00  0.00    +0.000 OA
ATOM     21  C   UNL     1      -3.985  -2.173   0.000  0.00  0.00    +0.000 C 
ENDBRANCH  12  19
ENDBRANCH   1  15
BRANCH  11  22
ATOM     22  C   UNL     1       1.429  -2.475   0.000  0.00  0.00    +0.000 C 
ATOM     23  C   UNL     1       2.143  -2.888   0.000  0.00  0.00    +0.000 C 
ATOM     24  C   UNL     1       2.143  -3.712   0.000  0.00  0.00    +0.000 C 
ATOM     25  C   UNL     1       1.429  -4.125   0.000  0.00  0.00    +0.000 C 
ATOM     26  C   UNL     1       0.715  -3.712   0.000  0.00  0.00    +0.000 C 
ATOM     27  C   UNL     1       0.715  -2.888   0.000  0.00  0.00    +0.000 C 
BRANCH  25  28
ATOM     28  O   UNL     1       1.429  -4.950   0.000  0.00  0.00    +0.000 OA
ATOM     29  C   UNL     1       2.143  -5.362   0.000  0.00  0.00    +0.000 C 
ENDBRANCH  25  28
ENDBRANCH  11  22
TORSDOF 4
