REMARK  Name = 
REMARK  6 active torsions:
REMARK  status: ('A' for Active; 'I' for Inactive)
REMARK    1  A    between atoms: C_14  and  C_31
REMARK    2  A    between atoms: C_26  and  C_27
REMARK    3  A    between atoms: C_26  and  C_30
REMARK    4  A    between atoms: C_27  and  C_28
REMARK    5  A    between atoms: C_27  and  C_33
REMARK    6  A    between atoms: C_30  and  C_31
REMARK                            x       y       z     vdW  Elec       q    Type
REMARK                         _______ _______ _______ _____ _____    ______ ____
ROOT
ATOM      1  C   UNL     1      -2.873  -0.948   0.000  0.00  0.00    +0.000 C 
ATOM      2  C   UNL     1      -3.596  -1.344   0.000  0.00  0.00    +0.000 C 
ATOM      3  C   UNL     1      -3.596  -2.183   0.000  0.00  0.00    +0.000 C 
ATOM      4  C   UNL     1      -2.873  -2.596   0.000  0.00  0.00    +0.000 C 
ATOM      5  C   UNL     1      -2.174  -2.183   0.000  0.00  0.00    +0.000 C 
ATOM      6  C   UNL     1      -1.459  -2.596   0.000  0.00  0.00    +0.000 C 
ATOM      7  C   UNL     1      -2.174  -1.344   0.000  0.00  0.00    +0.000 C 
ATOM      8  C   UNL     1      -1.459  -0.140   0.000  0.00  0.00    +0.000 C 
ATOM      9  C   UNL     1      -0.728   0.280   0.000  0.00  0.00    +0.000 C 
ATOM     10  C   UNL     1      -0.028  -0.140   0.000  0.00  0.00    +0.000 C 
ATOM     11  C   UNL     1      -0.028  -0.948   0.000  0.00  0.00    +0.000 C 
ATOM     12  C   UNL     1       0.757  -1.204   0.000  0.00  0.00    +0.000 C 
ATOM     13  C   UNL     1       1.223  -0.551   0.000  0.00  0.00    +0.000 C 
ATOM     14  C   UNL     1       0.757   0.117   0.000  0.00  0.00    +0.000 C 
ATOM     15  C   UNL     1      -0.028   0.708   0.000  0.00  0.00    +0.000 C 
ATOM     16  C   UNL     1      -2.174  -0.536   0.000  0.00  0.00    +0.000 C 
ATOM     17  O   UNL     1      -4.329  -2.614   0.000  0.00  0.00    +0.000 OA
ATOM     18  C   UNL     1      -1.459  -0.948   0.000  0.00  0.00    +0.000 C 
ATOM     19  C   UNL     1      -0.728  -1.344   0.000  0.00  0.00    +0.000 C 
ATOM     20  C   UNL     1      -0.728  -2.183   0.000  0.00  0.00    +0.000 C 
ENDROOT
BRANCH  14  22
ATOM     21  C   UNL     1       0.042   1.377   0.000  0.00  0.00    +0.000 C 
ATOM     22  C   UNL     1       0.757   0.964   0.000  0.00  0.00    +0.000 C 
BRANCH  22  23
ATOM     23  C   UNL     1       1.471   1.377   0.000  0.00  0.00    +0.000 C 
BRANCH  23  24
ATOM     24  C   UNL     1       2.186   0.964   0.000  0.00  0.00    +0.000 C 
BRANCH  24  25
ATOM     25  C   UNL     1       2.900   1.377   0.000  0.00  0.00    +0.000 C 
BRANCH  25  26
ATOM     26  C   UNL     1       3.615   0.964   0.000  0.00  0.00    +0.000 C 
ATOM     27  C   UNL     1       3.615   0.139   0.000  0.00  0.00    +0.000 C 
ATOM     28  C   UNL     1       4.329   1.377   0.000  0.00  0.00    +0.000 C 
ENDBRANCH  25  26
BRANCH  25  29
ATOM     29  C   UNL     1       2.900   2.202   0.000  0.00  0.00    +0.000 C 
ATOM     30  C   UNL     1       3.615   2.614   0.000  0.00  0.00    +0.000 C 
ENDBRANCH  25  29
ENDBRANCH  24  25
ENDBRANCH  23  24
ENDBRANCH  22  23
ENDBRANCH  14  22
TORSDOF 6
