REMARK  Name = 
REMARK  17 active torsions:
REMARK  status: ('A' for Active; 'I' for Inactive)
REMARK    1  A    between atoms: SG_1  and  CB_14
REMARK    2  A    between atoms: SG_1  and  C_21
REMARK    3  A    between atoms: N_8  and  CA_11
REMARK    4  A    between atoms: N_9  and  CA_18
REMARK    5  A    between atoms: CA_11  and  C_12
REMARK    6  A    between atoms: CA_11  and  CB_14
REMARK    7  A    between atoms: C_13  and  C_15
REMARK    8  A    between atoms: C_15  and  C_17
REMARK    9  A    between atoms: CA_16  and  C_17
REMARK   10  A    between atoms: CA_16  and  C_19
REMARK   11  A    between atoms: CA_18  and  C_20
REMARK   12  A    between atoms: C_21  and  C_22
REMARK   13  A    between atoms: C_22  and  C_23
REMARK   14  A    between atoms: C_23  and  C_24
REMARK   15  A    between atoms: C_24  and  C_25
REMARK   16  A    between atoms: C_25  and  C_26
REMARK   17  A    between atoms: C_26  and  C_27
REMARK                            x       y       z     vdW  Elec       q    Type
REMARK                         _______ _______ _______ _____ _____    ______ ____
ROOT
ATOM      1  CA  UNL     1       1.099   0.719   0.000  0.00  0.00    +0.000 C 
ENDROOT
BRANCH   1   4
ATOM      2  O   UNL     1       1.822   1.959   0.000  0.00  0.00    +0.000 OA
ATOM      3  N   UNL     1       2.546   0.719   0.000  0.00  0.00    +0.000 NA
ATOM      4  C   ACE A   1       1.822   1.132   0.000  0.00  0.00    +0.000 C 
BRANCH   3   5
ATOM      5  CA  UNL     1       3.260   1.132   0.000  0.00  0.00    +0.000 C 
BRANCH   5   8
ATOM      6  O   UNL     1       4.697   1.132   0.000  0.00  0.00    +0.000 OA
ATOM      7  OXT UNL     1       3.974  -0.108   0.000  0.00  0.00    +0.000 OA
ATOM      8  C   UNL     1       3.974   0.719   0.000  0.00  0.00    +0.000 C 
ENDBRANCH   5   8
ENDBRANCH   3   5
ENDBRANCH   1   4
BRANCH   1  10
ATOM      9  O   UNL     1      -0.329  -0.108   0.000  0.00  0.00    +0.000 OA
ATOM     10  N   UNL     1       0.385   1.132   0.000  0.00  0.00    +0.000 NA
ATOM     11  C   UNL     1      -0.329   0.719   0.000  0.00  0.00    +0.000 C 
BRANCH  11  12
ATOM     12  C   UNL     1      -1.043   1.132   0.000  0.00  0.00    +0.000 C 
BRANCH  12  13
ATOM     13  C   UNL     1      -1.766   0.719   0.000  0.00  0.00    +0.000 C 
BRANCH  13  15
ATOM     14  N   UNL     1      -2.480   1.959   0.000  0.00  0.00    +0.000 NA
ATOM     15  CA  UNL     1      -2.480   1.132   0.000  0.00  0.00    +0.000 C 
BRANCH  15  18
ATOM     16  O   UNL     1      -3.194  -0.108   0.000  0.00  0.00    +0.000 OA
ATOM     17  OXT UNL     1      -3.908   1.132   0.000  0.00  0.00    +0.000 OA
ATOM     18  C   UNL     1      -3.194   0.719   0.000  0.00  0.00    +0.000 C 
ENDBRANCH  15  18
ENDBRANCH  13  15
ENDBRANCH  12  13
ENDBRANCH  11  12
ENDBRANCH   1  10
BRANCH   1  19
ATOM     19  CB  UNL     1       1.118  -0.249   0.000  0.00  0.00    +0.000 C 
BRANCH  19  20
ATOM     20  SG  UNL     1       0.319  -0.719   0.000  0.00  0.00    +0.000 S 
BRANCH  20  21
ATOM     21  C   UNL     1       0.319  -1.545   0.000  0.00  0.00    +0.000 C 
BRANCH  21  22
ATOM     22  C   UNL     1      -0.385  -1.959   0.000  0.00  0.00    +0.000 C 
BRANCH  22  23
ATOM     23  C   UNL     1      -1.109  -1.545   0.000  0.00  0.00    +0.000 C 
BRANCH  23  24
ATOM     24  C   UNL     1      -1.822  -1.959   0.000  0.00  0.00    +0.000 C 
BRANCH  24  25
ATOM     25  C   UNL     1      -2.546  -1.545   0.000  0.00  0.00    +0.000 C 
BRANCH  25  26
ATOM     26  C   UNL     1      -3.260  -1.959   0.000  0.00  0.00    +0.000 C 
BRANCH  26  27
ATOM     27  C   UNL     1      -3.974  -1.545   0.000  0.00  0.00    +0.000 C 
ATOM     28  C   UNL     1      -4.697  -1.959   0.000  0.00  0.00    +0.000 C 
ENDBRANCH  26  27
ENDBRANCH  25  26
ENDBRANCH  24  25
ENDBRANCH  23  24
ENDBRANCH  22  23
ENDBRANCH  21  22
ENDBRANCH  20  21
ENDBRANCH  19  20
ENDBRANCH   1  19
TORSDOF 17
