REMARK  Name = 
REMARK  2 active torsions:
REMARK  status: ('A' for Active; 'I' for Inactive)
REMARK    1  A    between atoms: C_7  and  C_8
REMARK    2  A    between atoms: C_8  and  N_9
REMARK                            x       y       z     vdW  Elec       q    Type
REMARK                         _______ _______ _______ _____ _____    ______ ____
ROOT
ATOM      1  O   UNL     1      -2.143   1.238   0.000  0.00  0.00    +0.000 OA
ATOM      2  C   UNL     1      -1.429   0.825   0.000  0.00  0.00    +0.000 A 
ATOM      3  N   UNL     1      -1.429   0.000   0.000  0.00  0.00    +0.000 NA
ATOM      4  N   UNL     1      -0.715  -0.412   0.000  0.00  0.00    +0.000 NA
ATOM      5  C   UNL     1       0.000   0.000   0.000  0.00  0.00    +0.000 A 
ATOM      6  N   UNL     1       0.715  -0.412   0.000  0.00  0.00    +0.000 NA
ATOM      7  C   UNL     1       1.429   0.000   0.000  0.00  0.00    +0.000 C 
ATOM      8  N   UNL     1       1.429   0.825   0.000  0.00  0.00    +0.000 NA
ATOM      9  C   UNL     1       0.715   1.238   0.000  0.00  0.00    +0.000 A 
ATOM     10  C   UNL     1       0.000   0.825   0.000  0.00  0.00    +0.000 A 
ATOM     11  C   UNL     1      -0.715   1.238   0.000  0.00  0.00    +0.000 A 
ATOM     12  C   UNL     1      -0.715   2.062   0.000  0.00  0.00    +0.000 A 
ATOM     13  C   UNL     1       0.000   2.475   0.000  0.00  0.00    +0.000 A 
ATOM     14  C   UNL     1       0.715   2.062   0.000  0.00  0.00    +0.000 A 
ENDROOT
BRANCH   7  15
ATOM     15  C   UNL     1       2.143  -0.412   0.000  0.00  0.00    +0.000 C 
BRANCH  15  16
ATOM     16  N   UNL     1       2.143  -1.238   0.000  0.00  0.00    +0.000 NA
ATOM     17  C   UNL     1       1.476  -1.722   0.000  0.00  0.00    +0.000 C 
ATOM     18  C   UNL     1       1.731  -2.507   0.000  0.00  0.00    +0.000 A 
ATOM     19  C   UNL     1       2.556  -2.507   0.000  0.00  0.00    +0.000 A 
ATOM     20  C   UNL     1       2.811  -1.722   0.000  0.00  0.00    +0.000 C 
ATOM     21  C   UNL     1       2.968  -3.221   0.000  0.00  0.00    +0.000 A 
ATOM     22  C   UNL     1       2.556  -3.936   0.000  0.00  0.00    +0.000 A 
ATOM     23  C   UNL     1       1.731  -3.936   0.000  0.00  0.00    +0.000 A 
ATOM     24  C   UNL     1       1.318  -3.221   0.000  0.00  0.00    +0.000 A 
ENDBRANCH  15  16
ENDBRANCH   7  15
TORSDOF 2
