REMARK  Name = 
REMARK  3 active torsions:
REMARK  status: ('A' for Active; 'I' for Inactive)
REMARK    1  A    between atoms: N_3  and  C_8
REMARK    2  A    between atoms: C_10  and  C_13
REMARK    3  A    between atoms: C_11  and  C_17
REMARK                            x       y       z     vdW  Elec       q    Type
REMARK                         _______ _______ _______ _____ _____    ______ ____
ROOT
ATOM      1  C   UNL     1       0.133  -0.192   0.000  0.00  0.00    +0.000 C 
ATOM      2  O   UNL     1      -0.534  -0.677   0.000  0.00  0.00    +0.000 OA
ATOM      3  C   UNL     1      -0.280  -1.462   0.000  0.00  0.00    +0.000 C 
ATOM      4  C   UNL     1       0.545  -1.462   0.000  0.00  0.00    +0.000 C 
ATOM      5  C   UNL     1       0.800  -0.677   0.000  0.00  0.00    +0.000 C 
ATOM      6  O   UNL     1       1.585  -0.422   0.000  0.00  0.00    +0.000 OA
ATOM      7  O   UNL     1       1.369  -1.409   0.000  0.00  0.00    +0.000 OA
ENDROOT
BRANCH   1  10
ATOM      8  N   UNL     1      -0.579   1.867   0.000  0.00  0.00    +0.000 NA
ATOM      9  C   UNL     1      -0.579   1.042   0.000  0.00  0.00    +0.000 A 
ATOM     10  N   UNL     1       0.133   0.633   0.000  0.00  0.00    +0.000 N 
ATOM     11  C   UNL     1       0.845   1.042   0.000  0.00  0.00    +0.000 A 
ATOM     12  C   UNL     1       0.845   1.867   0.000  0.00  0.00    +0.000 A 
ATOM     13  C   UNL     1       0.133   2.283   0.000  0.00  0.00    +0.000 A 
ATOM     14  O   UNL     1      -1.292   0.628   0.000  0.00  0.00    +0.000 OA
ATOM     15  N   UNL     1       0.133   3.108   0.000  0.00  0.00    +0.000 NA
ENDBRANCH   1  10
BRANCH   3  16
ATOM     16  C   UNL     1      -0.764  -2.129   0.000  0.00  0.00    +0.000 C 
ATOM     17  O   UNL     1      -1.585  -2.043   0.000  0.00  0.00    +0.000 OA
ENDBRANCH   3  16
BRANCH   4  18
ATOM     18  C   UNL     1       0.538  -2.283   0.000  0.00  0.00    +0.000 C 
ATOM     19  C   UNL     1       0.534  -3.108   0.000  0.00  0.00    +0.000 C 
ENDBRANCH   4  18
TORSDOF 3
