REMARK  Name = 
REMARK  6 active torsions:
REMARK  status: ('A' for Active; 'I' for Inactive)
REMARK    1  A    between atoms: C_9  and  O_14
REMARK    2  A    between atoms: O_14  and  C_37
REMARK    3  A    between atoms: C_16  and  O_20
REMARK    4  A    between atoms: O_20  and  C_27
REMARK    5  A    between atoms: C_30  and  O_33
REMARK    6  A    between atoms: C_40  and  N_44
REMARK                            x       y       z     vdW  Elec       q    Type
REMARK                         _______ _______ _______ _____ _____    ______ ____
ROOT
ATOM      1  C   UNL     1      -1.066   2.886   0.000  0.00  0.00    +0.000 C 
ATOM      2  C   UNL     1      -1.073   3.728   0.000  0.00  0.00    +0.000 C 
ATOM      3  O   UNL     1      -0.349   3.304   0.000  0.00  0.00    +0.000 OA
ATOM      4  C   UNL     1      -1.066   2.058   0.000  0.00  0.00    +0.000 C 
ATOM      5  C   UNL     1      -1.783   3.304   0.000  0.00  0.00    +0.000 C 
ATOM      6  C   UNL     1      -0.345   1.651   0.000  0.00  0.00    +0.000 C 
ATOM      7  C   UNL     1      -2.496   2.886   0.000  0.00  0.00    +0.000 C 
ATOM      8  O   UNL     1      -1.783   4.125   0.000  0.00  0.00    +0.000 OA
ATOM      9  C   UNL     1      -0.345   0.823   0.000  0.00  0.00    +0.000 C 
ATOM     10  C   UNL     1       0.364   2.061   0.000  0.00  0.00    +0.000 C 
ATOM     11  C   UNL     1      -2.496   2.058   0.000  0.00  0.00    +0.000 C 
ATOM     12  C   UNL     1      -3.213   3.304   0.000  0.00  0.00    +0.000 C 
ATOM     13  C   UNL     1      -1.066   0.408   0.000  0.00  0.00    +0.000 C 
ATOM     14  C   UNL     1      -3.213   1.651   0.000  0.00  0.00    +0.000 C 
ATOM     15  C   UNL     1      -1.066  -0.416   0.000  0.00  0.00    +0.000 C 
ATOM     16  C   UNL     1      -1.783   0.823   0.000  0.00  0.00    +0.000 C 
ATOM     17  C   UNL     1      -3.213   0.823   0.000  0.00  0.00    +0.000 C 
ATOM     18  C   UNL     1      -3.927   2.061   0.000  0.00  0.00    +0.000 C 
ATOM     19  C   UNL     1      -1.783  -0.827   0.000  0.00  0.00    +0.000 C 
ATOM     20  O   UNL     1      -2.496   0.408   0.000  0.00  0.00    +0.000 OA
ATOM     21  C   UNL     1      -3.930   0.405   0.000  0.00  0.00    +0.000 C 
ATOM     22  C   UNL     1      -2.496  -0.416   0.000  0.00  0.00    +0.000 C 
ATOM     23  C   UNL     1      -1.783  -1.652   0.000  0.00  0.00    +0.000 C 
ATOM     24  O   UNL     1      -3.213  -0.827   0.000  0.00  0.00    +0.000 OA
ATOM     25  O   UNL     1      -1.782   1.642   0.000  0.00  0.00    +0.000 OA
ENDROOT
BRANCH  15  26
ATOM     26  O   UNL     1      -0.345  -0.827   0.000  0.00  0.00    +0.000 OA
BRANCH  26  27
ATOM     27  C   UNL     1      -0.347  -1.652   0.000  0.00  0.00    +0.000 C 
ATOM     28  C   UNL     1      -1.068  -2.067   0.000  0.00  0.00    +0.000 C 
ATOM     29  O   UNL     1       0.365  -2.066   0.000  0.00  0.00    +0.000 OA
ATOM     30  C   UNL     1      -1.065  -2.889   0.000  0.00  0.00    +0.000 C 
ATOM     31  C   UNL     1       0.365  -2.889   0.000  0.00  0.00    +0.000 C 
ATOM     32  C   UNL     1      -0.356  -3.304   0.000  0.00  0.00    +0.000 C 
ATOM     33  C   UNL     1       1.077  -3.302   0.000  0.00  0.00    +0.000 C 
ATOM     34  O   UNL     1      -0.353  -4.125   0.000  0.00  0.00    +0.000 OA
BRANCH  30  35
ATOM     35  O   UNL     1      -1.778  -3.303   0.000  0.00  0.00    +0.000 OA
ATOM     36  C   UNL     1      -2.493  -2.891   0.000  0.00  0.00    +0.000 C 
ENDBRANCH  30  35
ENDBRANCH  26  27
ENDBRANCH  15  26
BRANCH   9  37
ATOM     37  O   UNL     1       0.361   0.408   0.000  0.00  0.00    +0.000 OA
BRANCH  37  38
ATOM     38  C   UNL     1       1.077  -0.002   0.000  0.00  0.00    +0.000 C 
ATOM     39  C   UNL     1       1.789   0.412   0.000  0.00  0.00    +0.000 C 
ATOM     40  O   UNL     1       1.080  -0.826   0.000  0.00  0.00    +0.000 OA
ATOM     41  C   UNL     1       2.505   0.002   0.000  0.00  0.00    +0.000 C 
ATOM     42  O   UNL     1       1.784   1.246   0.000  0.00  0.00    +0.000 OA
ATOM     43  C   UNL     1       1.792  -1.235   0.000  0.00  0.00    +0.000 C 
ATOM     44  C   UNL     1       2.505  -0.821   0.000  0.00  0.00    +0.000 C 
ATOM     45  C   UNL     1       1.794  -2.059   0.000  0.00  0.00    +0.000 C 
BRANCH  41  46
ATOM     46  N   UNL     1       3.218   0.416   0.000  0.00  0.00    +0.000 NA
ATOM     47  C   UNL     1       3.209   1.244   0.000  0.00  0.00    +0.000 C 
ATOM     48  C   UNL     1       3.930   0.007   0.000  0.00  0.00    +0.000 C 
ENDBRANCH  41  46
ENDBRANCH  37  38
ENDBRANCH   9  37
TORSDOF 6
