REMARK  Name = 
REMARK  8 active torsions:
REMARK  status: ('A' for Active; 'I' for Inactive)
REMARK    1  A    between atoms: C_5  and  N_7
REMARK    2  A    between atoms: C_6  and  C_18
REMARK    3  A    between atoms: N_7  and  C_8
REMARK    4  A    between atoms: C_12  and  C_14
REMARK    5  A    between atoms: C_18  and  O_20
REMARK    6  A    between atoms: O_20  and  C_21
REMARK    7  A    between atoms: C_21  and  C_22
REMARK    8  A    between atoms: C_22  and  N_23
REMARK                            x       y       z     vdW  Elec       q    Type
REMARK                         _______ _______ _______ _____ _____    ______ ____
ROOT
ATOM      1  C   UNL     1      -2.853  -2.058   0.000  0.00  0.00    +0.000 A 
ATOM      2  C   UNL     1      -2.853  -2.883   0.000  0.00  0.00    +0.000 A 
ATOM      3  C   UNL     1      -2.138  -3.296   0.000  0.00  0.00    +0.000 A 
ATOM      4  N   UNL     1      -1.424  -2.883   0.000  0.00  0.00    +0.000 NA
ATOM      5  C   UNL     1      -1.424  -2.058   0.000  0.00  0.00    +0.000 A 
ATOM      6  C   UNL     1      -2.138  -1.646   0.000  0.00  0.00    +0.000 A 
ENDROOT
BRANCH   6   7
ATOM      7  C   UNL     1      -2.138  -0.821   0.000  0.00  0.00    +0.000 C 
ATOM      8  O   UNL     1      -2.863  -0.402   0.000  0.00  0.00    +0.000 OA
BRANCH   7   9
ATOM      9  O   UNL     1      -1.434  -0.414   0.000  0.00  0.00    +0.000 OA
BRANCH   9  10
ATOM     10  C   UNL     1      -1.434   0.411   0.000  0.00  0.00    +0.000 C 
BRANCH  10  11
ATOM     11  C   UNL     1      -0.729   0.818   0.000  0.00  0.00    +0.000 C 
BRANCH  11  12
ATOM     12  N   UNL     1      -0.729   1.654   0.000  0.00  0.00    +0.000 NA
ATOM     13  C   UNL     1      -0.030   2.058   0.000  0.00  0.00    +0.000 C 
ATOM     14  C   UNL     1      -0.030   2.883   0.000  0.00  0.00    +0.000 C 
ATOM     15  O   UNL     1      -0.744   3.296   0.000  0.00  0.00    +0.000 OA
ATOM     16  C   UNL     1      -1.444   2.892   0.000  0.00  0.00    +0.000 C 
ATOM     17  C   UNL     1      -1.444   2.067   0.000  0.00  0.00    +0.000 C 
ENDBRANCH  11  12
ENDBRANCH  10  11
ENDBRANCH   9  10
ENDBRANCH   7   9
ENDBRANCH   6   7
BRANCH   5  18
ATOM     18  N   UNL     1      -0.698  -1.639   0.000  0.00  0.00    +0.000 NA
BRANCH  18  19
ATOM     19  C   UNL     1       0.012  -2.049   0.000  0.00  0.00    +0.000 A 
ATOM     20  C   UNL     1       0.012  -2.883   0.000  0.00  0.00    +0.000 A 
ATOM     21  C   UNL     1       0.727  -3.295   0.000  0.00  0.00    +0.000 A 
ATOM     22  C   UNL     1       1.441  -2.882   0.000  0.00  0.00    +0.000 A 
ATOM     23  C   UNL     1       1.441  -2.049   0.000  0.00  0.00    +0.000 A 
ATOM     24  C   UNL     1       0.726  -1.636   0.000  0.00  0.00    +0.000 A 
BRANCH  23  25
ATOM     25  C   UNL     1       2.148  -1.640   0.000  0.00  0.00    +0.000 C 
ATOM     26  F   UNL     1       2.561  -2.354   0.000  0.00  0.00    +0.000 F 
ATOM     27  F   UNL     1       1.736  -0.925   0.000  0.00  0.00    +0.000 F 
ATOM     28  F   UNL     1       2.863  -1.227   0.000  0.00  0.00    +0.000 F 
ENDBRANCH  23  25
ENDBRANCH  18  19
ENDBRANCH   5  18
TORSDOF 8
