REMARK  Name = 
REMARK  5 active torsions:
REMARK  status: ('A' for Active; 'I' for Inactive)
REMARK    1  A    between atoms: C_8  and  C_10
REMARK    2  A    between atoms: C_8  and  C_13
REMARK    3  A    between atoms: C_9  and  C_12
REMARK    4  A    between atoms: C_12  and  O_17
REMARK    5  A    between atoms: C_13  and  O_17
REMARK                            x       y       z     vdW  Elec       q    Type
REMARK                         _______ _______ _______ _____ _____    ______ ____
ROOT
ATOM      1  C   UNL     1       0.412  -2.365   0.000  0.00  0.00    +0.000 C 
ATOM      2  C   UNL     1      -0.412  -0.935   0.000  0.00  0.00    +0.000 C 
ATOM      3  C   UNL     1       0.000  -1.650   0.000  0.00  0.00    +0.000 C 
ENDROOT
BRANCH   3   4
ATOM      4  C   UNL     1       0.715  -1.238   0.000  0.00  0.00    +0.000 C 
BRANCH   4   9
ATOM      5  C   UNL     1       1.429   0.000   0.000  0.00  0.00    +0.000 A 
ATOM      6  C   UNL     1       0.000   0.000   0.000  0.00  0.00    +0.000 A 
ATOM      7  C   UNL     1       1.429   0.825   0.000  0.00  0.00    +0.000 A 
ATOM      8  C   UNL     1       0.000   0.825   0.000  0.00  0.00    +0.000 A 
ATOM      9  C   UNL     1       0.715  -0.412   0.000  0.00  0.00    +0.000 A 
ATOM     10  C   UNL     1       0.715   1.238   0.000  0.00  0.00    +0.000 A 
ATOM     11 CL   UNL     1       0.715   2.062   0.000  0.00  0.00    +0.000 Cl
ENDBRANCH   4   9
ENDBRANCH   3   4
BRANCH   3  12
ATOM     12  O   UNL     1      -0.715  -2.062   0.000  0.00  0.00    +0.000 OA
BRANCH  12  13
ATOM     13  C   UNL     1      -0.715  -2.888   0.000  0.00  0.00    +0.000 C 
ATOM     14  O   UNL     1       0.000  -3.300   0.000  0.00  0.00    +0.000 OA
BRANCH  13  16
ATOM     15  C   UNL     1      -1.429  -4.125   0.000  0.00  0.00    +0.000 C 
ATOM     16  C   UNL     1      -1.429  -3.300   0.000  0.00  0.00    +0.000 C 
ATOM     17  N   UNL     1      -2.143  -2.888   0.000  0.00  0.00    +0.000 NA
ENDBRANCH  13  16
ENDBRANCH  12  13
ENDBRANCH   3  12
TORSDOF 5
