REMARK  Name = 
REMARK  6 active torsions:
REMARK  status: ('A' for Active; 'I' for Inactive)
REMARK    1  A    between atoms: C_3  and  C_28
REMARK    2  A    between atoms: C_4  and  C_13
REMARK    3  A    between atoms: C_16  and  O_17
REMARK    4  A    between atoms: O_17  and  C_18
REMARK    5  A    between atoms: C_18  and  C_19
REMARK    6  A    between atoms: C_19  and  N_20
REMARK                            x       y       z     vdW  Elec       q    Type
REMARK                         _______ _______ _______ _____ _____    ______ ____
ROOT
ATOM      1  C   UNL     1       0.000   0.825   0.000  0.00  0.00    +0.000 C 
ATOM      2  C   UNL     1       0.000   0.000   0.000  0.00  0.00    +0.000 C 
ATOM      3  C   UNL     1      -0.715  -0.412   0.000  0.00  0.00    +0.000 C 
ATOM      4  C   UNL     1      -0.715  -1.238   0.000  0.00  0.00    +0.000 C 
ATOM      5  O   UNL     1       0.000  -1.650   0.000  0.00  0.00    +0.000 OA
ATOM      6  C   UNL     1       0.715  -1.238   0.000  0.00  0.00    +0.000 A 
ATOM      7  C   UNL     1       0.715  -0.412   0.000  0.00  0.00    +0.000 A 
ATOM      8  C   UNL     1       1.429   0.000   0.000  0.00  0.00    +0.000 A 
ATOM      9  C   UNL     1       2.143  -0.412   0.000  0.00  0.00    +0.000 A 
ATOM     10  C   UNL     1       2.143  -1.238   0.000  0.00  0.00    +0.000 A 
ATOM     11  O   UNL     1       2.858  -1.650   0.000  0.00  0.00    +0.000 OA
ATOM     12  C   UNL     1       1.429  -1.650   0.000  0.00  0.00    +0.000 A 
ENDROOT
BRANCH   3  13
ATOM     13  C   UNL     1      -1.429   0.000   0.000  0.00  0.00    +0.000 A 
ATOM     14  C   UNL     1      -2.143  -0.412   0.000  0.00  0.00    +0.000 A 
ATOM     15  C   UNL     1      -2.858   0.000   0.000  0.00  0.00    +0.000 A 
ATOM     16  C   UNL     1      -2.858   0.825   0.000  0.00  0.00    +0.000 A 
ATOM     17  O   UNL     1      -3.572   1.238   0.000  0.00  0.00    +0.000 OA
ATOM     18  C   UNL     1      -2.143   1.238   0.000  0.00  0.00    +0.000 A 
ATOM     19  C   UNL     1      -1.429   0.825   0.000  0.00  0.00    +0.000 A 
ENDBRANCH   3  13
BRANCH   4  20
ATOM     20  C   UNL     1      -1.429  -1.650   0.000  0.00  0.00    +0.000 A 
ATOM     21  C   UNL     1      -1.429  -2.475   0.000  0.00  0.00    +0.000 A 
ATOM     22  C   UNL     1      -2.143  -2.888   0.000  0.00  0.00    +0.000 A 
ATOM     23  C   UNL     1      -2.858  -2.475   0.000  0.00  0.00    +0.000 A 
ATOM     24  C   UNL     1      -2.858  -1.650   0.000  0.00  0.00    +0.000 A 
ATOM     25  C   UNL     1      -2.143  -1.238   0.000  0.00  0.00    +0.000 A 
BRANCH  23  26
ATOM     26  O   UNL     1      -3.572  -2.888   0.000  0.00  0.00    +0.000 OA
BRANCH  26  27
ATOM     27  C   UNL     1      -4.287  -2.475   0.000  0.00  0.00    +0.000 C 
BRANCH  27  28
ATOM     28  C   UNL     1      -5.001  -2.888   0.000  0.00  0.00    +0.000 C 
BRANCH  28  29
ATOM     29  N   UNL     1      -5.716  -2.475   0.000  0.00  0.00    +0.000 NA
ATOM     30  C   UNL     1      -6.430  -2.888   0.000  0.00  0.00    +0.000 C 
ATOM     31  C   UNL     1      -7.145  -2.475   0.000  0.00  0.00    +0.000 C 
ATOM     32  C   UNL     1      -7.145  -1.650   0.000  0.00  0.00    +0.000 C 
ATOM     33  C   UNL     1      -6.430  -1.238   0.000  0.00  0.00    +0.000 C 
ATOM     34  C   UNL     1      -5.716  -1.650   0.000  0.00  0.00    +0.000 C 
ENDBRANCH  28  29
ENDBRANCH  27  28
ENDBRANCH  26  27
ENDBRANCH  23  26
ENDBRANCH   4  20
TORSDOF 6
