REMARK  Name = 
REMARK  6 active torsions:
REMARK  status: ('A' for Active; 'I' for Inactive)
REMARK    1  A    between atoms: C_4  and  C_7
REMARK    2  A    between atoms: C_10  and  C_13
REMARK    3  A    between atoms: C_13  and  C_14
REMARK    4  A    between atoms: C_14  and  N_15
REMARK    5  A    between atoms: C_18  and  C_21
REMARK    6  A    between atoms: C_25  and  C_27
REMARK                            x       y       z     vdW  Elec       q    Type
REMARK                         _______ _______ _______ _____ _____    ______ ____
ROOT
ATOM      1  N   UNL     1       0.715  -2.888   0.000  0.00  0.00    +0.000 NA
ATOM      2  C   UNL     1       0.000  -2.475   0.000  0.00  0.00    +0.000 C 
ATOM      3  C   UNL     1       0.000  -1.650   0.000  0.00  0.00    +0.000 C 
ATOM      4  C   UNL     1       0.715  -1.238   0.000  0.00  0.00    +0.000 C 
ATOM      5  C   UNL     1       1.429  -1.650   0.000  0.00  0.00    +0.000 C 
ATOM      6  C   UNL     1       1.429  -2.475   0.000  0.00  0.00    +0.000 C 
ENDROOT
BRANCH   4   7
ATOM      7  C   UNL     1       0.715  -0.412   0.000  0.00  0.00    +0.000 A 
ATOM      8  C   UNL     1       0.000   0.000   0.000  0.00  0.00    +0.000 A 
ATOM      9  C   UNL     1       0.000   0.825   0.000  0.00  0.00    +0.000 A 
ATOM     10  C   UNL     1       0.715   1.238   0.000  0.00  0.00    +0.000 A 
ATOM     11  C   UNL     1       1.429   0.825   0.000  0.00  0.00    +0.000 A 
ATOM     12  C   UNL     1       1.429   0.000   0.000  0.00  0.00    +0.000 A 
BRANCH  11  13
ATOM     13  C   UNL     1       2.143   1.238   0.000  0.00  0.00    +0.000 C 
ATOM     14  F   UNL     1       2.858   1.650   0.000  0.00  0.00    +0.000 F 
ATOM     15  F   UNL     1       2.556   0.523   0.000  0.00  0.00    +0.000 F 
ATOM     16  F   UNL     1       1.731   1.952   0.000  0.00  0.00    +0.000 F 
ENDBRANCH  11  13
ENDBRANCH   4   7
BRANCH   1  17
ATOM     17  C   UNL     1       0.715  -3.712   0.000  0.00  0.00    +0.000 C 
BRANCH  17  18
ATOM     18  C   UNL     1       1.429  -4.125   0.000  0.00  0.00    +0.000 C 
BRANCH  18  22
ATOM     19  C   UNL     1       1.429  -6.600   0.000  0.00  0.00    +0.000 A 
ATOM     20  C   UNL     1       0.715  -6.188   0.000  0.00  0.00    +0.000 A 
ATOM     21  C   UNL     1       0.715  -5.362   0.000  0.00  0.00    +0.000 A 
ATOM     22  C   UNL     1       1.429  -4.950   0.000  0.00  0.00    +0.000 A 
ATOM     23  C   UNL     1       2.143  -5.362   0.000  0.00  0.00    +0.000 A 
ATOM     24  C   UNL     1       2.143  -6.188   0.000  0.00  0.00    +0.000 A 
BRANCH  19  28
ATOM     25  C   UNL     1       1.429  -9.075   0.000  0.00  0.00    +0.000 A 
ATOM     26  C   UNL     1       0.715  -8.662   0.000  0.00  0.00    +0.000 A 
ATOM     27  C   UNL     1       0.715  -7.838   0.000  0.00  0.00    +0.000 A 
ATOM     28  C   UNL     1       1.429  -7.425   0.000  0.00  0.00    +0.000 A 
ATOM     29  C   UNL     1       2.143  -7.838   0.000  0.00  0.00    +0.000 A 
ATOM     30  C   UNL     1       2.143  -8.662   0.000  0.00  0.00    +0.000 A 
ENDBRANCH  19  28
ENDBRANCH  18  22
ENDBRANCH  17  18
ENDBRANCH   1  17
TORSDOF 6
