REMARK  Name = 
REMARK  2 active torsions:
REMARK  status: ('A' for Active; 'I' for Inactive)
REMARK    1  A    between atoms: C_1  and  S_2
REMARK    2  A    between atoms: S_2  and  N_5
REMARK                            x       y       z     vdW  Elec       q    Type
REMARK                         _______ _______ _______ _____ _____    ______ ____
ROOT
ATOM      1  C   UNL     1      -0.214   0.276   0.000  0.00  0.00    +0.000 A 
ATOM      2  C   UNL     1      -0.611  -0.447   0.000  0.00  0.00    +0.000 A 
ATOM      3  C   UNL     1      -0.641   0.982   0.000  0.00  0.00    +0.000 A 
ATOM      4  C   UNL     1      -1.436  -0.464   0.000  0.00  0.00    +0.000 A 
ATOM      5  C   UNL     1      -1.466   0.964   0.000  0.00  0.00    +0.000 A 
ATOM      6  C   UNL     1      -1.863   0.241   0.000  0.00  0.00    +0.000 A 
ATOM      7  N   UNL     1      -2.688   0.224   0.000  0.00  0.00    +0.000 NA
ENDROOT
BRANCH   1   8
ATOM      8  S   UNL     1       0.611   0.293   0.000  0.00  0.00    +0.000 S 
ATOM      9  O   UNL     1       0.594   1.118   0.000  0.00  0.00    +0.000 OA
ATOM     10  O   UNL     1       0.628  -0.531   0.000  0.00  0.00    +0.000 OA
BRANCH   8  11
ATOM     11  N   UNL     1       1.436   0.310   0.000  0.00  0.00    +0.000 NA
ATOM     12  C   UNL     1       1.863  -0.395   0.000  0.00  0.00    +0.000 C 
ATOM     13  N   UNL     1       2.688  -0.378   0.000  0.00  0.00    +0.000 NA
ATOM     14  N   UNL     1       1.466  -1.118   0.000  0.00  0.00    +0.000 NA
ENDBRANCH   8  11
ENDBRANCH   1   8
TORSDOF 2
