REMARK  Name = 
REMARK  10 active torsions:
REMARK  status: ('A' for Active; 'I' for Inactive)
REMARK    1  A    between atoms: C_1  and  C_9
REMARK    2  A    between atoms: N_2  and  C_4
REMARK    3  A    between atoms: C_4  and  C_5
REMARK    4  A    between atoms: C_5  and  C_6
REMARK    5  A    between atoms: C_11  and  N_26
REMARK    6  A    between atoms: C_13  and  C_18
REMARK    7  A    between atoms: N_19  and  C_20
REMARK    8  A    between atoms: C_20  and  C_21
REMARK    9  A    between atoms: C_21  and  C_22
REMARK   10  A    between atoms: C_28  and  C_30
REMARK                            x       y       z     vdW  Elec       q    Type
REMARK                         _______ _______ _______ _____ _____    ______ ____
ROOT
ATOM      1  C   UNL     1       0.713   0.207   0.000  0.00  0.00    +0.000 A 
ATOM      2  C   UNL     1       1.431  -0.203   0.000  0.00  0.00    +0.000 A 
ATOM      3  C   UNL     1       1.431  -1.028   0.000  0.00  0.00    +0.000 A 
ATOM      4  C   UNL     1       0.714  -1.443   0.000  0.00  0.00    +0.000 A 
ATOM      5  C   UNL     1       0.001  -1.028   0.000  0.00  0.00    +0.000 A 
ATOM      6  C   UNL     1       0.001  -0.203   0.000  0.00  0.00    +0.000 A 
ATOM      7  I   UNL     1       0.713  -2.268   0.000  0.00  0.00    +0.000 I 
ATOM      8  I   UNL     1      -0.715   0.207   0.000  0.00  0.00    +0.000 I 
ATOM      9  I   UNL     1       2.146   0.208   0.000  0.00  0.00    +0.000 I 
ENDROOT
BRANCH   3  10
ATOM     10  N   UNL     1       2.144  -1.443   0.000  0.00  0.00    +0.000 N 
ATOM     11  C   UNL     1       2.138  -2.263   0.000  0.00  0.00    +0.000 C 
ATOM     12  C   UNL     1       2.856  -1.033   0.000  0.00  0.00    +0.000 C 
ATOM     13  O   UNL     1       2.854  -0.208   0.000  0.00  0.00    +0.000 OA
BRANCH  12  14
ATOM     14  C   UNL     1       3.566  -1.444   0.000  0.00  0.00    +0.000 C 
ATOM     15  O   UNL     1       4.265  -1.041   0.000  0.00  0.00    +0.000 OA
ENDBRANCH  12  14
ENDBRANCH   3  10
BRANCH   5  16
ATOM     16  C   UNL     1      -0.715  -1.443   0.000  0.00  0.00    +0.000 C 
ATOM     17  N   UNL     1      -1.427  -1.024   0.000  0.00  0.00    +0.000 NA
ATOM     18  O   UNL     1      -0.717  -2.268   0.000  0.00  0.00    +0.000 OA
BRANCH  17  19
ATOM     19  C   UNL     1      -2.140  -1.439   0.000  0.00  0.00    +0.000 C 
BRANCH  19  20
ATOM     20  C   UNL     1      -2.849  -1.024   0.000  0.00  0.00    +0.000 C 
ATOM     21  O   UNL     1      -2.849  -0.199   0.000  0.00  0.00    +0.000 OA
BRANCH  20  22
ATOM     22  C   UNL     1      -3.562  -1.439   0.000  0.00  0.00    +0.000 C 
ATOM     23  O   UNL     1      -4.276  -1.024   0.000  0.00  0.00    +0.000 OA
ENDBRANCH  20  22
ENDBRANCH  19  20
ENDBRANCH  17  19
ENDBRANCH   5  16
BRANCH   1  24
ATOM     24  C   UNL     1       0.714   1.028   0.000  0.00  0.00    +0.000 C 
ATOM     25  N   UNL     1       1.430   1.442   0.000  0.00  0.00    +0.000 NA
ATOM     26  O   UNL     1      -0.001   1.444   0.000  0.00  0.00    +0.000 OA
BRANCH  25  27
ATOM     27  C   UNL     1       2.140   1.028   0.000  0.00  0.00    +0.000 C 
BRANCH  27  28
ATOM     28  C   UNL     1       2.849   1.443   0.000  0.00  0.00    +0.000 C 
ATOM     29  O   UNL     1       2.849   2.268   0.000  0.00  0.00    +0.000 OA
BRANCH  28  30
ATOM     30  C   UNL     1       3.562   1.028   0.000  0.00  0.00    +0.000 C 
ATOM     31  O   UNL     1       4.276   1.443   0.000  0.00  0.00    +0.000 OA
ENDBRANCH  28  30
ENDBRANCH  27  28
ENDBRANCH  25  27
ENDBRANCH   1  24
TORSDOF 10
