REMARK  Name = 
REMARK  1 active torsions:
REMARK  status: ('A' for Active; 'I' for Inactive)
REMARK    1  A    between atoms: C_2  and  C_5
REMARK                            x       y       z     vdW  Elec       q    Type
REMARK                         _______ _______ _______ _____ _____    ______ ____
ROOT
ATOM      1 CL   UNL     1      -1.072  -0.619   0.000  0.00  0.00    +0.000 Cl
ATOM      2  C   UNL     1      -0.357  -0.206   0.000  0.00  0.00    +0.000 C 
ATOM      3 CL   UNL     1      -1.072   0.206   0.000  0.00  0.00    +0.000 Cl
ATOM      4 CL   UNL     1      -0.357  -1.031   0.000  0.00  0.00    +0.000 Cl
ENDROOT
BRANCH   2   6
ATOM      5  O   UNL     1       0.357   1.031   0.000  0.00  0.00    +0.000 OA
ATOM      6  C   UNL     1       0.357   0.206   0.000  0.00  0.00    +0.000 C 
ENDBRANCH   2   6
TORSDOF 1
