REMARK  Name = 
REMARK  4 active torsions:
REMARK  status: ('A' for Active; 'I' for Inactive)
REMARK    1  A    between atoms: C_5  and  C_18
REMARK    2  A    between atoms: C_6  and  O_8
REMARK    3  A    between atoms: O_8  and  C_9
REMARK    4  A    between atoms: C_9  and  C_11
REMARK                            x       y       z     vdW  Elec       q    Type
REMARK                         _______ _______ _______ _____ _____    ______ ____
ROOT
ATOM      1  C   UNL     1      -1.786   1.856   0.000  0.00  0.00    +0.000 C 
ATOM      2  C   UNL     1      -1.786   1.031   0.000  0.00  0.00    +0.000 C 
ATOM      3  C   UNL     1      -2.501   0.619   0.000  0.00  0.00    +0.000 C 
ATOM      4  C   UNL     1      -2.501  -0.206   0.000  0.00  0.00    +0.000 C 
ATOM      5  C   UNL     1      -1.786  -0.619   0.000  0.00  0.00    +0.000 C 
ATOM      6  C   UNL     1      -1.072  -0.206   0.000  0.00  0.00    +0.000 C 
ATOM      7  C   UNL     1      -1.072   0.619   0.000  0.00  0.00    +0.000 C 
ENDROOT
BRANCH   5   8
ATOM      8  C   UNL     1      -1.786  -1.444   0.000  0.00  0.00    +0.000 C 
ATOM      9  C   UNL     1      -2.501  -1.856   0.000  0.00  0.00    +0.000 C 
ATOM     10  C   UNL     1      -1.072  -1.856   0.000  0.00  0.00    +0.000 C 
ENDBRANCH   5   8
BRANCH   6  11
ATOM     11  O   UNL     1      -0.357  -0.619   0.000  0.00  0.00    +0.000 OA
BRANCH  11  12
ATOM     12  C   UNL     1       0.357  -0.206   0.000  0.00  0.00    +0.000 C 
ATOM     13  O   UNL     1       0.357   0.619   0.000  0.00  0.00    +0.000 OA
BRANCH  12  14
ATOM     14  C   UNL     1       1.072  -0.619   0.000  0.00  0.00    +0.000 A 
ATOM     15  C   UNL     1       1.786  -0.206   0.000  0.00  0.00    +0.000 A 
ATOM     16  C   UNL     1       2.501  -0.619   0.000  0.00  0.00    +0.000 A 
ATOM     17  C   UNL     1       2.501  -1.444   0.000  0.00  0.00    +0.000 A 
ATOM     18  C   UNL     1       1.786  -1.856   0.000  0.00  0.00    +0.000 A 
ATOM     19  C   UNL     1       1.072  -1.444   0.000  0.00  0.00    +0.000 A 
ATOM     20  N   UNL     1       0.357  -1.856   0.000  0.00  0.00    +0.000 NA
ENDBRANCH  12  14
ENDBRANCH  11  12
ENDBRANCH   6  11
TORSDOF 4
