REMARK  Name = 
REMARK  3 active torsions:
REMARK  status: ('A' for Active; 'I' for Inactive)
REMARK    1  A    between atoms: C_1  and  N_4
REMARK    2  A    between atoms: C_5  and  C_11
REMARK    3  A    between atoms: C_7  and  N_12
REMARK                            x       y       z     vdW  Elec       q    Type
REMARK                         _______ _______ _______ _____ _____    ______ ____
ROOT
ATOM      1  C   UNL     1      -0.360   1.028   0.000  0.00  0.00    +0.000 A 
ATOM      2  C   UNL     1       0.354   1.440   0.000  0.00  0.00    +0.000 A 
ATOM      3  C   UNL     1      -0.360   0.202   0.000  0.00  0.00    +0.000 A 
ATOM      4  C   UNL     1       1.069   1.026   0.000  0.00  0.00    +0.000 A 
ATOM      5  I   UNL     1       0.355   2.270   0.000  0.00  0.00    +0.000 I 
ATOM      6  C   UNL     1       0.351  -0.213   0.000  0.00  0.00    +0.000 A 
ATOM      7  I   UNL     1      -1.077  -0.207   0.000  0.00  0.00    +0.000 I 
ATOM      8  C   UNL     1       1.066   0.199   0.000  0.00  0.00    +0.000 A 
ATOM      9  I   UNL     1       1.789  -0.209   0.000  0.00  0.00    +0.000 I 
ENDROOT
BRANCH   1  10
ATOM     10  N   UNL     1      -1.075   1.441   0.000  0.00  0.00    +0.000 NA
ATOM     11  C   UNL     1      -1.790   1.036   0.000  0.00  0.00    +0.000 C 
ATOM     12  C   UNL     1      -2.498   1.446   0.000  0.00  0.00    +0.000 C 
ATOM     13  O   UNL     1      -1.794   0.207   0.000  0.00  0.00    +0.000 OA
ENDBRANCH   1  10
BRANCH   6  14
ATOM     14  N   UNL     1       0.357  -1.035   0.000  0.00  0.00    +0.000 NA
ATOM     15  C   UNL     1       1.070  -1.445   0.000  0.00  0.00    +0.000 C 
ATOM     16  C   UNL     1       1.780  -1.034   0.000  0.00  0.00    +0.000 C 
ATOM     17  O   UNL     1       1.069  -2.270   0.000  0.00  0.00    +0.000 OA
ENDBRANCH   6  14
BRANCH   4  18
ATOM     18  C   UNL     1       1.783   1.439   0.000  0.00  0.00    +0.000 C 
ATOM     19  O   UNL     1       1.783   2.264   0.000  0.00  0.00    +0.000 OA
ATOM     20  O   UNL     1       2.498   1.026   0.000  0.00  0.00    +0.000 OA
ENDBRANCH   4  18
TORSDOF 3
