REMARK  Name = 
REMARK  19 active torsions:
REMARK  status: ('A' for Active; 'I' for Inactive)
REMARK    1  A    between atoms: N_19  and  C_54
REMARK    2  A    between atoms: N_20  and  C_46
REMARK    3  A    between atoms: N_21  and  C_44
REMARK    4  A    between atoms: N_22  and  C_57
REMARK    5  A    between atoms: C_24  and  C_26
REMARK    6  A    between atoms: C_25  and  C_27
REMARK    7  A    between atoms: C_26  and  C_29
REMARK    8  A    between atoms: C_28  and  C_30
REMARK    9  A    between atoms: C_29  and  C_34
REMARK   10  A    between atoms: C_30  and  C_33
REMARK   11  A    between atoms: C_34  and  C_44
REMARK   12  A    between atoms: C_36  and  C_42
REMARK   13  A    between atoms: C_41  and  C_50
REMARK   14  A    between atoms: C_42  and  C_51
REMARK   15  A    between atoms: C_54  and  C_58
REMARK   16  A    between atoms: C_54  and  C_63
REMARK   17  A    between atoms: C_57  and  C_61
REMARK   18  A    between atoms: C_57  and  C_62
REMARK   19  A    between atoms: C_62  and  C_64
REMARK                            x       y       z     vdW  Elec       q    Type
REMARK                         _______ _______ _______ _____ _____    ______ ____
ROOT
ATOM      1  S   UNL     1      -1.429  -0.075   0.000  0.00  0.00    +0.000 S 
ATOM      2  S   UNL     1      -0.714   0.337   0.000  0.00  0.00    +0.000 S 
ATOM      3  O   UNL     1      -2.858  -1.725   0.000  0.00  0.00    +0.000 OA
ATOM      4  O   UNL     1       0.000  -3.375   0.000  0.00  0.00    +0.000 OA
ATOM      5  O   UNL     1      -4.287  -0.900   0.000  0.00  0.00    +0.000 OA
ATOM      6  O   UNL     1       2.858  -2.550   0.000  0.00  0.00    +0.000 OA
ATOM      7  O   UNL     1       2.241   0.068   0.000  0.00  0.00    +0.000 OA
ATOM      8  N   UNL     1      -0.714  -2.138   0.000  0.00  0.00    +0.000 N 
ATOM      9  N   UNL     1      -2.858  -2.550   0.000  0.00  0.00    +0.000 N 
ATOM     10  N   UNL     1       1.429  -2.550   0.000  0.00  0.00    +0.000 N 
ATOM     11  N   UNL     1      -2.858  -0.900   0.000  0.00  0.00    +0.000 N 
ATOM     12  N   UNL     1       1.429  -0.900   0.000  0.00  0.00    +0.000 N 
ATOM     13  C   UNL     1      -1.429  -2.550   0.000  0.00  0.00    +0.000 C 
ATOM     14  C   UNL     1      -3.572  -2.138   0.000  0.00  0.00    +0.000 C 
ATOM     15  C   UNL     1       0.715  -2.138   0.000  0.00  0.00    +0.000 C 
ATOM     16  C   UNL     1      -2.143  -2.138   0.000  0.00  0.00    +0.000 C 
ATOM     17  C   UNL     1       0.000  -2.550   0.000  0.00  0.00    +0.000 C 
ATOM     18  C   UNL     1      -3.572  -1.313   0.000  0.00  0.00    +0.000 C 
ATOM     19  C   UNL     1       2.143  -1.313   0.000  0.00  0.00    +0.000 C 
ATOM     20  C   UNL     1       2.143  -2.138   0.000  0.00  0.00    +0.000 C 
ATOM     21  C   UNL     1      -2.858  -0.075   0.000  0.00  0.00    +0.000 C 
ATOM     22  C   UNL     1       0.715   0.337   0.000  0.00  0.00    +0.000 C 
ATOM     23  C   UNL     1      -2.143   0.337   0.000  0.00  0.00    +0.000 C 
ATOM     24  C   UNL     1       1.429  -0.075   0.000  0.00  0.00    +0.000 C 
ATOM     25  C   UNL     1       0.000  -0.075   0.000  0.00  0.00    +0.000 C 
ATOM     26  H   UNL     1      -0.272  -1.882   0.000  0.00  0.00    +0.000 HD
ATOM     27  H   UNL     1      -2.858  -3.062   0.000  0.00  0.00    +0.000 HD
ATOM     28  H   UNL     1       1.429  -3.062   0.000  0.00  0.00    +0.000 HD
ATOM     29  H   UNL     1      -2.346  -0.900   0.000  0.00  0.00    +0.000 HD
ATOM     30  H   UNL     1       1.173  -1.343   0.000  0.00  0.00    +0.000 HD
ENDROOT
BRANCH  21  33
ATOM     31  O   UNL     1      -4.287  -0.075   0.000  0.00  0.00    +0.000 OA
ATOM     32  N   UNL     1      -3.572   1.162   0.000  0.00  0.00    +0.000 N 
ATOM     33  C   UNL     1      -3.572   0.337   0.000  0.00  0.00    +0.000 C 
ATOM     34  H   UNL     1      -3.129   1.418   0.000  0.00  0.00    +0.000 HD
BRANCH  32  35
ATOM     35  C   UNL     1      -4.287   1.575   0.000  0.00  0.00    +0.000 C 
BRANCH  35  38
ATOM     36  O   UNL     1      -3.572   2.812   0.000  0.00  0.00    +0.000 OA
ATOM     37  N   UNL     1      -5.001   2.812   0.000  0.00  0.00    +0.000 N 
ATOM     38  C   UNL     1      -4.287   2.400   0.000  0.00  0.00    +0.000 C 
ATOM     39  H   UNL     1      -5.001   3.324   0.000  0.00  0.00    +0.000 HD
ATOM     40  H   UNL     1      -5.444   2.556   0.000  0.00  0.00    +0.000 HD
ENDBRANCH  35  38
BRANCH  35  42
ATOM     41  O   UNL     1      -5.716   1.575   0.000  0.00  0.00    +0.000 OA
ATOM     42  C   UNL     1      -5.001   1.162   0.000  0.00  0.00    +0.000 C 
ATOM     43  C   UNL     1      -5.001   0.337   0.000  0.00  0.00    +0.000 C 
ENDBRANCH  35  42
ENDBRANCH  32  35
ENDBRANCH  21  33
BRANCH  22  45
ATOM     44  O   UNL     1       2.426   1.112   0.000  0.00  0.00    +0.000 OA
ATOM     45  N   UNL     1       0.997   1.112   0.000  0.00  0.00    +0.000 N 
ATOM     46  C   UNL     1       1.711   1.525   0.000  0.00  0.00    +0.000 C 
ATOM     47  H   UNL     1       0.668   1.504   0.000  0.00  0.00    +0.000 HD
BRANCH  46  48
ATOM     48  C   UNL     1       1.711   2.350   0.000  0.00  0.00    +0.000 C 
BRANCH  48  49
ATOM     49  N   UNL     1       0.997   2.762   0.000  0.00  0.00    +0.000 NA
ATOM     50  H   UNL     1       0.997   3.274   0.000  0.00  0.00    +0.000 HD
ATOM     51  H   UNL     1       0.554   2.507   0.000  0.00  0.00    +0.000 HD
ENDBRANCH  48  49
BRANCH  48  52
ATOM     52  C   UNL     1       2.426   2.762   0.000  0.00  0.00    +0.000 C 
BRANCH  52  53
ATOM     53  C   UNL     1       2.426   3.587   0.000  0.00  0.00    +0.000 A 
ATOM     54  C   UNL     1       3.140   4.000   0.000  0.00  0.00    +0.000 A 
ATOM     55  C   UNL     1       1.711   4.000   0.000  0.00  0.00    +0.000 A 
ATOM     56  C   UNL     1       3.140   4.825   0.000  0.00  0.00    +0.000 A 
ATOM     57  C   UNL     1       2.426   5.237   0.000  0.00  0.00    +0.000 A 
ATOM     58  C   UNL     1       1.711   4.825   0.000  0.00  0.00    +0.000 A 
ATOM     59  C   UNL     1       3.891   5.243   0.000  0.00  0.00    +0.000 A 
ATOM     60  C   UNL     1       2.412   6.097   0.000  0.00  0.00    +0.000 A 
ATOM     61  C   UNL     1       3.897   6.102   0.000  0.00  0.00    +0.000 A 
ATOM     62  C   UNL     1       3.153   6.532   0.000  0.00  0.00    +0.000 A 
ENDBRANCH  52  53
ENDBRANCH  48  52
ENDBRANCH  46  48
ENDBRANCH  22  45
BRANCH  14  63
ATOM     63  C   UNL     1      -4.287  -2.550   0.000  0.00  0.00    +0.000 C 
ATOM     64  C   UNL     1      -5.001  -2.138   0.000  0.00  0.00    +0.000 C 
ATOM     65  C   UNL     1      -4.287  -3.375   0.000  0.00  0.00    +0.000 C 
ENDBRANCH  14  63
BRANCH  13  66
ATOM     66  C   UNL     1      -1.147  -3.326   0.000  0.00  0.00    +0.000 C 
BRANCH  66  67
ATOM     67  C   UNL     1      -1.677  -3.958   0.000  0.00  0.00    +0.000 C 
BRANCH  67  68
ATOM     68  C   UNL     1      -1.395  -4.733   0.000  0.00  0.00    +0.000 C 
BRANCH  68  69
ATOM     69  C   UNL     1      -1.925  -5.365   0.000  0.00  0.00    +0.000 C 
BRANCH  69  70
ATOM     70  N   UNL     1      -1.643  -6.140   0.000  0.00  0.00    +0.000 NA
ATOM     71  H   UNL     1      -1.972  -6.532   0.000  0.00  0.00    +0.000 HD
ATOM     72  H   UNL     1      -1.139  -6.229   0.000  0.00  0.00    +0.000 HD
ENDBRANCH  69  70
ENDBRANCH  68  69
ENDBRANCH  67  68
ENDBRANCH  66  67
ENDBRANCH  13  66
BRANCH  15  73
ATOM     73  C   UNL     1       0.571  -1.325   0.000  0.00  0.00    +0.000 C 
BRANCH  73  75
ATOM     74  N   UNL     1      -1.531  -0.999   0.000  0.00  0.00    +0.000 N 
ATOM     75  C   UNL     1      -0.204  -1.043   0.000  0.00  0.00    +0.000 A 
ATOM     76  C   UNL     1      -0.429  -0.255   0.000  0.00  0.00    +0.000 A 
ATOM     77  C   UNL     1      -0.883  -1.502   0.000  0.00  0.00    +0.000 A 
ATOM     78  C   UNL     1      -1.254  -0.227   0.000  0.00  0.00    +0.000 A 
ATOM     79  C   UNL     1       0.007   0.446   0.000  0.00  0.00    +0.000 A 
ATOM     80  C   UNL     1      -1.643   0.500   0.000  0.00  0.00    +0.000 A 
ATOM     81  C   UNL     1      -0.382   1.173   0.000  0.00  0.00    +0.000 A 
ATOM     82  C   UNL     1      -1.206   1.201   0.000  0.00  0.00    +0.000 A 
ATOM     83  H   UNL     1      -1.885  -1.368   0.000  0.00  0.00    +0.000 HD
ENDBRANCH  73  75
ENDBRANCH  15  73
BRANCH  19  84
ATOM     84  C   UNL     1       2.858  -0.900   0.000  0.00  0.00    +0.000 C 
BRANCH  84  86
ATOM     85  O   UNL     1       5.716  -2.550   0.000  0.00  0.00    +0.000 OA
ATOM     86  C   UNL     1       3.572  -1.313   0.000  0.00  0.00    +0.000 A 
ATOM     87  C   UNL     1       4.287  -0.900   0.000  0.00  0.00    +0.000 A 
ATOM     88  C   UNL     1       3.572  -2.138   0.000  0.00  0.00    +0.000 A 
ATOM     89  C   UNL     1       5.001  -1.313   0.000  0.00  0.00    +0.000 A 
ATOM     90  C   UNL     1       4.287  -2.550   0.000  0.00  0.00    +0.000 A 
ATOM     91  C   UNL     1       5.001  -2.138   0.000  0.00  0.00    +0.000 A 
ENDBRANCH  84  86
ENDBRANCH  19  84
TORSDOF 19
