REMARK  Name = 
REMARK  11 active torsions:
REMARK  status: ('A' for Active; 'I' for Inactive)
REMARK    1  A    between atoms: C_4  and  O_31
REMARK    2  A    between atoms: C_5  and  C_43
REMARK    3  A    between atoms: C_7  and  C_12
REMARK    4  A    between atoms: P_8  and  O_31
REMARK    5  A    between atoms: C_12  and  C_13
REMARK    6  A    between atoms: C_13  and  C_14
REMARK    7  A    between atoms: C_13  and  N_16
REMARK    8  A    between atoms: N_15  and  C_21
REMARK    9  A    between atoms: N_26  and  C_28
REMARK   10  A    between atoms: C_28  and  C_29
REMARK   11  A    between atoms: C_34  and  C_37
REMARK                            x       y       z     vdW  Elec       q    Type
REMARK                         _______ _______ _______ _____ _____    ______ ____
ROOT
ATOM      1  C   UNL     1      -1.718   1.036   0.000  0.00  0.00    +0.000 C 
ATOM      2  N   UNL     1      -1.050   0.551   0.000  0.00  0.00    +0.000 NA
ATOM      3  O   UNL     1      -1.632   1.856   0.000  0.00  0.00    +0.000 OA
ENDROOT
BRANCH   2   4
ATOM      4  C   UNL     1      -0.297   0.886   0.000  0.00  0.00    +0.000 C 
ATOM      5  C   UNL     1      -0.272   1.711   0.000  0.00  0.00    +0.000 C 
ATOM      6  C   UNL     1       0.388   2.206   0.000  0.00  0.00    +0.000 C 
ATOM      7  C   UNL     1       1.186   1.998   0.000  0.00  0.00    +0.000 C 
ATOM      8  C   UNL     1       1.522   1.245   0.000  0.00  0.00    +0.000 C 
ATOM      9  N   UNL     1       1.142   0.512   0.000  0.00  0.00    +0.000 N 
ATOM     10  C   UNL     1       0.332   0.353   0.000  0.00  0.00    +0.000 C 
ATOM     11  O   UNL     1       0.125  -0.446   0.000  0.00  0.00    +0.000 OA
BRANCH   9  12
ATOM     12  C   UNL     1       1.637  -0.148   0.000  0.00  0.00    +0.000 C 
BRANCH  12  13
ATOM     13  C   UNL     1       2.456  -0.049   0.000  0.00  0.00    +0.000 A 
ATOM     14  C   UNL     1       2.780   0.709   0.000  0.00  0.00    +0.000 A 
ATOM     15  C   UNL     1       3.599   0.808   0.000  0.00  0.00    +0.000 A 
ATOM     16  C   UNL     1       4.094   0.148   0.000  0.00  0.00    +0.000 A 
ATOM     17  C   UNL     1       3.770  -0.611   0.000  0.00  0.00    +0.000 A 
ATOM     18  C   UNL     1       2.951  -0.709   0.000  0.00  0.00    +0.000 A 
BRANCH  16  19
ATOM     19  C   UNL     1       4.913   0.246   0.000  0.00  0.00    +0.000 A 
ATOM     20  C   UNL     1       5.237   1.005   0.000  0.00  0.00    +0.000 A 
ATOM     21  C   UNL     1       6.056   1.103   0.000  0.00  0.00    +0.000 A 
ATOM     22  C   UNL     1       6.551   0.443   0.000  0.00  0.00    +0.000 A 
ATOM     23  C   UNL     1       6.227  -0.315   0.000  0.00  0.00    +0.000 A 
ATOM     24  C   UNL     1       5.408  -0.414   0.000  0.00  0.00    +0.000 A 
ENDBRANCH  16  19
ENDBRANCH  12  13
ENDBRANCH   9  12
ENDBRANCH   2   4
BRANCH   1  25
ATOM     25  C   UNL     1      -2.472   0.700   0.000  0.00  0.00    +0.000 C 
BRANCH  25  26
ATOM     26  N   UNL     1      -2.558  -0.120   0.000  0.00  0.00    +0.000 NA
ATOM     27  C   UNL     1      -1.891  -0.605   0.000  0.00  0.00    +0.000 C 
ATOM     28  C   UNL     1      -1.137  -0.270   0.000  0.00  0.00    +0.000 C 
ATOM     29  O   UNL     1      -1.977  -1.426   0.000  0.00  0.00    +0.000 OA
ENDBRANCH  25  26
BRANCH  25  30
ATOM     30  C   UNL     1      -3.139   1.185   0.000  0.00  0.00    +0.000 C 
BRANCH  30  36
ATOM     31  C   UNL     1      -3.979   0.029   0.000  0.00  0.00    +0.000 A 
ATOM     32  C   UNL     1      -4.733  -0.306   0.000  0.00  0.00    +0.000 A 
ATOM     33  C   UNL     1      -5.400   0.178   0.000  0.00  0.00    +0.000 A 
ATOM     34  C   UNL     1      -5.314   0.999   0.000  0.00  0.00    +0.000 A 
ATOM     35  C   UNL     1      -4.560   1.334   0.000  0.00  0.00    +0.000 A 
ATOM     36  C   UNL     1      -3.893   0.850   0.000  0.00  0.00    +0.000 A 
BRANCH  34  38
ATOM     37  O   UNL     1      -5.895   2.304   0.000  0.00  0.00    +0.000 OA
ATOM     38  C   UNL     1      -5.981   1.484   0.000  0.00  0.00    +0.000 C 
ENDBRANCH  34  38
BRANCH  33  39
ATOM     39  O   UNL     1      -6.154  -0.157   0.000  0.00  0.00    +0.000 OA
BRANCH  39  40
ATOM     40  P   UNL     1      -6.821   0.328   0.000  0.00  0.00    +0.000 P 
ATOM     41  O   UNL     1      -7.489   0.813   0.000  0.00  0.00    +0.000 OA
ATOM     42  O   UNL     1      -7.306  -0.340   0.000  0.00  0.00    +0.000 OA
ATOM     43  O   UNL     1      -6.336   0.995   0.000  0.00  0.00    +0.000 OA
ENDBRANCH  39  40
ENDBRANCH  33  39
ENDBRANCH  30  36
ENDBRANCH  25  30
ENDBRANCH   1  25
TORSDOF 11
