REMARK  Name = 
REMARK  5 active torsions:
REMARK  status: ('A' for Active; 'I' for Inactive)
REMARK    1  A    between atoms: C_3  and  C_10
REMARK    2  A    between atoms: C_11  and  C_13
REMARK    3  A    between atoms: N_14  and  C_16
REMARK    4  A    between atoms: C_16  and  C_17
REMARK    5  A    between atoms: C_19  and  O_24
REMARK                            x       y       z     vdW  Elec       q    Type
REMARK                         _______ _______ _______ _____ _____    ______ ____
ROOT
ATOM      1  C   UNL     1      -2.865   1.230   0.000  0.00  0.00    +0.000 A 
ATOM      2  C   UNL     1      -2.866   0.402   0.000  0.00  0.00    +0.000 A 
ATOM      3  C   UNL     1      -2.151  -0.010   0.000  0.00  0.00    +0.000 A 
ATOM      4  C   UNL     1      -2.153   1.643   0.000  0.00  0.00    +0.000 A 
ATOM      5  C   UNL     1      -1.438   1.233   0.000  0.00  0.00    +0.000 A 
ATOM      6  C   UNL     1      -1.434   0.400   0.000  0.00  0.00    +0.000 A 
ATOM      7  N   UNL     1      -0.715  -0.011   0.000  0.00  0.00    +0.000 NA
ATOM      8  C   UNL     1      -0.722   1.655   0.000  0.00  0.00    +0.000 A 
ATOM      9  N   UNL     1      -0.727   2.480   0.000  0.00  0.00    +0.000 NA
ATOM     10  C   UNL     1       0.009   1.240   0.000  0.00  0.00    +0.000 A 
ATOM     11  N   UNL     1       0.004   0.404   0.000  0.00  0.00    +0.000 NA
ENDROOT
BRANCH   3  12
ATOM     12  C   UNL     1      -2.153  -0.835   0.000  0.00  0.00    +0.000 A 
ATOM     13  C   UNL     1      -2.869  -1.241   0.000  0.00  0.00    +0.000 A 
ATOM     14  C   UNL     1      -2.871  -2.066   0.000  0.00  0.00    +0.000 A 
ATOM     15  C   UNL     1      -2.157  -2.480   0.000  0.00  0.00    +0.000 A 
ATOM     16  C   UNL     1      -1.439  -2.064   0.000  0.00  0.00    +0.000 A 
ATOM     17  C   UNL     1      -1.441  -1.242   0.000  0.00  0.00    +0.000 A 
ATOM     18  F   UNL     1      -0.728  -0.827   0.000  0.00  0.00    +0.000 F 
BRANCH  13  19
ATOM     19  O   UNL     1      -3.582  -0.825   0.000  0.00  0.00    +0.000 OA
ATOM     20  C   UNL     1      -3.577  -0.000   0.000  0.00  0.00    +0.000 C 
ENDBRANCH  13  19
ENDBRANCH   3  12
BRANCH  10  21
ATOM     21  C   UNL     1       0.724   1.653   0.000  0.00  0.00    +0.000 C 
ATOM     22  N   UNL     1       1.438   1.240   0.000  0.00  0.00    +0.000 NA
ATOM     23  O   UNL     1       0.723   2.478   0.000  0.00  0.00    +0.000 OA
BRANCH  22  24
ATOM     24  C   UNL     1       2.152   1.653   0.000  0.00  0.00    +0.000 C 
BRANCH  24  25
ATOM     25  C   UNL     1       2.867   1.241   0.000  0.00  0.00    +0.000 C 
ATOM     26  C   UNL     1       3.582   1.653   0.000  0.00  0.00    +0.000 C 
ENDBRANCH  24  25
ENDBRANCH  22  24
ENDBRANCH  10  21
TORSDOF 5
