REMARK  Name = 
REMARK  33 active torsions:
REMARK  status: ('A' for Active; 'I' for Inactive)
REMARK    1  A    between atoms: CG1_2  and  CB_3
REMARK    2  A    between atoms: CB_3  and  CA_5
REMARK    3  A    between atoms: CA_5  and  N_6
REMARK    4  A    between atoms: CA_5  and  C_74
REMARK    5  A    between atoms: C_7  and  CA_9
REMARK    6  A    between atoms: CA_9  and  CB_10
REMARK    7  A    between atoms: CA_9  and  N_17
REMARK    8  A    between atoms: CB_10  and  CG_11
REMARK    9  A    between atoms: CG_11  and  CD_12
REMARK   10  A    between atoms: CD_12  and  NE_13
REMARK   11  A    between atoms: C_18  and  CA_20
REMARK   12  A    between atoms: CA_20  and  CB_21
REMARK   13  A    between atoms: CA_20  and  N_25
REMARK   14  A    between atoms: CB_21  and  CG_22
REMARK   15  A    between atoms: C_26  and  CA_28
REMARK   16  A    between atoms: CA_28  and  N_29
REMARK   17  A    between atoms: C_30  and  CA_32
REMARK   18  A    between atoms: CA_32  and  CB_33
REMARK   19  A    between atoms: CA_32  and  N_37
REMARK   20  A    between atoms: CB_33  and  CG_34
REMARK   21  A    between atoms: C_38  and  CA_40
REMARK   22  A    between atoms: C_45  and  CA_47
REMARK   23  A    between atoms: CA_47  and  N_48
REMARK   24  A    between atoms: CA_47  and  CB_71
REMARK   25  A    between atoms: C_49  and  CA_51
REMARK   26  A    between atoms: CA_51  and  CB_52
REMARK   27  A    between atoms: CA_51  and  N_59
REMARK   28  A    between atoms: CB_52  and  CG_53
REMARK   29  A    between atoms: C_60  and  CA_62
REMARK   30  A    between atoms: CA_62  and  CB_64
REMARK   31  A    between atoms: CB_64  and  CG_65
REMARK   32  A    between atoms: CG_65  and  CD_66
REMARK   33  A    between atoms: CD_66  and  NE_67
REMARK                            x       y       z     vdW  Elec       q    Type
REMARK                         _______ _______ _______ _____ _____    ______ ____
ROOT
ATOM      1  CA  ASP A   5      -5.372  -5.389   0.000  0.00  0.00    +0.000 C 
ENDROOT
BRANCH   1   2
ATOM      2  N   ASP A   5      -4.959  -4.675   0.000  0.00  0.00    +0.000 NA
ATOM      3  C   PRO A   4      -4.134  -4.675   0.000  0.00  0.00    +0.000 C 
ATOM      4  O   PRO A   4      -3.722  -5.389   0.000  0.00  0.00    +0.000 OA
BRANCH   3   5
ATOM      5  CA  PRO A   4      -3.722  -3.960   0.000  0.00  0.00    +0.000 C 
ATOM      6  CB  PRO A   4      -4.057  -3.206   0.000  0.00  0.00    +0.000 C 
ATOM      7  CG  PRO A   4      -3.444  -2.654   0.000  0.00  0.00    +0.000 C 
ATOM      8  CD  PRO A   4      -2.730  -3.067   0.000  0.00  0.00    +0.000 C 
ATOM      9  N   PRO A   4      -2.901  -3.874   0.000  0.00  0.00    +0.000 N 
ATOM     10  C   VAL A   3      -2.349  -4.487   0.000  0.00  0.00    +0.000 C 
ATOM     11  O   VAL A   3      -2.604  -5.271   0.000  0.00  0.00    +0.000 OA
BRANCH  10  12
ATOM     12  CA  VAL A   3      -1.542  -4.315   0.000  0.00  0.00    +0.000 C 
BRANCH  12  13
ATOM     13  N   VAL A   3      -0.990  -4.928   0.000  0.00  0.00    +0.000 NA
ATOM     14  C   PHE A   2      -0.183  -4.757   0.000  0.00  0.00    +0.000 C 
ATOM     15  O   PHE A   2       0.072  -3.972   0.000  0.00  0.00    +0.000 OA
BRANCH  14  16
ATOM     16  CA  PHE A   2       0.369  -5.370   0.000  0.00  0.00    +0.000 C 
BRANCH  16  17
ATOM     17  N   PHE A   2       0.114  -6.155   0.000  0.00  0.00    +0.000 NA
ATOM     18  C   ARG A   1      -0.693  -6.326   0.000  0.00  0.00    +0.000 C 
ATOM     19  O   ARG A   1      -1.245  -5.713   0.000  0.00  0.00    +0.000 OA
BRANCH  18  20
ATOM     20  CA  ARG A   1      -0.948  -7.111   0.000  0.00  0.00    +0.000 C 
ATOM     21  N   ARG A   1      -0.396  -7.724   0.000  0.00  0.00    +0.000 NA
BRANCH  20  22
ATOM     22  CB  ARG A   1      -1.755  -7.282   0.000  0.00  0.00    +0.000 C 
BRANCH  22  23
ATOM     23  CG  ARG A   1      -2.010  -8.067   0.000  0.00  0.00    +0.000 C 
BRANCH  23  24
ATOM     24  CD  ARG A   1      -2.817  -8.238   0.000  0.00  0.00    +0.000 C 
BRANCH  24  25
ATOM     25  NE  ARG A   1      -3.072  -9.023   0.000  0.00  0.00    +0.000 NA
ATOM     26  CZ  ARG A   1      -3.879  -9.195   0.000  0.00  0.00    +0.000 C 
ATOM     27  NH1 ARG A   1      -4.431  -8.582   0.000  0.00  0.00    +0.000 NA
ATOM     28  NH2 ARG A   1      -4.134  -9.979   0.000  0.00  0.00    +0.000 NA
ENDBRANCH  24  25
ENDBRANCH  23  24
ENDBRANCH  22  23
ENDBRANCH  20  22
ENDBRANCH  18  20
ENDBRANCH  16  17
BRANCH  16  29
ATOM     29  CB  PHE A   2       1.176  -5.199   0.000  0.00  0.00    +0.000 C 
BRANCH  29  30
ATOM     30  CG  PHE A   2       1.431  -4.414   0.000  0.00  0.00    +0.000 A 
ATOM     31  CD1 PHE A   2       0.879  -3.801   0.000  0.00  0.00    +0.000 A 
ATOM     32  CE1 PHE A   2       1.134  -3.016   0.000  0.00  0.00    +0.000 A 
ATOM     33  CZ  PHE A   2       1.941  -2.845   0.000  0.00  0.00    +0.000 A 
ATOM     34  CE2 PHE A   2       2.493  -3.458   0.000  0.00  0.00    +0.000 A 
ATOM     35  CD2 PHE A   2       2.238  -4.242   0.000  0.00  0.00    +0.000 A 
ENDBRANCH  29  30
ENDBRANCH  16  29
ENDBRANCH  14  16
ENDBRANCH  12  13
BRANCH  12  36
ATOM     36  CB  VAL A   3      -1.287  -3.531   0.000  0.00  0.00    +0.000 C 
ATOM     37  CG1 VAL A   3      -1.839  -2.918   0.000  0.00  0.00    +0.000 C 
ATOM     38  CG2 VAL A   3      -0.480  -3.359   0.000  0.00  0.00    +0.000 C 
ENDBRANCH  12  36
ENDBRANCH  10  12
ENDBRANCH   3   5
ENDBRANCH   1   2
BRANCH   1  40
ATOM     39  N   GLY A   6      -6.609  -6.103   0.000  0.00  0.00    +0.000 NA
ATOM     40  C   ASP A   5      -6.197  -5.389   0.000  0.00  0.00    +0.000 C 
ATOM     41  O   ASP A   5      -6.609  -4.675   0.000  0.00  0.00    +0.000 OA
BRANCH  39  42
ATOM     42  CA  GLY A   6      -7.434  -6.103   0.000  0.00  0.00    +0.000 C 
BRANCH  42  44
ATOM     43  N   ASN A   7      -8.672  -6.818   0.000  0.00  0.00    +0.000 NA
ATOM     44  C   GLY A   6      -7.847  -6.818   0.000  0.00  0.00    +0.000 C 
ATOM     45  O   GLY A   6      -7.434  -7.532   0.000  0.00  0.00    +0.000 OA
BRANCH  43  46
ATOM     46  CA  ASN A   7      -9.084  -7.532   0.000  0.00  0.00    +0.000 C 
BRANCH  46  48
ATOM     47  N   ARG A   8     -10.322  -8.247   0.000  0.00  0.00    +0.000 NA
ATOM     48  C   ASN A   7      -9.909  -7.532   0.000  0.00  0.00    +0.000 C 
ATOM     49  O   ASN A   7     -10.322  -6.818   0.000  0.00  0.00    +0.000 OA
BRANCH  47  50
ATOM     50  CA  ARG A   8     -11.147  -8.247   0.000  0.00  0.00    +0.000 C 
BRANCH  50  52
ATOM     51  N   ILE A   9     -12.384  -8.961   0.000  0.00  0.00    +0.000 NA
ATOM     52  C   ARG A   8     -11.559  -8.961   0.000  0.00  0.00    +0.000 C 
ATOM     53  O   ARG A   8     -11.147  -9.676   0.000  0.00  0.00    +0.000 OA
BRANCH  51  54
ATOM     54  CA  ILE A   9     -12.797  -9.676   0.000  0.00  0.00    +0.000 C 
BRANCH  54  55
ATOM     55  C   ILE A   9     -12.384 -10.390   0.000  0.00  0.00    +0.000 C 
ATOM     56  O   ILE A   9     -11.559 -10.390   0.000  0.00  0.00    +0.000 OA
ATOM     57  OXT ILE A   9     -12.797 -11.105   0.000  0.00  0.00    +0.000 OA
ENDBRANCH  54  55
BRANCH  54  58
ATOM     58  CB  ILE A   9     -13.622  -9.676   0.000  0.00  0.00    +0.000 C 
ATOM     59  CG2 ILE A   9     -14.034  -8.961   0.000  0.00  0.00    +0.000 C 
BRANCH  58  61
ATOM     60  CD1 ILE A   9     -14.859 -10.390   0.000  0.00  0.00    +0.000 C 
ATOM     61  CG1 ILE A   9     -14.034 -10.390   0.000  0.00  0.00    +0.000 C 
ENDBRANCH  58  61
ENDBRANCH  54  58
ENDBRANCH  51  54
ENDBRANCH  50  52
BRANCH  50  62
ATOM     62  CB  ARG A   8     -11.559  -7.532   0.000  0.00  0.00    +0.000 C 
BRANCH  62  63
ATOM     63  CG  ARG A   8     -11.147  -6.818   0.000  0.00  0.00    +0.000 C 
BRANCH  63  64
ATOM     64  CD  ARG A   8     -11.559  -6.103   0.000  0.00  0.00    +0.000 C 
BRANCH  64  65
ATOM     65  NE  ARG A   8     -11.147  -5.389   0.000  0.00  0.00    +0.000 NA
ATOM     66  CZ  ARG A   8     -11.559  -4.675   0.000  0.00  0.00    +0.000 C 
ATOM     67  NH1 ARG A   8     -12.384  -4.675   0.000  0.00  0.00    +0.000 NA
ATOM     68  NH2 ARG A   8     -11.147  -3.960   0.000  0.00  0.00    +0.000 NA
ENDBRANCH  64  65
ENDBRANCH  63  64
ENDBRANCH  62  63
ENDBRANCH  50  62
ENDBRANCH  47  50
ENDBRANCH  46  48
BRANCH  46  69
ATOM     69  CB  ASN A   7      -8.672  -8.247   0.000  0.00  0.00    +0.000 C 
BRANCH  69  70
ATOM     70  CG  ASN A   7      -9.084  -8.961   0.000  0.00  0.00    +0.000 C 
ATOM     71  ND2 ASN A   7      -8.672  -9.676   0.000  0.00  0.00    +0.000 NA
ATOM     72  OD1 ASN A   7      -9.909  -8.961   0.000  0.00  0.00    +0.000 OA
ENDBRANCH  69  70
ENDBRANCH  46  69
ENDBRANCH  43  46
ENDBRANCH  42  44
ENDBRANCH  39  42
ENDBRANCH   1  40
BRANCH   1  73
ATOM     73  CB  ASP A   5      -4.959  -6.103   0.000  0.00  0.00    +0.000 C 
BRANCH  73  74
ATOM     74  CG  ASP A   5      -5.372  -6.818   0.000  0.00  0.00    +0.000 C 
ATOM     75  OD1 ASP A   5      -4.959  -7.532   0.000  0.00  0.00    +0.000 OA
ATOM     76  OD2 ASP A   5      -6.197  -6.818   0.000  0.00  0.00    +0.000 OA
ENDBRANCH  73  74
ENDBRANCH   1  73
TORSDOF 33
