REMARK  Name = 
REMARK  0 active torsions:
REMARK  status: ('A' for Active; 'I' for Inactive)
REMARK                            x       y       z     vdW  Elec       q    Type
REMARK                         _______ _______ _______ _____ _____    ______ ____
ROOT
ATOM      1  C   UNL     1       5.648  -3.085   0.000  0.00  0.00    +0.000 C 
ATOM      2  C   UNL     1       1.484   0.851   0.000  0.00  0.00    +0.000 A 
ATOM      3  C   UNL     1       1.667   1.655   0.000  0.00  0.00    +0.000 A 
ATOM      4  C   UNL     1       2.088   0.290   0.000  0.00  0.00    +0.000 A 
ATOM      5  C   UNL     1       2.456   1.899   0.000  0.00  0.00    +0.000 A 
ATOM      6  C   UNL     1       5.940   1.655   0.000  0.00  0.00    +0.000 A 
ATOM      7  C   UNL     1       5.152   1.899   0.000  0.00  0.00    +0.000 A 
ATOM      8  C   UNL     1       5.755  -1.660   0.000  0.00  0.00    +0.000 C 
ATOM      9  C   UNL     1       4.467  -2.280   0.000  0.00  0.00    +0.000 C 
ATOM     10  C   UNL     1       5.397  -0.917   0.000  0.00  0.00    +0.000 C 
ATOM     11  C   UNL     1       4.109  -1.537   0.000  0.00  0.00    +0.000 C 
ATOM     12  C   UNL     1       5.519   0.290   0.000  0.00  0.00    +0.000 A 
ATOM     13  C   UNL     1       6.124   0.851   0.000  0.00  0.00    +0.000 A 
ATOM     14  C   UNL     1       4.731   0.533   0.000  0.00  0.00    +0.000 A 
ATOM     15  C   UNL     1       2.877   0.533   0.000  0.00  0.00    +0.000 A 
ATOM     16  C   UNL     1       4.547   1.337   0.000  0.00  0.00    +0.000 A 
ATOM     17  C   UNL     1       3.060   1.337   0.000  0.00  0.00    +0.000 A 
ATOM     18  C   UNL     1       4.216  -0.112   0.000  0.00  0.00    +0.000 C 
ATOM     19 CL   UNL     1       6.912   0.608   0.000  0.00  0.00    +0.000 Cl
ATOM     20  N   UNL     1       3.391  -0.112   0.000  0.00  0.00    +0.000 NA
ATOM     21  N   UNL     1       5.290  -2.342   0.000  0.00  0.00    +0.000 NA
ATOM     22  N   UNL     1       4.574  -0.855   0.000  0.00  0.00    +0.000 N 
ATOM     23  S   UNL     1       3.804   1.695   0.000  0.00  0.00    +0.000 S 
ENDROOT
TORSDOF 0
