REMARK  Name = 
REMARK  6 active torsions:
REMARK  status: ('A' for Active; 'I' for Inactive)
REMARK    1  A    between atoms: C_5  and  C_8
REMARK    2  A    between atoms: C_11  and  S_12
REMARK    3  A    between atoms: S_12  and  C_13
REMARK    4  A    between atoms: N_22  and  C_23
REMARK    5  A    between atoms: C_23  and  C_24
REMARK    6  A    between atoms: C_24  and  N_25
REMARK                            x       y       z     vdW  Elec       q    Type
REMARK                         _______ _______ _______ _____ _____    ______ ____
ROOT
ATOM      1  C   UNL     1      -0.527  -4.066   0.000  0.00  0.00    +0.000 A 
ATOM      2  C   UNL     1       0.279  -3.894   0.000  0.00  0.00    +0.000 A 
ATOM      3  C   UNL     1       0.832  -4.508   0.000  0.00  0.00    +0.000 A 
ATOM      4  C   UNL     1       0.577  -5.292   0.000  0.00  0.00    +0.000 A 
ATOM      5  N   UNL     1       0.989  -6.007   0.000  0.00  0.00    +0.000 NA
ATOM      6  C   UNL     1       0.437  -6.620   0.000  0.00  0.00    +0.000 A 
ATOM      7  N   UNL     1       0.609  -7.427   0.000  0.00  0.00    +0.000 NA
ATOM      8  C   UNL     1      -0.005  -7.979   0.000  0.00  0.00    +0.000 C 
ATOM      9  O   UNL     1      -0.789  -7.724   0.000  0.00  0.00    +0.000 OA
ATOM     10  N   UNL     1       0.167  -8.786   0.000  0.00  0.00    +0.000 NA
ATOM     11  S   UNL     1      -0.317  -6.284   0.000  0.00  0.00    +0.000 S 
ATOM     12  C   UNL     1      -0.230  -5.464   0.000  0.00  0.00    +0.000 A 
ATOM     13  C   UNL     1      -0.782  -4.851   0.000  0.00  0.00    +0.000 A 
ENDROOT
BRANCH   1  14
ATOM     14  S   UNL     1      -1.080  -3.453   0.000  0.00  0.00    +0.000 S 
BRANCH  14  18
ATOM     15  C   UNL     1       1.389  -2.413   0.000  0.00  0.00    +0.000 A 
ATOM     16  N   UNL     1       0.674  -2.826   0.000  0.00  0.00    +0.000 NA
ATOM     17  N   UNL     1      -0.040  -2.413   0.000  0.00  0.00    +0.000 N 
ATOM     18  C   UNL     1      -0.825  -2.668   0.000  0.00  0.00    +0.000 A 
ATOM     19  N   UNL     1      -1.310  -2.001   0.000  0.00  0.00    +0.000 NA
ATOM     20  N   UNL     1      -0.825  -1.333   0.000  0.00  0.00    +0.000 NA
ATOM     21  C   UNL     1      -0.040  -1.588   0.000  0.00  0.00    +0.000 A 
ATOM     22  C   UNL     1       0.674  -1.176   0.000  0.00  0.00    +0.000 A 
ATOM     23  C   UNL     1       1.389  -1.588   0.000  0.00  0.00    +0.000 A 
BRANCH  15  28
ATOM     24  F   UNL     1       4.247  -4.063   0.000  0.00  0.00    +0.000 F 
ATOM     25  C   UNL     1       3.532  -3.651   0.000  0.00  0.00    +0.000 A 
ATOM     26  C   UNL     1       2.818  -4.063   0.000  0.00  0.00    +0.000 A 
ATOM     27  C   UNL     1       2.103  -3.651   0.000  0.00  0.00    +0.000 A 
ATOM     28  C   UNL     1       2.103  -2.826   0.000  0.00  0.00    +0.000 A 
ATOM     29  C   UNL     1       2.818  -2.413   0.000  0.00  0.00    +0.000 A 
ATOM     30  C   UNL     1       3.532  -2.826   0.000  0.00  0.00    +0.000 A 
ENDBRANCH  15  28
ENDBRANCH  14  18
ENDBRANCH   1  14
BRANCH  10  31
ATOM     31  C   UNL     1      -0.446  -9.338   0.000  0.00  0.00    +0.000 C 
BRANCH  31  32
ATOM     32  C   UNL     1      -0.275 -10.145   0.000  0.00  0.00    +0.000 C 
BRANCH  32  33
ATOM     33  N   UNL     1      -0.888 -10.697   0.000  0.00  0.00    +0.000 NA
ATOM     34  C   UNL     1      -0.716 -11.504   0.000  0.00  0.00    +0.000 C 
ATOM     35  C   UNL     1      -1.329 -12.056   0.000  0.00  0.00    +0.000 C 
ATOM     36  O   UNL     1      -2.114 -11.801   0.000  0.00  0.00    +0.000 OA
ATOM     37  C   UNL     1      -2.285 -10.994   0.000  0.00  0.00    +0.000 C 
ATOM     38  C   UNL     1      -1.672 -10.442   0.000  0.00  0.00    +0.000 C 
ENDBRANCH  32  33
ENDBRANCH  31  32
ENDBRANCH  10  31
TORSDOF 6
