REMARK  Name = 
REMARK  11 active torsions:
REMARK  status: ('A' for Active; 'I' for Inactive)
REMARK    1  A    between atoms: C_9  and  C_12
REMARK    2  A    between atoms: C_9  and  C_13
REMARK    3  A    between atoms: C_10  and  C_14
REMARK    4  A    between atoms: C_10  and  C_15
REMARK    5  A    between atoms: C_11  and  C_16
REMARK    6  A    between atoms: C_11  and  C_17
REMARK    7  A    between atoms: C_13  and  C_23
REMARK    8  A    between atoms: C_15  and  C_24
REMARK    9  A    between atoms: C_17  and  C_25
REMARK   10  A    between atoms: C_20  and  C_21
REMARK   11  A    between atoms: C_21  and  C_27
REMARK                            x       y       z     vdW  Elec       q    Type
REMARK                         _______ _______ _______ _____ _____    ______ ____
ROOT
ATOM      1  C   UNL     1       5.716   3.300   0.000  0.00  0.00    +0.000 C 
ATOM      2  C   UNL     1       4.287   3.300   0.000  0.00  0.00    +0.000 C 
ATOM      3  C   UNL     1       5.001   3.712   0.000  0.00  0.00    +0.000 C 
ENDROOT
BRANCH   3   4
ATOM      4  C   UNL     1       5.001   4.537   0.000  0.00  0.00    +0.000 C 
BRANCH   4   5
ATOM      5  C   UNL     1       5.716   4.950   0.000  0.00  0.00    +0.000 C 
BRANCH   5   7
ATOM      6  C   UNL     1       7.145   5.775   0.000  0.00  0.00    +0.000 C 
ATOM      7  C   UNL     1       5.716   5.775   0.000  0.00  0.00    +0.000 C 
ATOM      8  C   UNL     1       6.430   6.188   0.000  0.00  0.00    +0.000 C 
BRANCH   8   9
ATOM      9  C   UNL     1       6.430   7.013   0.000  0.00  0.00    +0.000 C 
BRANCH   9  10
ATOM     10  C   UNL     1       7.145   7.425   0.000  0.00  0.00    +0.000 C 
BRANCH  10  12
ATOM     11  C   UNL     1       8.574   8.250   0.000  0.00  0.00    +0.000 C 
ATOM     12  C   UNL     1       7.145   8.250   0.000  0.00  0.00    +0.000 C 
ATOM     13  C   UNL     1       7.859   8.662   0.000  0.00  0.00    +0.000 C 
BRANCH  13  14
ATOM     14  C   UNL     1       7.859   9.488   0.000  0.00  0.00    +0.000 C 
BRANCH  14  15
ATOM     15  C   UNL     1       8.574   9.900   0.000  0.00  0.00    +0.000 C 
BRANCH  15  18
ATOM     16  C   UNL     1       9.288  11.963   0.000  0.00  0.00    +0.000 C 
ATOM     17  C   UNL     1      10.003  10.725   0.000  0.00  0.00    +0.000 C 
ATOM     18  C   UNL     1       8.574  10.725   0.000  0.00  0.00    +0.000 C 
ATOM     19  C   UNL     1       9.288  11.137   0.000  0.00  0.00    +0.000 C 
ENDBRANCH  15  18
ENDBRANCH  14  15
ENDBRANCH  13  14
ENDBRANCH  10  12
ENDBRANCH   9  10
ENDBRANCH   8   9
ENDBRANCH   5   7
ENDBRANCH   4   5
ENDBRANCH   3   4
BRANCH   2  20
ATOM     20  C   UNL     1       4.287   2.475   0.000  0.00  0.00    +0.000 C 
BRANCH  20  27
ATOM     21  C   UNL     1       4.287   0.825   0.000  0.00  0.00    +0.000 C 
ATOM     22  C   UNL     1       0.715   1.238   0.000  0.00  0.00    +0.000 A 
ATOM     23  C   UNL     1       0.715   2.062   0.000  0.00  0.00    +0.000 A 
ATOM     24  C   UNL     1       1.429   0.825   0.000  0.00  0.00    +0.000 A 
ATOM     25  C   UNL     1       1.429   2.475   0.000  0.00  0.00    +0.000 A 
ATOM     26  C   UNL     1       3.572   1.238   0.000  0.00  0.00    +0.000 C 
ATOM     27  C   UNL     1       3.572   2.062   0.000  0.00  0.00    +0.000 C 
ATOM     28  C   UNL     1       2.143   1.238   0.000  0.00  0.00    +0.000 A 
ATOM     29  C   UNL     1       2.143   2.062   0.000  0.00  0.00    +0.000 A 
ATOM     30  C   UNL     1       2.858   0.825   0.000  0.00  0.00    +0.000 C 
ATOM     31  C   UNL     1       2.858   2.475   0.000  0.00  0.00    +0.000 C 
ATOM     32  O   UNL     1       2.858   0.000   0.000  0.00  0.00    +0.000 OA
ATOM     33  O   UNL     1       2.858   3.300   0.000  0.00  0.00    +0.000 OA
ENDBRANCH  20  27
ENDBRANCH   2  20
TORSDOF 11
