REMARK  Name = 
REMARK  4 active torsions:
REMARK  status: ('A' for Active; 'I' for Inactive)
REMARK    1  A    between atoms: P_1  and  O_7
REMARK    2  A    between atoms: P_2  and  O_8
REMARK    3  A    between atoms: C_3  and  O_7
REMARK    4  A    between atoms: C_4  and  O_8
REMARK                            x       y       z     vdW  Elec       q    Type
REMARK                         _______ _______ _______ _____ _____    ______ ____
ROOT
ATOM      1  C   UNL     1       0.327   0.819   0.000  0.00  0.00    +0.000 A 
ATOM      2  C   UNL     1       0.337  -0.834   0.000  0.00  0.00    +0.000 A 
ATOM      3  C   UNL     1      -0.380   0.402   0.000  0.00  0.00    +0.000 A 
ATOM      4  C   UNL     1      -0.380  -0.422   0.000  0.00  0.00    +0.000 A 
ATOM      5  C   UNL     1       1.044   0.412   0.000  0.00  0.00    +0.000 A 
ATOM      6  C   UNL     1       1.049  -0.417   0.000  0.00  0.00    +0.000 A 
ATOM      7  C   UNL     1      -1.093   0.814   0.000  0.00  0.00    +0.000 A 
ATOM      8  C   UNL     1       1.757   0.829   0.000  0.00  0.00    +0.000 C 
ATOM      9  C   UNL     1      -1.093  -0.838   0.000  0.00  0.00    +0.000 A 
ATOM     10  C   UNL     1      -1.805   0.402   0.000  0.00  0.00    +0.000 A 
ATOM     11  C   UNL     1      -1.805  -0.426   0.000  0.00  0.00    +0.000 A 
ENDROOT
BRANCH   1  12
ATOM     12  O   UNL     1       0.322   1.643   0.000  0.00  0.00    +0.000 OA
BRANCH  12  13
ATOM     13  P   UNL     1       1.035   2.059   0.000  0.00  0.00    +0.000 P 
ATOM     14  O   UNL     1       1.795   1.672   0.000  0.00  0.00    +0.000 OA
ATOM     15  O   UNL     1       1.437   2.777   0.000  0.00  0.00    +0.000 OA
ATOM     16  O   UNL     1       0.618   2.777   0.000  0.00  0.00    +0.000 OA
ENDBRANCH  12  13
ENDBRANCH   1  12
BRANCH   2  17
ATOM     17  O   UNL     1       0.337  -1.657   0.000  0.00  0.00    +0.000 OA
BRANCH  17  18
ATOM     18  P   UNL     1       1.049  -2.064   0.000  0.00  0.00    +0.000 P 
ATOM     19  O   UNL     1       1.805  -1.633   0.000  0.00  0.00    +0.000 OA
ATOM     20  O   UNL     1       1.495  -2.752   0.000  0.00  0.00    +0.000 OA
ATOM     21  O   UNL     1       0.632  -2.777   0.000  0.00  0.00    +0.000 OA
ENDBRANCH  17  18
ENDBRANCH   2  17
TORSDOF 4
