REMARK  Name = 
REMARK  2 active torsions:
REMARK  status: ('A' for Active; 'I' for Inactive)
REMARK    1  A    between atoms: C_3  and  CA_5
REMARK    2  A    between atoms: C_8  and  CA_10
REMARK                            x       y       z     vdW  Elec       q    Type
REMARK                         _______ _______ _______ _____ _____    ______ ____
ROOT
ATOM      1 CU   UNL     1       2.070  -0.358   0.000  0.00  0.00    +0.000 Cu
ENDROOT
TORSDOF 0
REMARK  Name = 
REMARK  2 active torsions:
REMARK  status: ('A' for Active; 'I' for Inactive)
REMARK    1  A    between atoms: C_3  and  CA_5
REMARK    2  A    between atoms: C_8  and  CA_10
REMARK                            x       y       z     vdW  Elec       q    Type
REMARK                         _______ _______ _______ _____ _____    ______ ____
ROOT
ATOM      1  O   GLY A   1       0.000  -0.358   0.000  0.00  0.00    +0.000 OA
ATOM      2  C   GLY A   1       0.828  -0.358   0.000  0.00  0.00    +0.000 C 
ATOM      3  OXT GLY A   1       1.238  -1.074   0.000  0.00  0.00    +0.000 OA
ENDROOT
BRANCH   2   4
ATOM      4  CA  GLY A   1       1.238   0.358   0.000  0.00  0.00    +0.000 C 
ATOM      5  N   GLY A   1       0.828   1.074   0.000  0.00  0.00    +0.000 NA
ENDBRANCH   2   4
TORSDOF 1
REMARK  Name = 
REMARK  2 active torsions:
REMARK  status: ('A' for Active; 'I' for Inactive)
REMARK    1  A    between atoms: C_3  and  CA_5
REMARK    2  A    between atoms: C_8  and  CA_10
REMARK                            x       y       z     vdW  Elec       q    Type
REMARK                         _______ _______ _______ _____ _____    ______ ____
ROOT
ATOM      1  O   GLY A   1      -2.070  -0.358   0.000  0.00  0.00    +0.000 OA
ATOM      2  C   GLY A   1      -1.242  -0.358   0.000  0.00  0.00    +0.000 C 
ATOM      3  OXT GLY A   1      -0.832  -1.074   0.000  0.00  0.00    +0.000 OA
ENDROOT
BRANCH   2   4
ATOM      4  CA  GLY A   1      -0.832   0.358   0.000  0.00  0.00    +0.000 C 
ATOM      5  N   GLY A   1      -1.242   1.074   0.000  0.00  0.00    +0.000 NA
ENDBRANCH   2   4
TORSDOF 1
