REMARK  Name = 
REMARK  1 active torsions:
REMARK  status: ('A' for Active; 'I' for Inactive)
REMARK    1  A    between atoms: C_1  and  C_4
REMARK                            x       y       z     vdW  Elec       q    Type
REMARK                         _______ _______ _______ _____ _____    ______ ____
ROOT
ATOM      1  C   UNL     1      -0.027  -0.131   0.000  0.00  0.00    +0.000 A 
ATOM      2  C   UNL     1      -0.288  -0.914   0.000  0.00  0.00    +0.000 A 
ATOM      3  O   UNL     1      -0.699   0.348   0.000  0.00  0.00    +0.000 OA
ATOM      4  C   UNL     1      -1.120  -0.914   0.000  0.00  0.00    +0.000 A 
ATOM      5  C   UNL     1      -1.372  -0.126   0.000  0.00  0.00    +0.000 A 
ENDROOT
BRANCH   1   6
ATOM      6  C   UNL     1       0.752   0.107   0.000  0.00  0.00    +0.000 C 
ATOM      7  O   UNL     1       0.925   0.914   0.000  0.00  0.00    +0.000 OA
ENDBRANCH   1   6
TORSDOF 1
