REMARK  Name = 
REMARK  4 active torsions:
REMARK  status: ('A' for Active; 'I' for Inactive)
REMARK    1  A    between atoms: C_4  and  O_38
REMARK    2  A    between atoms: C_9  and  O_31
REMARK    3  A    between atoms: C_10  and  O_29
REMARK    4  A    between atoms: O_31  and  C_32
REMARK                            x       y       z     vdW  Elec       q    Type
REMARK                         _______ _______ _______ _____ _____    ______ ____
ROOT
ATOM      1  C   UNL     1       3.724  -0.595   0.000  0.00  0.00    +0.000 C 
ATOM      2  C   UNL     1       3.130  -0.022   0.000  0.00  0.00    +0.000 C 
ATOM      3  C   UNL     1       3.468   0.731   0.000  0.00  0.00    +0.000 C 
ATOM      4  C   UNL     1       4.289   0.642   0.000  0.00  0.00    +0.000 C 
ATOM      5  C   UNL     1       4.457  -0.166   0.000  0.00  0.00    +0.000 C 
ATOM      6  C   UNL     1       5.162  -0.730   0.000  0.00  0.00    +0.000 C 
ATOM      7  C   UNL     1       5.074  -1.550   0.000  0.00  0.00    +0.000 C 
ATOM      8  C   UNL     1       5.739  -2.037   0.000  0.00  0.00    +0.000 C 
ATOM      9  C   UNL     1       5.651  -2.857   0.000  0.00  0.00    +0.000 C 
ATOM     10  C   UNL     1       6.316  -3.344   0.000  0.00  0.00    +0.000 C 
ATOM     11  C   UNL     1       6.228  -4.165   0.000  0.00  0.00    +0.000 C 
ATOM     12  C   UNL     1       5.473  -4.498   0.000  0.00  0.00    +0.000 C 
ATOM     13  C   UNL     1       4.807  -4.011   0.000  0.00  0.00    +0.000 C 
ATOM     14  C   UNL     1       4.052  -4.344   0.000  0.00  0.00    +0.000 C 
ATOM     15  C   UNL     1       3.386  -3.857   0.000  0.00  0.00    +0.000 C 
ATOM     16  O   UNL     1       2.632  -4.190   0.000  0.00  0.00    +0.000 OA
ATOM     17  N   UNL     1       3.475  -3.037   0.000  0.00  0.00    +0.000 NA
ATOM     18  C   UNL     1       2.809  -2.550   0.000  0.00  0.00    +0.000 C 
ATOM     19  C   UNL     1       2.055  -2.883   0.000  0.00  0.00    +0.000 C 
ATOM     20  C   UNL     1       1.389  -2.396   0.000  0.00  0.00    +0.000 C 
ATOM     21  O   UNL     1       0.634  -2.729   0.000  0.00  0.00    +0.000 OA
ATOM     22  C   UNL     1       1.478  -1.575   0.000  0.00  0.00    +0.000 C 
ATOM     23  C   UNL     1       2.232  -1.242   0.000  0.00  0.00    +0.000 C 
ATOM     24  C   UNL     1       2.321  -0.422   0.000  0.00  0.00    +0.000 C 
ATOM     25  C   UNL     1       2.898  -1.729   0.000  0.00  0.00    +0.000 C 
ATOM     26  O   UNL     1       3.653  -1.396   0.000  0.00  0.00    +0.000 OA
ATOM     27  N   UNL     1       0.812  -1.088   0.000  0.00  0.00    +0.000 NA
ATOM     28  C   UNL     1       3.963  -5.164   0.000  0.00  0.00    +0.000 C 
ATOM     29  C   UNL     1       6.154  -1.324   0.000  0.00  0.00    +0.000 C 
ATOM     30  C   UNL     1       5.924  -0.413   0.000  0.00  0.00    +0.000 C 
ATOM     31  O   UNL     1       3.922  -0.794   0.000  0.00  0.00    +0.000 OA
ENDROOT
BRANCH  10  32
ATOM     32  O   UNL     1       7.071  -3.011   0.000  0.00  0.00    +0.000 OA
ATOM     33  C   UNL     1       7.737  -3.498   0.000  0.00  0.00    +0.000 C 
ENDBRANCH  10  32
BRANCH   4  34
ATOM     34  O   UNL     1       4.843   1.253   0.000  0.00  0.00    +0.000 OA
ATOM     35  C   UNL     1       4.590   2.038   0.000  0.00  0.00    +0.000 C 
ENDBRANCH   4  34
BRANCH   9  36
ATOM     36  O   UNL     1       6.405  -2.524   0.000  0.00  0.00    +0.000 OA
BRANCH  36  37
ATOM     37  C   UNL     1       6.494  -1.704   0.000  0.00  0.00    +0.000 C 
ATOM     38  O   UNL     1       6.242  -0.918   0.000  0.00  0.00    +0.000 OA
ATOM     39  N   UNL     1       7.249  -1.371   0.000  0.00  0.00    +0.000 NA
ENDBRANCH  36  37
ENDBRANCH   9  36
TORSDOF 4
