REMARK  Name = 
REMARK  0 active torsions:
REMARK  status: ('A' for Active; 'I' for Inactive)
REMARK                            x       y       z     vdW  Elec       q    Type
REMARK                         _______ _______ _______ _____ _____    ______ ____
ROOT
ATOM      1  O   HOH     1       0.000   0.000   0.000  0.00  0.00    +0.000 OA
ENDROOT
TORSDOF 0
REMARK  Name = 
REMARK  0 active torsions:
REMARK  status: ('A' for Active; 'I' for Inactive)
REMARK                            x       y       z     vdW  Elec       q    Type
REMARK                         _______ _______ _______ _____ _____    ______ ____
ROOT
ATOM      1  O   HOH     1       2.357   0.000   0.000  0.00  0.00    +0.000 OA
ENDROOT
TORSDOF 0
REMARK  Name = 
REMARK  0 active torsions:
REMARK  status: ('A' for Active; 'I' for Inactive)
REMARK                            x       y       z     vdW  Elec       q    Type
REMARK                         _______ _______ _______ _____ _____    ______ ____
ROOT
ATOM      1  O   HOH     1       4.714   0.000   0.000  0.00  0.00    +0.000 OA
ENDROOT
TORSDOF 0
REMARK  Name = 
REMARK  0 active torsions:
REMARK  status: ('A' for Active; 'I' for Inactive)
REMARK                            x       y       z     vdW  Elec       q    Type
REMARK                         _______ _______ _______ _____ _____    ______ ____
ROOT
ATOM      1  O   HOH     1       0.000  -2.475   0.000  0.00  0.00    +0.000 OA
ENDROOT
TORSDOF 0
REMARK  Name = 
REMARK  0 active torsions:
REMARK  status: ('A' for Active; 'I' for Inactive)
REMARK                            x       y       z     vdW  Elec       q    Type
REMARK                         _______ _______ _______ _____ _____    ______ ____
ROOT
ATOM      1  O   HOH     1       2.357  -2.475   0.000  0.00  0.00    +0.000 OA
ENDROOT
TORSDOF 0
REMARK  Name = 
REMARK  0 active torsions:
REMARK  status: ('A' for Active; 'I' for Inactive)
REMARK                            x       y       z     vdW  Elec       q    Type
REMARK                         _______ _______ _______ _____ _____    ______ ____
ROOT
ATOM      1  O   UNL     1       7.307  -2.475   0.000  0.00  0.00    +0.000 OA
ATOM      2  S   UNL     1       6.482  -2.475   0.000  0.00  0.00    +0.000 S 
ATOM      3  O   UNL     1       6.482  -1.650   0.000  0.00  0.00    +0.000 OA
ATOM      4  O   UNL     1       6.482  -3.300   0.000  0.00  0.00    +0.000 OA
ATOM      5  O   UNL     1       5.657  -2.475   0.000  0.00  0.00    +0.000 OA
ENDROOT
TORSDOF 0
REMARK  Name = 
REMARK  0 active torsions:
REMARK  status: ('A' for Active; 'I' for Inactive)
REMARK                            x       y       z     vdW  Elec       q    Type
REMARK                         _______ _______ _______ _____ _____    ______ ____
ROOT
ATOM      1  O   UNL     1       0.000  -6.600   0.000  0.00  0.00    +0.000 OA
ATOM      2  S   UNL     1       0.000  -5.775   0.000  0.00  0.00    +0.000 S 
ATOM      3  O   UNL     1       0.000  -4.950   0.000  0.00  0.00    +0.000 OA
ATOM      4  O   UNL     1       0.825  -5.775   0.000  0.00  0.00    +0.000 OA
ATOM      5  O   UNL     1      -0.825  -5.775   0.000  0.00  0.00    +0.000 OA
ENDROOT
TORSDOF 0
REMARK  Name = 
REMARK  0 active torsions:
REMARK  status: ('A' for Active; 'I' for Inactive)
REMARK                            x       y       z     vdW  Elec       q    Type
REMARK                         _______ _______ _______ _____ _____    ______ ____
ROOT
ATOM      1  O   UNL     1       3.889  -6.600   0.000  0.00  0.00    +0.000 OA
ATOM      2  S   UNL     1       3.889  -5.775   0.000  0.00  0.00    +0.000 S 
ATOM      3  O   UNL     1       3.889  -4.950   0.000  0.00  0.00    +0.000 OA
ATOM      4  O   UNL     1       4.714  -5.775   0.000  0.00  0.00    +0.000 OA
ATOM      5  O   UNL     1       3.064  -5.775   0.000  0.00  0.00    +0.000 OA
ENDROOT
TORSDOF 0
REMARK  Name = 
REMARK  0 active torsions:
REMARK  status: ('A' for Active; 'I' for Inactive)
REMARK                            x       y       z     vdW  Elec       q    Type
REMARK                         _______ _______ _______ _____ _____    ______ ____
ROOT
ATOM      1 FE   UNL     1       8.132  -2.475   0.000  0.00  0.00    +0.000 Fe
ENDROOT
TORSDOF 0
REMARK  Name = 
REMARK  0 active torsions:
REMARK  status: ('A' for Active; 'I' for Inactive)
REMARK                            x       y       z     vdW  Elec       q    Type
REMARK                         _______ _______ _______ _____ _____    ______ ____
ROOT
ATOM      1 FE   UNL     1       4.832  -2.475   0.000  0.00  0.00    +0.000 Fe
ENDROOT
TORSDOF 0
