REMARK  Name = 
REMARK  1 active torsions:
REMARK  status: ('A' for Active; 'I' for Inactive)
REMARK    1  A    between atoms: C_3  and  S_13
REMARK                            x       y       z     vdW  Elec       q    Type
REMARK                         _______ _______ _______ _____ _____    ______ ____
ROOT
ATOM      1  C   UNL     1       0.109  -0.969   0.000  0.00  0.00    +0.000 C 
ATOM      2  C   UNL     1       0.822  -0.560   0.000  0.00  0.00    +0.000 C 
ATOM      3  C   UNL     1       0.822   0.267   0.000  0.00  0.00    +0.000 C 
ATOM      4  C   UNL     1       0.109   0.685   0.000  0.00  0.00    +0.000 C 
ATOM      5  C   UNL     1      -0.605  -0.560   0.000  0.00  0.00    +0.000 A 
ATOM      6  C   UNL     1      -0.603   0.265   0.000  0.00  0.00    +0.000 A 
ATOM      7  C   UNL     1      -1.315   0.678   0.000  0.00  0.00    +0.000 A 
ATOM      8  C   UNL     1      -2.030   0.267   0.000  0.00  0.00    +0.000 A 
ATOM      9  C   UNL     1      -2.028  -0.561   0.000  0.00  0.00    +0.000 A 
ATOM     10  C   UNL     1      -1.316  -0.970   0.000  0.00  0.00    +0.000 A 
ATOM     11  O   UNL     1       0.107   1.512   0.000  0.00  0.00    +0.000 OA
ATOM     12  O   UNL     1       0.109  -1.796   0.000  0.00  0.00    +0.000 OA
ATOM     13  C   UNL     1       1.617   0.054   0.000  0.00  0.00    +0.000 C 
ENDROOT
BRANCH   3  14
ATOM     14  S   UNL     1       1.232   0.994   0.000  0.00  0.00    +0.000 S 
ATOM     15  O   UNL     1       2.030   1.213   0.000  0.00  0.00    +0.000 OA
ATOM     16  O   UNL     1       0.644   1.575   0.000  0.00  0.00    +0.000 OA
ATOM     17  O   UNL     1       1.446   1.796   0.000  0.00  0.00    +0.000 OA
ENDBRANCH   3  14
TORSDOF 1
