REMARK  Name = 
REMARK  5 active torsions:
REMARK  status: ('A' for Active; 'I' for Inactive)
REMARK    1  A    between atoms: C_2  and  O_28
REMARK    2  A    between atoms: C_4  and  C_7
REMARK    3  A    between atoms: C_8  and  C_9
REMARK    4  A    between atoms: C_17  and  O_28
REMARK    5  A    between atoms: C_20  and  C_24
REMARK                            x       y       z     vdW  Elec       q    Type
REMARK                         _______ _______ _______ _____ _____    ______ ____
ROOT
ATOM      1  C   UNL     1      -1.414   0.623   0.000  0.00  0.00    +0.000 A 
ATOM      2  C   UNL     1      -0.700   0.209   0.000  0.00  0.00    +0.000 A 
ATOM      3  C   UNL     1       0.013   0.623   0.000  0.00  0.00    +0.000 A 
ATOM      4  C   UNL     1       0.015   1.444   0.000  0.00  0.00    +0.000 A 
ATOM      5  C   UNL     1      -0.699   1.858   0.000  0.00  0.00    +0.000 A 
ATOM      6  C   UNL     1      -1.414   1.450   0.000  0.00  0.00    +0.000 A 
ATOM      7  O   UNL     1      -2.127   1.864   0.000  0.00  0.00    +0.000 OA
ENDROOT
BRANCH   4   8
ATOM      8  C   UNL     1       0.727   1.857   0.000  0.00  0.00    +0.000 C 
ATOM      9  C   UNL     1       1.442   1.448   0.000  0.00  0.00    +0.000 C 
BRANCH   9  10
ATOM     10  C   UNL     1       2.155   1.860   0.000  0.00  0.00    +0.000 A 
ATOM     11  C   UNL     1       2.152   2.682   0.000  0.00  0.00    +0.000 A 
ATOM     12  C   UNL     1       2.869   3.099   0.000  0.00  0.00    +0.000 A 
ATOM     13  C   UNL     1       3.583   2.686   0.000  0.00  0.00    +0.000 A 
ATOM     14  C   UNL     1       3.586   1.861   0.000  0.00  0.00    +0.000 A 
ATOM     15  C   UNL     1       2.873   1.449   0.000  0.00  0.00    +0.000 A 
ATOM     16  O   UNL     1       4.296   3.103   0.000  0.00  0.00    +0.000 OA
ENDBRANCH   9  10
ENDBRANCH   4   8
BRANCH   2  17
ATOM     17  O   UNL     1      -0.700  -0.616   0.000  0.00  0.00    +0.000 OA
BRANCH  17  18
ATOM     18  C   UNL     1      -1.419  -1.033   0.000  0.00  0.00    +0.000 C 
ATOM     19  O   UNL     1      -2.139  -0.613   0.000  0.00  0.00    +0.000 OA
ATOM     20  C   UNL     1      -1.419  -1.860   0.000  0.00  0.00    +0.000 C 
ATOM     21  C   UNL     1      -2.859  -1.033   0.000  0.00  0.00    +0.000 C 
ATOM     22  C   UNL     1      -2.139  -2.275   0.000  0.00  0.00    +0.000 C 
ATOM     23  O   UNL     1      -0.699  -2.272   0.000  0.00  0.00    +0.000 OA
ATOM     24  C   UNL     1      -2.859  -1.860   0.000  0.00  0.00    +0.000 C 
ATOM     25  O   UNL     1      -2.136  -3.103   0.000  0.00  0.00    +0.000 OA
ATOM     26  O   UNL     1      -3.576  -2.275   0.000  0.00  0.00    +0.000 OA
BRANCH  21  27
ATOM     27  C   UNL     1      -3.576  -0.617   0.000  0.00  0.00    +0.000 C 
ATOM     28  O   UNL     1      -4.296  -1.032   0.000  0.00  0.00    +0.000 OA
ENDBRANCH  21  27
ENDBRANCH  17  18
ENDBRANCH   2  17
TORSDOF 5
