REMARK  Name = 
REMARK  8 active torsions:
REMARK  status: ('A' for Active; 'I' for Inactive)
REMARK    1  A    between atoms: C_2  and  N_5
REMARK    2  A    between atoms: C_6  and  C_8
REMARK    3  A    between atoms: C_9  and  N_10
REMARK    4  A    between atoms: N_10  and  C_11
REMARK    5  A    between atoms: C_15  and  C_16
REMARK    6  A    between atoms: C_22  and  O_23
REMARK    7  A    between atoms: C_26  and  N_27
REMARK    8  A    between atoms: C_28  and  C_30
REMARK                            x       y       z     vdW  Elec       q    Type
REMARK                         _______ _______ _______ _____ _____    ______ ____
ROOT
ATOM      1  C   UNL     1      -3.874   0.715   0.000  0.00  0.00    +0.000 A 
ATOM      2  C   UNL     1      -3.160   0.302   0.000  0.00  0.00    +0.000 A 
ATOM      3  C   UNL     1      -2.445   0.715   0.000  0.00  0.00    +0.000 A 
ATOM      4  C   UNL     1      -2.445   1.540   0.000  0.00  0.00    +0.000 A 
ATOM      5  N   UNL     1      -3.160   1.952   0.000  0.00  0.00    +0.000 NA
ATOM      6  N   UNL     1      -3.874   1.540   0.000  0.00  0.00    +0.000 NA
ENDROOT
BRANCH   1   8
ATOM      7  N   UNL     1      -4.589  -0.523   0.000  0.00  0.00    +0.000 NA
ATOM      8  C   UNL     1      -4.589   0.302   0.000  0.00  0.00    +0.000 C 
ATOM      9  O   UNL     1      -5.303   0.715   0.000  0.00  0.00    +0.000 OA
BRANCH   7  11
ATOM     10  H   UNL     1      -5.716  -0.221   0.000  0.00  0.00    +0.000 HD
ATOM     11  C   UNL     1      -5.303  -0.935   0.000  0.00  0.00    +0.000 C 
ATOM     12  H   UNL     1      -6.018  -1.348   0.000  0.00  0.00    +0.000 HD
ATOM     13  H   UNL     1      -4.891  -1.650   0.000  0.00  0.00    +0.000 HD
ENDBRANCH   7  11
ENDBRANCH   1   8
BRANCH   4  14
ATOM     14  N   UNL     1      -1.731   1.952   0.000  0.00  0.00    +0.000 NA
ATOM     15  C   UNL     1      -1.016   1.540   0.000  0.00  0.00    +0.000 C 
ATOM     16  O   UNL     1      -0.302   1.952   0.000  0.00  0.00    +0.000 OA
BRANCH  15  17
ATOM     17  C   UNL     1      -1.016   0.715   0.000  0.00  0.00    +0.000 C 
ATOM     18  C   UNL     1      -0.604   0.000   0.000  0.00  0.00    +0.000 C 
ATOM     19  C   UNL     1      -1.429   0.000   0.000  0.00  0.00    +0.000 C 
ENDBRANCH  15  17
ENDBRANCH   4  14
BRANCH   2  20
ATOM     20  N   UNL     1      -3.160  -0.523   0.000  0.00  0.00    +0.000 NA
BRANCH  20  21
ATOM     21  C   UNL     1      -2.445  -0.935   0.000  0.00  0.00    +0.000 A 
ATOM     22  C   UNL     1      -1.731  -0.523   0.000  0.00  0.00    +0.000 A 
ATOM     23  C   UNL     1      -1.016  -0.935   0.000  0.00  0.00    +0.000 A 
ATOM     24  C   UNL     1      -1.016  -1.760   0.000  0.00  0.00    +0.000 A 
ATOM     25  C   UNL     1      -1.731  -2.173   0.000  0.00  0.00    +0.000 A 
ATOM     26  C   UNL     1      -2.445  -1.760   0.000  0.00  0.00    +0.000 A 
BRANCH  25  27
ATOM     27  C   UNL     1      -1.731  -2.998   0.000  0.00  0.00    +0.000 A 
ATOM     28  N   UNL     1      -1.063  -3.483   0.000  0.00  0.00    +0.000 NA
ATOM     29  N   UNL     1      -1.318  -4.268   0.000  0.00  0.00    +0.000 N 
ATOM     30  C   UNL     1      -0.834  -4.935   0.000  0.00  0.00    +0.000 C 
ATOM     31  C   UNL     1      -2.143  -4.268   0.000  0.00  0.00    +0.000 A 
ATOM     32  N   UNL     1      -2.398  -3.483   0.000  0.00  0.00    +0.000 NA
ENDBRANCH  25  27
BRANCH  26  33
ATOM     33  O   UNL     1      -3.160  -2.173   0.000  0.00  0.00    +0.000 OA
ATOM     34  C   UNL     1      -3.874  -1.760   0.000  0.00  0.00    +0.000 C 
ENDBRANCH  26  33
ENDBRANCH  20  21
ENDBRANCH   2  20
TORSDOF 8
