REMARK  Name = 
REMARK  4 active torsions:
REMARK  status: ('A' for Active; 'I' for Inactive)
REMARK    1  A    between atoms: C_12  and  C_20
REMARK    2  A    between atoms: C_12  and  O_31
REMARK    3  A    between atoms: C_14  and  O_31
REMARK    4  A    between atoms: C_20  and  C_25
REMARK                            x       y       z     vdW  Elec       q    Type
REMARK                         _______ _______ _______ _____ _____    ______ ____
ROOT
ATOM      1  C   UNL     1      -2.456   1.659   0.000  0.00  0.00    +0.000 C 
ATOM      2  C   UNL     1       2.628   1.138   0.000  0.00  0.00    +0.000 C 
ATOM      3  C   UNL     1       0.091   0.905   0.000  0.00  0.00    +0.000 C 
ATOM      4  C   UNL     1       2.802   3.314   0.000  0.00  0.00    +0.000 C 
ATOM      5  C   UNL     1       1.982   3.223   0.000  0.00  0.00    +0.000 C 
ATOM      6  C   UNL     1       4.268   1.320   0.000  0.00  0.00    +0.000 C 
ATOM      7  C   UNL     1       3.448   1.229   0.000  0.00  0.00    +0.000 C 
ATOM      8  C   UNL     1       4.111   2.740   0.000  0.00  0.00    +0.000 C 
ATOM      9  C   UNL     1       0.215   2.925   0.000  0.00  0.00    +0.000 C 
ATOM     10  C   UNL     1       0.988   0.957   0.000  0.00  0.00    +0.000 C 
ATOM     11  C   UNL     1      -1.650   1.835   0.000  0.00  0.00    +0.000 C 
ATOM     12  C   UNL     1       3.291   2.650   0.000  0.00  0.00    +0.000 C 
ATOM     13  C   UNL     1       4.600   2.076   0.000  0.00  0.00    +0.000 C 
ATOM     14  C   UNL     1       1.651   2.468   0.000  0.00  0.00    +0.000 C 
ATOM     15  C   UNL     1       0.831   2.377   0.000  0.00  0.00    +0.000 C 
ATOM     16  C   UNL     1       1.808   1.048   0.000  0.00  0.00    +0.000 C 
ATOM     17  C   UNL     1      -0.497   2.509   0.000  0.00  0.00    +0.000 C 
ATOM     18  C   UNL     1       2.140   1.803   0.000  0.00  0.00    +0.000 C 
ATOM     19  C   UNL     1       2.960   1.894   0.000  0.00  0.00    +0.000 C 
ATOM     20  C   UNL     1       0.500   1.621   0.000  0.00  0.00    +0.000 C 
ATOM     21  C   UNL     1      -0.321   1.703   0.000  0.00  0.00    +0.000 C 
ATOM     22  N   UNL     1      -1.033   1.286   0.000  0.00  0.00    +0.000 NA
ATOM     23  O   UNL     1       5.420   2.167   0.000  0.00  0.00    +0.000 OA
ATOM     24  O   UNL     1       2.297   0.383   0.000  0.00  0.00    +0.000 OA
ATOM     25  O   UNL     1      -1.318   2.591   0.000  0.00  0.00    +0.000 OA
ENDROOT
BRANCH  21  26
ATOM     26  C   UNL     1      -0.403   0.882   0.000  0.00  0.00    +0.000 C 
ATOM     27  O   UNL     1       0.267   0.401   0.000  0.00  0.00    +0.000 OA
BRANCH  26  28
ATOM     28  C   UNL     1      -1.155   0.542   0.000  0.00  0.00    +0.000 C 
BRANCH  28  29
ATOM     29  O   UNL     1      -1.236  -0.279   0.000  0.00  0.00    +0.000 OA
BRANCH  29  31
ATOM     30  C   UNL     1      -2.070  -1.440   0.000  0.00  0.00    +0.000 C 
ATOM     31  C   UNL     1      -1.988  -0.619   0.000  0.00  0.00    +0.000 C 
ATOM     32  O   UNL     1      -2.658  -0.137   0.000  0.00  0.00    +0.000 OA
ENDBRANCH  29  31
ENDBRANCH  28  29
ENDBRANCH  26  28
ENDBRANCH  21  26
TORSDOF 4
