REMARK  Name = 
REMARK  2 active torsions:
REMARK  status: ('A' for Active; 'I' for Inactive)
REMARK    1  A    between atoms: C_6  and  C_7
REMARK    2  A    between atoms: C_6  and  C_13
REMARK                            x       y       z     vdW  Elec       q    Type
REMARK                         _______ _______ _______ _____ _____    ______ ____
ROOT
ATOM      1  C   UNL     1      -1.245  -0.606   0.000  0.00  0.00    +0.000 C 
ATOM      2  N   UNL     1      -0.715  -1.238   0.000  0.00  0.00    +0.000 N 
ATOM      3  C   UNL     1       0.000  -1.650   0.000  0.00  0.00    +0.000 C 
ATOM      4  C   UNL     1       0.000  -2.475   0.000  0.00  0.00    +0.000 C 
ATOM      5  C   UNL     1      -0.715  -2.888   0.000  0.00  0.00    +0.000 C 
ATOM      6  C   UNL     1      -0.715  -3.712   0.000  0.00  0.00    +0.000 C 
ATOM      7  C   UNL     1      -1.429  -2.475   0.000  0.00  0.00    +0.000 C 
ATOM      8  C   UNL     1      -1.429  -1.650   0.000  0.00  0.00    +0.000 C 
ATOM      9  C   UNL     1      -0.184  -0.606   0.000  0.00  0.00    +0.000 C 
ENDROOT
BRANCH   6  10
ATOM     10  C   UNL     1      -1.429  -4.125   0.000  0.00  0.00    +0.000 A 
ATOM     11  C   UNL     1      -1.429  -4.950   0.000  0.00  0.00    +0.000 A 
ATOM     12  C   UNL     1      -2.143  -5.362   0.000  0.00  0.00    +0.000 A 
ATOM     13  C   UNL     1      -2.858  -4.950   0.000  0.00  0.00    +0.000 A 
ATOM     14  C   UNL     1      -2.858  -4.125   0.000  0.00  0.00    +0.000 A 
ATOM     15  C   UNL     1      -2.143  -3.712   0.000  0.00  0.00    +0.000 A 
ENDBRANCH   6  10
BRANCH   6  16
ATOM     16  C   UNL     1       0.000  -4.125   0.000  0.00  0.00    +0.000 A 
ATOM     17  C   UNL     1       0.715  -3.712   0.000  0.00  0.00    +0.000 A 
ATOM     18  C   UNL     1       1.429  -4.125   0.000  0.00  0.00    +0.000 A 
ATOM     19  C   UNL     1       1.429  -4.950   0.000  0.00  0.00    +0.000 A 
ATOM     20  C   UNL     1       0.715  -5.362   0.000  0.00  0.00    +0.000 A 
ATOM     21  C   UNL     1       0.000  -4.950   0.000  0.00  0.00    +0.000 A 
ENDBRANCH   6  16
TORSDOF 2
