REMARK  Name = 
REMARK  7 active torsions:
REMARK  status: ('A' for Active; 'I' for Inactive)
REMARK    1  A    between atoms: C_2  and  C_3
REMARK    2  A    between atoms: C_3  and  N_4
REMARK    3  A    between atoms: C_3  and  C_27
REMARK    4  A    between atoms: C_7  and  N_8
REMARK    5  A    between atoms: N_8  and  C_9
REMARK    6  A    between atoms: C_9  and  C_10
REMARK    7  A    between atoms: N_21  and  C_22
REMARK                            x       y       z     vdW  Elec       q    Type
REMARK                         _______ _______ _______ _____ _____    ______ ____
ROOT
ATOM      1  N   UNL     1       4.067   2.348   0.000  0.00  0.00    +0.000 NA
ATOM      2  C   UNL     1       3.352   1.935   0.000  0.00  0.00    +0.000 A 
ATOM      3  N   UNL     1       3.352   1.110   0.000  0.00  0.00    +0.000 NA
ATOM      4  C   UNL     1       2.638   0.698   0.000  0.00  0.00    +0.000 A 
ATOM      5  C   UNL     1       1.923   1.110   0.000  0.00  0.00    +0.000 A 
ATOM      6  N   UNL     1       1.139   0.856   0.000  0.00  0.00    +0.000 NA
ATOM      7  C   UNL     1       0.654   1.523   0.000  0.00  0.00    +0.000 A 
ATOM      8  N   UNL     1       1.139   2.190   0.000  0.00  0.00    +0.000 N 
ATOM      9  C   UNL     1       1.923   1.935   0.000  0.00  0.00    +0.000 A 
ATOM     10  N   UNL     1       2.638   2.348   0.000  0.00  0.00    +0.000 NA
ENDROOT
BRANCH   8  11
ATOM     11  C   UNL     1       0.884   2.975   0.000  0.00  0.00    +0.000 C 
ATOM     12  C   UNL     1       1.436   3.588   0.000  0.00  0.00    +0.000 C 
ATOM     13  C   UNL     1       0.077   3.147   0.000  0.00  0.00    +0.000 C 
ENDBRANCH   8  11
BRANCH   4  14
ATOM     14  N   UNL     1       2.638  -0.127   0.000  0.00  0.00    +0.000 NA
BRANCH  14  15
ATOM     15  C   UNL     1       3.352  -0.540   0.000  0.00  0.00    +0.000 C 
BRANCH  15  16
ATOM     16  C   UNL     1       3.352  -1.365   0.000  0.00  0.00    +0.000 A 
ATOM     17  C   UNL     1       4.067  -1.777   0.000  0.00  0.00    +0.000 A 
ATOM     18  C   UNL     1       4.781  -1.365   0.000  0.00  0.00    +0.000 C 
ATOM     19  C   UNL     1       4.067  -2.602   0.000  0.00  0.00    +0.000 A 
ATOM     20  C   UNL     1       3.352  -3.015   0.000  0.00  0.00    +0.000 A 
ATOM     21  C   UNL     1       3.352  -3.840   0.000  0.00  0.00    +0.000 C 
ATOM     22  N   UNL     1       2.638  -2.602   0.000  0.00  0.00    +0.000 NA
ATOM     23  C   UNL     1       2.638  -1.777   0.000  0.00  0.00    +0.000 A 
ENDBRANCH  15  16
ENDBRANCH  14  15
ENDBRANCH   4  14
BRANCH   1  24
ATOM     24  C   UNL     1       4.067   3.173   0.000  0.00  0.00    +0.000 C 
BRANCH  24  25
ATOM     25  C   UNL     1       3.352   3.585   0.000  0.00  0.00    +0.000 C 
ATOM     26  C   UNL     1       2.638   3.173   0.000  0.00  0.00    +0.000 C 
ATOM     27  O   UNL     1       3.352   4.410   0.000  0.00  0.00    +0.000 OA
ENDBRANCH  24  25
BRANCH  24  29
ATOM     28  C   UNL     1       4.781   4.410   0.000  0.00  0.00    +0.000 C 
ATOM     29  C   UNL     1       4.781   3.585   0.000  0.00  0.00    +0.000 C 
ENDBRANCH  24  29
ENDBRANCH   1  24
TORSDOF 7
