REMARK  Name = 
REMARK  5 active torsions:
REMARK  status: ('A' for Active; 'I' for Inactive)
REMARK    1  A    between atoms: C_2  and  C_5
REMARK    2  A    between atoms: C_7  and  C_10
REMARK    3  A    between atoms: C_10  and  C_11
REMARK    4  A    between atoms: C_11  and  C_12
REMARK    5  A    between atoms: C_12  and  C_13
REMARK                            x       y       z     vdW  Elec       q    Type
REMARK                         _______ _______ _______ _____ _____    ______ ____
ROOT
ATOM      1  C   UNL     1      -3.316   1.853   0.000  0.00  0.00    +0.000 A 
ATOM      2  N   UNL     1      -2.764   2.466   0.000  0.00  0.00    +0.000 NA
ATOM      3  C   UNL     1      -2.010   2.130   0.000  0.00  0.00    +0.000 A 
ATOM      4  C   UNL     1      -2.096   1.310   0.000  0.00  0.00    +0.000 A 
ATOM      5  N   UNL     1      -2.903   1.138   0.000  0.00  0.00    +0.000 NA
ENDROOT
BRANCH   1   7
ATOM      6  C   UNL     1      -4.621   1.272   0.000  0.00  0.00    +0.000 C 
ATOM      7  C   UNL     1      -4.136   1.939   0.000  0.00  0.00    +0.000 C 
ATOM      8  N   UNL     1      -4.472   2.693   0.000  0.00  0.00    +0.000 NA
ATOM      9  O   UNL     1      -5.292   2.779   0.000  0.00  0.00    +0.000 OA
ENDBRANCH   1   7
BRANCH   3  10
ATOM     10  C   UNL     1      -1.296   2.543   0.000  0.00  0.00    +0.000 C 
ATOM     11  O   UNL     1      -1.296   3.368   0.000  0.00  0.00    +0.000 OA
BRANCH  10  12
ATOM     12  C   UNL     1      -0.581   2.130   0.000  0.00  0.00    +0.000 C 
ATOM     13  O   UNL     1      -0.581   1.305   0.000  0.00  0.00    +0.000 OA
BRANCH  12  14
ATOM     14  C   UNL     1       0.133   2.543   0.000  0.00  0.00    +0.000 C 
ATOM     15  O   UNL     1       0.133   3.368   0.000  0.00  0.00    +0.000 OA
BRANCH  14  16
ATOM     16  C   UNL     1       0.848   2.130   0.000  0.00  0.00    +0.000 C 
ATOM     17  O   UNL     1       1.562   2.543   0.000  0.00  0.00    +0.000 OA
ENDBRANCH  14  16
ENDBRANCH  12  14
ENDBRANCH  10  12
ENDBRANCH   3  10
TORSDOF 5
