REMARK  Name = 
REMARK  4 active torsions:
REMARK  status: ('A' for Active; 'I' for Inactive)
REMARK    1  A    between atoms: C_5  and  C_7
REMARK    2  A    between atoms: C_8  and  C_9
REMARK    3  A    between atoms: C_9  and  C_10
REMARK    4  A    between atoms: C_10  and  C_11
REMARK                            x       y       z     vdW  Elec       q    Type
REMARK                         _______ _______ _______ _____ _____    ______ ____
ROOT
ATOM      1  C   UNL     1      -0.171  -0.698   0.000  0.00  0.00    +0.000 C 
ENDROOT
BRANCH   1   2
ATOM      2  C   UNL     1       0.654  -0.698   0.000  0.00  0.00    +0.000 A 
ATOM      3  C   UNL     1       1.139  -0.030   0.000  0.00  0.00    +0.000 A 
ATOM      4  N   UNL     1       1.923  -0.285   0.000  0.00  0.00    +0.000 N 
ATOM      5  C   UNL     1       2.638   0.127   0.000  0.00  0.00    +0.000 A 
ATOM      6  C   UNL     1       3.352  -0.285   0.000  0.00  0.00    +0.000 A 
ATOM      7  C   UNL     1       3.352  -1.110   0.000  0.00  0.00    +0.000 A 
ATOM      8  C   UNL     1       2.638  -1.523   0.000  0.00  0.00    +0.000 A 
ATOM      9  C   UNL     1       1.923  -1.110   0.000  0.00  0.00    +0.000 A 
ATOM     10  N   UNL     1       1.139  -1.365   0.000  0.00  0.00    +0.000 NA
ATOM     11  F   UNL     1       4.067   0.127   0.000  0.00  0.00    +0.000 F 
ENDBRANCH   1   2
BRANCH   1  12
ATOM     12  C   UNL     1      -0.584  -1.412   0.000  0.00  0.00    +0.000 C 
BRANCH  12  14
ATOM     13  C   UNL     1      -2.234  -1.412   0.000  0.00  0.00    +0.000 C 
ATOM     14  C   UNL     1      -1.409  -1.412   0.000  0.00  0.00    +0.000 C 
BRANCH  13  19
ATOM     15  C   UNL     1      -4.296  -2.127   0.000  0.00  0.00    +0.000 A 
ATOM     16  C   UNL     1      -4.709  -1.412   0.000  0.00  0.00    +0.000 A 
ATOM     17  C   UNL     1      -4.296  -0.698   0.000  0.00  0.00    +0.000 A 
ATOM     18  N   UNL     1      -3.471  -0.698   0.000  0.00  0.00    +0.000 NA
ATOM     19  C   UNL     1      -3.059  -1.412   0.000  0.00  0.00    +0.000 A 
ATOM     20  C   UNL     1      -3.471  -2.127   0.000  0.00  0.00    +0.000 A 
ENDBRANCH  13  19
ENDBRANCH  12  14
ENDBRANCH   1  12
TORSDOF 4
