REMARK  Name = 
REMARK  4 active torsions:
REMARK  status: ('A' for Active; 'I' for Inactive)
REMARK    1  A    between atoms: C_9  and  C_12
REMARK    2  A    between atoms: C_11  and  C_14
REMARK    3  A    between atoms: C_12  and  C_13
REMARK    4  A    between atoms: C_14  and  C_17
REMARK                            x       y       z     vdW  Elec       q    Type
REMARK                         _______ _______ _______ _____ _____    ______ ____
ROOT
ATOM      1 ZN   UNL     1       1.710   0.336   0.000  0.00  0.00    +0.000 Zn
ATOM      2  O   UNL     1       1.969  -0.459   0.000  0.00  0.00    +0.000 OA
ATOM      3  O   UNL     1       1.301  -1.769   0.000  0.00  0.00    +0.000 OA
ATOM      4  O   UNL     1      -0.349   1.042   0.000  0.00  0.00    +0.000 OA
ATOM      5  N   UNL     1       0.885   0.336   0.000  0.00  0.00    +0.000 N 
ATOM      6  C   UNL     1       0.638  -0.459   0.000  0.00  0.00    +0.000 C 
ATOM      7  C   UNL     1       1.301  -0.944   0.000  0.00  0.00    +0.000 C 
ATOM      8  C   UNL     1       0.476   1.042   0.000  0.00  0.00    +0.000 C 
ENDROOT
BRANCH   6   9
ATOM      9  C   UNL     1      -0.081  -0.863   0.000  0.00  0.00    +0.000 C 
BRANCH   9  12
ATOM     10  N   UNL     1      -1.459  -0.944   0.000  0.00  0.00    +0.000 NA
ATOM     11  N   UNL     1      -1.867   0.319   0.000  0.00  0.00    +0.000 NA
ATOM     12  C   UNL     1      -0.795  -0.459   0.000  0.00  0.00    +0.000 A 
ATOM     13  C   UNL     1      -1.042   0.336   0.000  0.00  0.00    +0.000 A 
ATOM     14  C   UNL     1      -2.126  -0.459   0.000  0.00  0.00    +0.000 A 
ENDBRANCH   9  12
ENDBRANCH   6   9
BRANCH   8  15
ATOM     15  C   UNL     1       0.885   1.769   0.000  0.00  0.00    +0.000 C 
BRANCH  15  17
ATOM     16  N   UNL     1       2.126   1.042   0.000  0.00  0.00    +0.000 NA
ATOM     17  C   UNL     1       1.710   1.769   0.000  0.00  0.00    +0.000 C 
ENDBRANCH  15  17
ENDBRANCH   8  15
TORSDOF 4
