REMARK  Name = 
REMARK  5 active torsions:
REMARK  status: ('A' for Active; 'I' for Inactive)
REMARK    1  A    between atoms: C_1  and  O_3
REMARK    2  A    between atoms: O_3  and  C_8
REMARK    3  A    between atoms: C_5  and  C_7
REMARK    4  A    between atoms: C_7  and  C_10
REMARK    5  A    between atoms: C_8  and  C_12
REMARK                            x       y       z     vdW  Elec       q    Type
REMARK                         _______ _______ _______ _____ _____    ______ ____
ROOT
ATOM      1  C   UNL     1      -0.355  -0.415   0.000  0.00  0.00    +0.000 C 
ATOM      2  N   UNL     1      -1.073  -0.005   0.000  0.00  0.00    +0.000 N 
ATOM      3  O   UNL     1      -0.364  -1.240   0.000  0.00  0.00    +0.000 OA
ATOM      4  C   UNL     1      -1.073   0.820   0.000  0.00  0.00    +0.000 C 
ATOM      5  C   UNL     1      -1.783  -0.410   0.000  0.00  0.00    +0.000 C 
ATOM      6  C   UNL     1      -1.783   1.240   0.000  0.00  0.00    +0.000 C 
ATOM      7  C   UNL     1      -2.497  -0.005   0.000  0.00  0.00    +0.000 C 
ATOM      8  C   UNL     1      -2.497   0.820   0.000  0.00  0.00    +0.000 C 
ENDROOT
BRANCH   1   9
ATOM      9  O   UNL     1       0.355   0.005   0.000  0.00  0.00    +0.000 OA
BRANCH   9  10
ATOM     10  C   UNL     1       1.069  -0.415   0.000  0.00  0.00    +0.000 C 
ATOM     11  C   UNL     1       1.069  -1.240   0.000  0.00  0.00    +0.000 C 
BRANCH  10  12
ATOM     12  C   UNL     1       1.778  -0.005   0.000  0.00  0.00    +0.000 C 
ATOM     13  C   UNL     1       2.497  -0.415   0.000  0.00  0.00    +0.000 C 
ENDBRANCH  10  12
ENDBRANCH   9  10
ENDBRANCH   1   9
BRANCH   4  14
ATOM     14  C   UNL     1      -0.355   1.235   0.000  0.00  0.00    +0.000 C 
BRANCH  14  16
ATOM     15  O   UNL     1       1.069   1.235   0.000  0.00  0.00    +0.000 OA
ATOM     16  C   UNL     1       0.355   0.820   0.000  0.00  0.00    +0.000 C 
ENDBRANCH  14  16
ENDBRANCH   4  14
TORSDOF 5
