REMARK  Name = 
REMARK  12 active torsions:
REMARK  status: ('A' for Active; 'I' for Inactive)
REMARK    1  A    between atoms: C_1  and  C_2
REMARK    2  A    between atoms: C_1  and  C_35
REMARK    3  A    between atoms: C_2  and  N_3
REMARK    4  A    between atoms: C_2  and  C_4
REMARK    5  A    between atoms: C_4  and  C_5
REMARK    6  A    between atoms: C_5  and  N_7
REMARK    7  A    between atoms: N_7  and  S_8
REMARK    8  A    between atoms: N_7  and  C_9
REMARK    9  A    between atoms: S_8  and  C_13
REMARK   10  A    between atoms: C_9  and  C_10
REMARK   11  A    between atoms: C_20  and  O_22
REMARK   12  A    between atoms: O_22  and  C_23
REMARK                            x       y       z     vdW  Elec       q    Type
REMARK                         _______ _______ _______ _____ _____    ______ ____
ROOT
ATOM      1  C   UNL     1      -1.429  -0.213   0.000  0.00  0.00    +0.000 C 
ENDROOT
BRANCH   1   2
ATOM      2  N   UNL     1      -0.714  -0.625   0.000  0.00  0.00    +0.000 NA
ATOM      3  C   UNL     1      -0.009  -0.213   0.000  0.00  0.00    +0.000 C 
ATOM      4  O   UNL     1      -0.012   0.613   0.000  0.00  0.00    +0.000 OA
BRANCH   3   5
ATOM      5  O   UNL     1       0.718  -0.615   0.000  0.00  0.00    +0.000 OA
BRANCH   5   6
ATOM      6  C   UNL     1       0.723  -1.440   0.000  0.00  0.00    +0.000 C 
ATOM      7  C   UNL     1       0.060  -1.929   0.000  0.00  0.00    +0.000 C 
ATOM      8  O   UNL     1       0.321  -2.712   0.000  0.00  0.00    +0.000 OA
ATOM      9  C   UNL     1       1.395  -1.919   0.000  0.00  0.00    +0.000 C 
ATOM     10  C   UNL     1       1.149  -2.705   0.000  0.00  0.00    +0.000 C 
ATOM     11  O   UNL     1       1.821  -3.182   0.000  0.00  0.00    +0.000 OA
ATOM     12  C   UNL     1       2.482  -2.691   0.000  0.00  0.00    +0.000 C 
ATOM     13  C   UNL     1       2.219  -1.910   0.000  0.00  0.00    +0.000 C 
ENDBRANCH   5   6
ENDBRANCH   3   5
ENDBRANCH   1   2
BRANCH   1  14
ATOM     14  C   UNL     1      -1.430   0.612   0.000  0.00  0.00    +0.000 C 
ATOM     15  O   UNL     1      -2.145   1.023   0.000  0.00  0.00    +0.000 OA
BRANCH  14  16
ATOM     16  C   UNL     1      -0.716   1.026   0.000  0.00  0.00    +0.000 C 
BRANCH  16  17
ATOM     17  N   UNL     1      -0.718   1.851   0.000  0.00  0.00    +0.000 NA
BRANCH  17  18
ATOM     18  S   UNL     1      -0.004   2.264   0.000  0.00  0.00    +0.000 S 
ATOM     19  O   UNL     1      -0.586   2.850   0.000  0.00  0.00    +0.000 OA
ATOM     20  O   UNL     1       0.587   2.850   0.000  0.00  0.00    +0.000 OA
BRANCH  18  21
ATOM     21  C   UNL     1       0.713   1.858   0.000  0.00  0.00    +0.000 A 
ATOM     22  C   UNL     1       0.714   1.034   0.000  0.00  0.00    +0.000 A 
ATOM     23  C   UNL     1       1.427   0.625   0.000  0.00  0.00    +0.000 A 
ATOM     24  C   UNL     1       2.139   1.039   0.000  0.00  0.00    +0.000 A 
ATOM     25  C   UNL     1       2.134   1.866   0.000  0.00  0.00    +0.000 A 
ATOM     26  C   UNL     1       1.420   2.272   0.000  0.00  0.00    +0.000 A 
ATOM     27  N   UNL     1       2.856   0.629   0.000  0.00  0.00    +0.000 NA
ENDBRANCH  18  21
ENDBRANCH  17  18
BRANCH  17  28
ATOM     28  C   UNL     1      -1.433   2.262   0.000  0.00  0.00    +0.000 C 
BRANCH  28  29
ATOM     29  C   UNL     1      -1.434   3.087   0.000  0.00  0.00    +0.000 C 
ATOM     30  C   UNL     1      -0.720   3.501   0.000  0.00  0.00    +0.000 C 
ATOM     31  C   UNL     1      -2.149   3.499   0.000  0.00  0.00    +0.000 C 
ENDBRANCH  28  29
ENDBRANCH  17  28
ENDBRANCH  16  17
ENDBRANCH  14  16
ENDBRANCH   1  14
BRANCH   1  32
ATOM     32  C   UNL     1      -2.143  -0.627   0.000  0.00  0.00    +0.000 C 
BRANCH  32  33
ATOM     33  C   UNL     1      -2.142  -1.452   0.000  0.00  0.00    +0.000 A 
ATOM     34  C   UNL     1      -2.856  -1.864   0.000  0.00  0.00    +0.000 A 
ATOM     35  C   UNL     1      -2.856  -2.689   0.000  0.00  0.00    +0.000 A 
ATOM     36  C   UNL     1      -2.142  -3.102   0.000  0.00  0.00    +0.000 A 
ATOM     37  C   UNL     1      -1.427  -2.689   0.000  0.00  0.00    +0.000 A 
ATOM     38  C   UNL     1      -1.427  -1.864   0.000  0.00  0.00    +0.000 A 
ENDBRANCH  32  33
ENDBRANCH   1  32
TORSDOF 12
