REMARK  Name = 
REMARK  4 active torsions:
REMARK  status: ('A' for Active; 'I' for Inactive)
REMARK    1  A    between atoms: C_1  and  C_2
REMARK    2  A    between atoms: C_4  and  O_9
REMARK    3  A    between atoms: O_9  and  C_10
REMARK    4  A    between atoms: C_16  and  S_19
REMARK                            x       y       z     vdW  Elec       q    Type
REMARK                         _______ _______ _______ _____ _____    ______ ____
ROOT
ATOM      1  C   UNL     1       0.382   0.000   0.000  0.00  0.00    +0.000 A 
ATOM      2  C   UNL     1       1.096  -0.412   0.000  0.00  0.00    +0.000 A 
ATOM      3  C   UNL     1       1.881  -0.158   0.000  0.00  0.00    +0.000 C 
ATOM      4  C   UNL     1       2.366  -0.825   0.000  0.00  0.00    +0.000 C 
ATOM      5  C   UNL     1       1.881  -1.492   0.000  0.00  0.00    +0.000 C 
ATOM      6  C   UNL     1       1.096  -1.238   0.000  0.00  0.00    +0.000 A 
ATOM      7  C   UNL     1       0.382  -1.650   0.000  0.00  0.00    +0.000 A 
ATOM      8  C   UNL     1      -0.333  -1.238   0.000  0.00  0.00    +0.000 A 
ATOM      9  C   UNL     1      -0.333  -0.412   0.000  0.00  0.00    +0.000 A 
ATOM     10  O   UNL     1       2.136  -2.277   0.000  0.00  0.00    +0.000 OA
ATOM     11  F   UNL     1       3.191  -0.825   0.000  0.00  0.00    +0.000 F 
ATOM     12  F   UNL     1       2.136   0.627   0.000  0.00  0.00    +0.000 F 
ENDROOT
BRANCH   7  13
ATOM     13  S   UNL     1       0.382  -2.475   0.000  0.00  0.00    +0.000 S 
ATOM     14  O   UNL     1      -0.443  -2.475   0.000  0.00  0.00    +0.000 OA
ATOM     15  O   UNL     1       1.207  -2.475   0.000  0.00  0.00    +0.000 OA
ATOM     16  C   UNL     1       0.382  -3.300   0.000  0.00  0.00    +0.000 C 
ENDBRANCH   7  13
BRANCH   1  17
ATOM     17  O   UNL     1       0.382   0.825   0.000  0.00  0.00    +0.000 OA
BRANCH  17  20
ATOM     18  C   UNL     1      -1.762   1.237   0.000  0.00  0.00    +0.000 A 
ATOM     19  C   UNL     1      -1.047   0.825   0.000  0.00  0.00    +0.000 A 
ATOM     20  C   UNL     1      -0.333   1.237   0.000  0.00  0.00    +0.000 A 
ATOM     21  C   UNL     1      -0.333   2.062   0.000  0.00  0.00    +0.000 A 
ATOM     22  C   UNL     1      -1.047   2.475   0.000  0.00  0.00    +0.000 A 
ATOM     23  C   UNL     1      -1.762   2.062   0.000  0.00  0.00    +0.000 A 
ATOM     24  F   UNL     1      -1.047   3.300   0.000  0.00  0.00    +0.000 F 
BRANCH  18  25
ATOM     25  C   UNL     1      -2.476   0.825   0.000  0.00  0.00    +0.000 C 
ATOM     26  N   UNL     1      -3.191   0.412   0.000  0.00  0.00    +0.000 NA
ENDBRANCH  18  25
ENDBRANCH  17  20
ENDBRANCH   1  17
TORSDOF 4
