REMARK  Name = 
REMARK  1 active torsions:
REMARK  status: ('A' for Active; 'I' for Inactive)
REMARK    1  A    between atoms: C_4  and  C_10
REMARK                            x       y       z     vdW  Elec       q    Type
REMARK                         _______ _______ _______ _____ _____    ______ ____
ROOT
ATOM      1  C   UNL     1       0.273   0.564   0.000  0.00  0.00    +0.000 C 
ATOM      2  C   UNL     1       0.254  -0.261   0.000  0.00  0.00    +0.000 C 
ATOM      3  C   UNL     1       0.847  -0.657   0.000  0.00  0.00    +0.000 C 
ATOM      4  C   UNL     1       1.571  -0.261   0.000  0.00  0.00    +0.000 C 
ATOM      5  C   UNL     1       1.590   0.564   0.000  0.00  0.00    +0.000 C 
ATOM      6  C   UNL     1       0.885   0.993   0.000  0.00  0.00    +0.000 C 
ATOM      7  C   UNL     1       0.660   0.173   0.000  0.00  0.00    +0.000 C 
ATOM      8  C   UNL     1      -0.342   0.375   0.000  0.00  0.00    +0.000 C 
ATOM      9  C   UNL     1      -0.300  -0.126   0.000  0.00  0.00    +0.000 C 
ATOM     10  C   UNL     1       1.127   1.822   0.000  0.00  0.00    +0.000 C 
ENDROOT
BRANCH   1  14
ATOM     11  C   UNL     1      -1.210   3.104   0.000  0.00  0.00    +0.000 C 
ATOM     12  C   UNL     1      -1.229   2.279   0.000  0.00  0.00    +0.000 A 
ATOM     13  C   UNL     1      -0.525   1.850   0.000  0.00  0.00    +0.000 A 
ATOM     14  C   UNL     1      -0.543   1.025   0.000  0.00  0.00    +0.000 A 
ATOM     15  C   UNL     1      -1.267   0.629   0.000  0.00  0.00    +0.000 A 
ATOM     16  C   UNL     1      -1.972   1.058   0.000  0.00  0.00    +0.000 A 
ATOM     17  C   UNL     1      -1.953   1.883   0.000  0.00  0.00    +0.000 A 
ATOM     18  C   UNL     1      -2.658   2.312   0.000  0.00  0.00    +0.000 C 
ATOM     19  O   UNL     1      -1.286  -0.195   0.000  0.00  0.00    +0.000 OA
ENDBRANCH   1  14
TORSDOF 1
