REMARK  Name = 
REMARK  11 active torsions:
REMARK  status: ('A' for Active; 'I' for Inactive)
REMARK    1  A    between atoms: N_1  and  C_8
REMARK    2  A    between atoms: C_10  and  C_12
REMARK    3  A    between atoms: C_12  and  O_13
REMARK    4  A    between atoms: O_13  and  P_14
REMARK    5  A    between atoms: P_14  and  O_15
REMARK    6  A    between atoms: O_15  and  P_16
REMARK    7  A    between atoms: P_16  and  O_17
REMARK    8  A    between atoms: O_17  and  C_26
REMARK    9  A    between atoms: C_26  and  C_27
REMARK   10  A    between atoms: C_27  and  C_28
REMARK   11  A    between atoms: C_28  and  C_29
REMARK                            x       y       z     vdW  Elec       q    Type
REMARK                         _______ _______ _______ _____ _____    ______ ____
ROOT
ATOM      1  O   UNL     1       0.161  -0.057   0.000  0.00  0.00    +0.000 OA
ENDROOT
BRANCH   1   2
ATOM      2  P   UNL     1      -0.664  -0.052   0.000  0.00  0.00    +0.000 P 
ATOM      3  O   UNL     1      -0.668   0.773   0.000  0.00  0.00    +0.000 OA
ATOM      4  O   UNL     1      -0.660  -0.877   0.000  0.00  0.00    +0.000 OA
BRANCH   2   5
ATOM      5  O   UNL     1      -1.489  -0.048   0.000  0.00  0.00    +0.000 OA
BRANCH   5   6
ATOM      6  P   UNL     1      -2.314  -0.044   0.000  0.00  0.00    +0.000 P 
ATOM      7  O   UNL     1      -2.318   0.781   0.000  0.00  0.00    +0.000 OA
ATOM      8  O   UNL     1      -2.310  -0.869   0.000  0.00  0.00    +0.000 OA
BRANCH   6   9
ATOM      9  O   UNL     1      -3.139  -0.040   0.000  0.00  0.00    +0.000 OA
BRANCH   9  10
ATOM     10  C   UNL     1      -3.852   0.373   0.000  0.00  0.00    +0.000 C 
BRANCH  10  11
ATOM     11  C   UNL     1      -4.564  -0.040   0.000  0.00  0.00    +0.000 C 
ATOM     12  O   UNL     1      -4.564  -0.865   0.000  0.00  0.00    +0.000 OA
BRANCH  11  13
ATOM     13  C   UNL     1      -5.277   0.373   0.000  0.00  0.00    +0.000 C 
ATOM     14  C   UNL     1      -5.864   0.960   0.000  0.00  0.00    +0.000 C 
ATOM     15  O   UNL     1      -4.693   0.960   0.000  0.00  0.00    +0.000 OA
BRANCH  13  16
ATOM     16  C   UNL     1      -5.989  -0.040   0.000  0.00  0.00    +0.000 C 
ATOM     17  O   UNL     1      -5.988  -0.865   0.000  0.00  0.00    +0.000 OA
ENDBRANCH  13  16
ENDBRANCH  11  13
ENDBRANCH  10  11
ENDBRANCH   9  10
ENDBRANCH   6   9
ENDBRANCH   5   6
ENDBRANCH   2   5
ENDBRANCH   1   2
BRANCH   1  18
ATOM     18  C   UNL     1       0.748   0.527   0.000  0.00  0.00    +0.000 C 
BRANCH  18  22
ATOM     19  C   UNL     1       2.548  -0.673   0.000  0.00  0.00    +0.000 C 
ATOM     20  C   UNL     1       2.805   0.111   0.000  0.00  0.00    +0.000 C 
ATOM     21  O   UNL     1       2.136   0.598   0.000  0.00  0.00    +0.000 OA
ATOM     22  C   UNL     1       1.467   0.111   0.000  0.00  0.00    +0.000 C 
ATOM     23  C   UNL     1       1.723  -0.673   0.000  0.00  0.00    +0.000 C 
ATOM     24  O   UNL     1       1.239  -1.341   0.000  0.00  0.00    +0.000 OA
ATOM     25  O   UNL     1       3.033  -1.341   0.000  0.00  0.00    +0.000 OA
BRANCH  20  26
ATOM     26  N   UNL     1       3.598   0.331   0.000  0.00  0.00    +0.000 N 
ATOM     27  C   UNL     1       4.182  -0.252   0.000  0.00  0.00    +0.000 A 
ATOM     28  N   UNL     1       4.979  -0.039   0.000  0.00  0.00    +0.000 NA
ATOM     29  C   UNL     1       5.192   0.758   0.000  0.00  0.00    +0.000 A 
ATOM     30  C   UNL     1       4.609   1.341   0.000  0.00  0.00    +0.000 A 
ATOM     31  C   UNL     1       3.812   1.128   0.000  0.00  0.00    +0.000 A 
ATOM     32  N   UNL     1       5.989   0.972   0.000  0.00  0.00    +0.000 NA
ATOM     33  O   UNL     1       3.968  -1.049   0.000  0.00  0.00    +0.000 OA
ENDBRANCH  20  26
ENDBRANCH  18  22
ENDBRANCH   1  18
TORSDOF 11
