REMARK  Name = 
REMARK  3 active torsions:
REMARK  status: ('A' for Active; 'I' for Inactive)
REMARK    1  A    between atoms: C_4  and  C_10
REMARK    2  A    between atoms: N_17  and  C_25
REMARK    3  A    between atoms: C_19  and  C_22
REMARK                            x       y       z     vdW  Elec       q    Type
REMARK                         _______ _______ _______ _____ _____    ______ ____
ROOT
ATOM      1  C   UNL     1      -0.715  -0.412   0.000  0.00  0.00    +0.000 A 
ATOM      2  C   UNL     1      -0.715  -1.238   0.000  0.00  0.00    +0.000 A 
ATOM      3  C   UNL     1       0.000  -1.650   0.000  0.00  0.00    +0.000 A 
ATOM      4  C   UNL     1       0.715  -1.238   0.000  0.00  0.00    +0.000 A 
ATOM      5  C   UNL     1       0.715  -0.412   0.000  0.00  0.00    +0.000 A 
ATOM      6  C   UNL     1       0.000   0.000   0.000  0.00  0.00    +0.000 A 
ATOM      7  C   UNL     1       0.000   0.825   0.000  0.00  0.00    +0.000 C 
ATOM      8  N   UNL     1       1.429   0.000   0.000  0.00  0.00    +0.000 N 
ATOM      9  C   UNL     1       2.143  -0.412   0.000  0.00  0.00    +0.000 A 
ATOM     10  C   UNL     1       2.143  -1.238   0.000  0.00  0.00    +0.000 A 
ATOM     11  C   UNL     1       1.429  -1.650   0.000  0.00  0.00    +0.000 A 
ATOM     12  O   UNL     1       1.429  -2.475   0.000  0.00  0.00    +0.000 OA
ENDROOT
BRANCH   1  16
ATOM     13  C   UNL     1      -2.143   2.062   0.000  0.00  0.00    +0.000 C 
ATOM     14  C   UNL     1      -2.143   1.238   0.000  0.00  0.00    +0.000 A 
ATOM     15  C   UNL     1      -1.429   0.825   0.000  0.00  0.00    +0.000 A 
ATOM     16  C   UNL     1      -1.429   0.000   0.000  0.00  0.00    +0.000 A 
ATOM     17  C   UNL     1      -2.143  -0.412   0.000  0.00  0.00    +0.000 A 
ATOM     18  N   UNL     1      -2.858   0.000   0.000  0.00  0.00    +0.000 NA
ATOM     19  C   UNL     1      -2.858   0.825   0.000  0.00  0.00    +0.000 A 
ATOM     20  N   UNL     1      -3.572   1.238   0.000  0.00  0.00    +0.000 NA
ATOM     21  C   UNL     1      -4.287   0.825   0.000  0.00  0.00    +0.000 C 
ENDBRANCH   1  16
BRANCH  10  22
ATOM     22  C   UNL     1       2.858  -1.650   0.000  0.00  0.00    +0.000 C 
ATOM     23  O   UNL     1       3.572  -1.238   0.000  0.00  0.00    +0.000 OA
ATOM     24  O   UNL     1       2.858  -2.475   0.000  0.00  0.00    +0.000 OA
ENDBRANCH  10  22
BRANCH   8  25
ATOM     25  C   UNL     1       1.429   0.825   0.000  0.00  0.00    +0.000 C 
ATOM     26  C   UNL     1       1.016   1.540   0.000  0.00  0.00    +0.000 C 
ATOM     27  C   UNL     1       1.841   1.540   0.000  0.00  0.00    +0.000 C 
ENDBRANCH   8  25
TORSDOF 3
