REMARK  Name = 
REMARK  2 active torsions:
REMARK  status: ('A' for Active; 'I' for Inactive)
REMARK    1  A    between atoms: C_1  and  O_4
REMARK    2  A    between atoms: C_7  and  C_10
REMARK                            x       y       z     vdW  Elec       q    Type
REMARK                         _______ _______ _______ _____ _____    ______ ____
ROOT
ATOM      1  C   UNL     1      -1.430   0.000   0.000  0.00  0.00    +0.000 A 
ATOM      2  C   UNL     1      -1.430   0.825   0.000  0.00  0.00    +0.000 A 
ATOM      3  C   UNL     1      -0.715  -0.412   0.000  0.00  0.00    +0.000 A 
ATOM      4  C   UNL     1      -0.715   1.238   0.000  0.00  0.00    +0.000 A 
ATOM      5  O   UNL     1      -2.144   1.238   0.000  0.00  0.00    +0.000 OA
ATOM      6  C   UNL     1      -0.001   0.000   0.000  0.00  0.00    +0.000 A 
ATOM      7  C   UNL     1      -0.001   0.825   0.000  0.00  0.00    +0.000 A 
ENDROOT
BRANCH   6   8
ATOM      8  C   UNL     1       0.714  -0.412   0.000  0.00  0.00    +0.000 C 
ATOM      9  C   UNL     1       1.429   0.000   0.000  0.00  0.00    +0.000 C 
ATOM     10  C   UNL     1       2.144  -0.412   0.000  0.00  0.00    +0.000 C 
ENDBRANCH   6   8
BRANCH   1  11
ATOM     11  O   UNL     1      -2.144  -0.412   0.000  0.00  0.00    +0.000 OA
ATOM     12  C   UNL     1      -2.144  -1.238   0.000  0.00  0.00    +0.000 C 
ENDBRANCH   1  11
TORSDOF 2
