REMARK  Name = 
REMARK  0 active torsions:
REMARK  status: ('A' for Active; 'I' for Inactive)
REMARK                            x       y       z     vdW  Elec       q    Type
REMARK                         _______ _______ _______ _____ _____    ______ ____
ROOT
ATOM      1  N   UNL     1       0.000  -1.252   0.000  0.00  0.00    +0.000 NA
ATOM      2  C   UNL     1       0.725  -0.825   0.000  0.00  0.00    +0.000 A 
ATOM      3  C   UNL     1      -0.725  -0.825   0.000  0.00  0.00    +0.000 A 
ATOM      4  C   UNL     1       0.000   0.427   0.000  0.00  0.00    +0.000 A 
ATOM      5  C   UNL     1      -0.725   0.000   0.000  0.00  0.00    +0.000 A 
ATOM      6  C   UNL     1       0.725   0.000   0.000  0.00  0.00    +0.000 A 
ATOM      7  C   UNL     1       1.465  -1.252   0.000  0.00  0.00    +0.000 A 
ATOM      8  C   UNL     1      -1.451  -1.252   0.000  0.00  0.00    +0.000 A 
ATOM      9  C   UNL     1      -1.451   0.427   0.000  0.00  0.00    +0.000 A 
ATOM     10  C   UNL     1       1.465   0.427   0.000  0.00  0.00    +0.000 A 
ATOM     11  C   UNL     1       2.134  -0.825   0.000  0.00  0.00    +0.000 A 
ATOM     12  C   UNL     1      -2.134   0.000   0.000  0.00  0.00    +0.000 A 
ATOM     13  C   UNL     1      -2.134  -0.825   0.000  0.00  0.00    +0.000 A 
ATOM     14  C   UNL     1       2.134   0.000   0.000  0.00  0.00    +0.000 A 
ATOM     15  N   UNL     1       0.000   1.252   0.000  0.00  0.00    +0.000 NA
ENDROOT
TORSDOF 0
