REMARK  Name = 
REMARK  18 active torsions:
REMARK  status: ('A' for Active; 'I' for Inactive)
REMARK    1  A    between atoms: N_19  and  C_52
REMARK    2  A    between atoms: N_20  and  C_47
REMARK    3  A    between atoms: N_22  and  C_56
REMARK    4  A    between atoms: N_25  and  C_72
REMARK    5  A    between atoms: C_30  and  C_32
REMARK    6  A    between atoms: C_31  and  C_33
REMARK    7  A    between atoms: C_32  and  C_37
REMARK    8  A    between atoms: C_33  and  C_36
REMARK    9  A    between atoms: C_34  and  C_39
REMARK   10  A    between atoms: C_37  and  C_47
REMARK   11  A    between atoms: C_39  and  C_48
REMARK   12  A    between atoms: C_40  and  C_46
REMARK   13  A    between atoms: C_46  and  C_55
REMARK   14  A    between atoms: C_49  and  C_67
REMARK   15  A    between atoms: C_56  and  C_58
REMARK   16  A    between atoms: C_56  and  C_65
REMARK   17  A    between atoms: C_58  and  C_66
REMARK   18  A    between atoms: C_66  and  C_72
REMARK                            x       y       z     vdW  Elec       q    Type
REMARK                         _______ _______ _______ _____ _____    ______ ____
ROOT
ATOM      1  S   UNL     1      -2.910  -0.520   0.000  0.00  0.00    +0.000 S 
ATOM      2  S   UNL     1      -2.739   0.287   0.000  0.00  0.00    +0.000 S 
ATOM      3  O   UNL     1       1.156  -4.446   0.000  0.00  0.00    +0.000 OA
ATOM      4  O   UNL     1       3.546  -2.506   0.000  0.00  0.00    +0.000 OA
ATOM      5  O   UNL     1      -1.886  -4.027   0.000  0.00  0.00    +0.000 OA
ATOM      6  O   UNL     1       3.764   0.567   0.000  0.00  0.00    +0.000 OA
ATOM      7  O   UNL     1       1.653   2.817   0.000  0.00  0.00    +0.000 OA
ATOM      8  O   UNL     1      -1.420   2.817   0.000  0.00  0.00    +0.000 OA
ATOM      9  N   UNL     1       0.116  -3.034   0.000  0.00  0.00    +0.000 NA
ATOM     10  N   UNL     1       1.808  -2.475   0.000  0.00  0.00    +0.000 NA
ATOM     11  N   UNL     1       2.662  -0.520   0.000  0.00  0.00    +0.000 NA
ATOM     12  N   UNL     1      -1.699  -2.196   0.000  0.00  0.00    +0.000 NA
ATOM     13  N   UNL     1       1.467   1.218   0.000  0.00  0.00    +0.000 NA
ATOM     14  N   UNL     1      -0.380   1.792   0.000  0.00  0.00    +0.000 NA
ATOM     15  C   UNL     1       1.699  -3.329   0.000  0.00  0.00    +0.000 C 
ATOM     16  C   UNL     1      -0.706  -3.655   0.000  0.00  0.00    +0.000 C 
ATOM     17  C   UNL     1       3.096  -1.342   0.000  0.00  0.00    +0.000 C 
ATOM     18  C   UNL     1       0.939  -3.655   0.000  0.00  0.00    +0.000 C 
ATOM     19  C   UNL     1       2.817  -2.118   0.000  0.00  0.00    +0.000 C 
ATOM     20  C   UNL     1       2.600   1.016   0.000  0.00  0.00    +0.000 C 
ATOM     21  C   UNL     1      -1.467  -3.329   0.000  0.00  0.00    +0.000 C 
ATOM     22  C   UNL     1       2.972   0.287   0.000  0.00  0.00    +0.000 C 
ATOM     23  C   UNL     1      -2.584  -2.118   0.000  0.00  0.00    +0.000 C 
ATOM     24  C   UNL     1       0.535   2.289   0.000  0.00  0.00    +0.000 C 
ATOM     25  C   UNL     1      -1.808   1.622   0.000  0.00  0.00    +0.000 C 
ATOM     26  C   UNL     1       1.327   2.056   0.000  0.00  0.00    +0.000 C 
ATOM     27  C   UNL     1      -2.367  -1.218   0.000  0.00  0.00    +0.000 C 
ATOM     28  C   UNL     1      -1.094   2.056   0.000  0.00  0.00    +0.000 C 
ATOM     29  C   UNL     1      -1.886   0.784   0.000  0.00  0.00    +0.000 C 
ATOM     30  C   UNL     1       0.644   3.096   0.000  0.00  0.00    +0.000 C 
ENDROOT
BRANCH  23  33
ATOM     31  O   UNL     1      -3.360  -3.329   0.000  0.00  0.00    +0.000 OA
ATOM     32  N   UNL     1      -4.012  -2.056   0.000  0.00  0.00    +0.000 N 
ATOM     33  C   UNL     1      -3.313  -2.506   0.000  0.00  0.00    +0.000 C 
ATOM     34  H   UNL     1      -3.996  -1.544   0.000  0.00  0.00    +0.000 HD
ATOM     35  H   UNL     1      -4.462  -2.289   0.000  0.00  0.00    +0.000 HD
ENDBRANCH  23  33
BRANCH  25  37
ATOM     36  O   UNL     1      -3.438   1.373   0.000  0.00  0.00    +0.000 OA
ATOM     37  N   UNL     1      -2.320   2.274   0.000  0.00  0.00    +0.000 N 
ATOM     38  C   UNL     1      -3.143   2.134   0.000  0.00  0.00    +0.000 C 
ATOM     39  H   UNL     1      -2.134   2.755   0.000  0.00  0.00    +0.000 HD
BRANCH  38  40
ATOM     40  C   UNL     1      -3.655   2.786   0.000  0.00  0.00    +0.000 C 
BRANCH  40  42
ATOM     41  O   UNL     1      -4.710   4.058   0.000  0.00  0.00    +0.000 OA
ATOM     42  N   UNL     1      -4.477   2.646   0.000  0.00  0.00    +0.000 N 
ATOM     43  C   UNL     1      -5.005   3.298   0.000  0.00  0.00    +0.000 C 
ATOM     44  C   UNL     1      -5.812   3.158   0.000  0.00  0.00    +0.000 C 
ATOM     45  H   UNL     1      -4.664   2.165   0.000  0.00  0.00    +0.000 HD
ENDBRANCH  40  42
BRANCH  40  46
ATOM     46  C   UNL     1      -3.376   3.546   0.000  0.00  0.00    +0.000 C 
BRANCH  46  47
ATOM     47  C   UNL     1      -3.888   4.198   0.000  0.00  0.00    +0.000 C 
BRANCH  47  48
ATOM     48  C   UNL     1      -3.593   4.974   0.000  0.00  0.00    +0.000 C 
BRANCH  48  49
ATOM     49  N   UNL     1      -4.120   5.610   0.000  0.00  0.00    +0.000 NA
ATOM     50  N   UNL     1      -4.338   7.023   0.000  0.00  0.00    +0.000 N 
ATOM     51  N   UNL     1      -3.003   6.511   0.000  0.00  0.00    +0.000 N 
ATOM     52  C   UNL     1      -3.826   6.386   0.000  0.00  0.00    +0.000 C 
ATOM     53  H   UNL     1      -4.167   7.504   0.000  0.00  0.00    +0.000 HD
ATOM     54  H   UNL     1      -4.850   6.945   0.000  0.00  0.00    +0.000 HD
ATOM     55  H   UNL     1      -2.817   6.992   0.000  0.00  0.00    +0.000 HD
ATOM     56  H   UNL     1      -2.677   6.123   0.000  0.00  0.00    +0.000 HD
ENDBRANCH  48  49
ENDBRANCH  47  48
ENDBRANCH  46  47
ENDBRANCH  40  46
ENDBRANCH  38  40
ENDBRANCH  25  37
BRANCH  16  57
ATOM     57  C   UNL     1      -0.923  -4.446   0.000  0.00  0.00    +0.000 C 
BRANCH  57  59
ATOM     58  N   UNL     1       0.830  -5.657   0.000  0.00  0.00    +0.000 N 
ATOM     59  C   UNL     1      -0.349  -5.036   0.000  0.00  0.00    +0.000 A 
ATOM     60  C   UNL     1      -0.489  -5.843   0.000  0.00  0.00    +0.000 A 
ATOM     61  C   UNL     1       0.241  -6.231   0.000  0.00  0.00    +0.000 A 
ATOM     62  C   UNL     1       0.458  -4.928   0.000  0.00  0.00    +0.000 A 
ATOM     63  C   UNL     1      -1.187  -6.293   0.000  0.00  0.00    +0.000 A 
ATOM     64  C   UNL     1       0.287  -7.054   0.000  0.00  0.00    +0.000 A 
ATOM     65  C   UNL     1      -1.156  -7.116   0.000  0.00  0.00    +0.000 A 
ATOM     66  C   UNL     1      -0.411  -7.504   0.000  0.00  0.00    +0.000 A 
ATOM     67  H   UNL     1       1.343  -5.734   0.000  0.00  0.00    +0.000 HD
ENDBRANCH  57  59
ENDBRANCH  16  57
BRANCH  17  68
ATOM     68  C   UNL     1       3.903  -1.513   0.000  0.00  0.00    +0.000 C 
BRANCH  68  69
ATOM     69  C   UNL     1       4.446  -0.892   0.000  0.00  0.00    +0.000 A 
ATOM     70  C   UNL     1       4.183  -0.116   0.000  0.00  0.00    +0.000 A 
ATOM     71  C   UNL     1       5.253  -1.063   0.000  0.00  0.00    +0.000 A 
ATOM     72  C   UNL     1       4.741   0.504   0.000  0.00  0.00    +0.000 A 
ATOM     73  C   UNL     1       5.812  -0.442   0.000  0.00  0.00    +0.000 A 
ATOM     74  C   UNL     1       5.548   0.334   0.000  0.00  0.00    +0.000 A 
ENDBRANCH  68  69
ENDBRANCH  17  68
BRANCH  20  75
ATOM     75  C   UNL     1       3.267   1.498   0.000  0.00  0.00    +0.000 C 
BRANCH  75  78
ATOM     76  N   UNL     1       3.826   2.863   0.000  0.00  0.00    +0.000 N 
ATOM     77  N   UNL     1       2.677   3.562   0.000  0.00  0.00    +0.000 NA
ATOM     78  C   UNL     1       3.205   2.320   0.000  0.00  0.00    +0.000 A 
ATOM     79  C   UNL     1       2.491   2.755   0.000  0.00  0.00    +0.000 A 
ATOM     80  C   UNL     1       3.500   3.624   0.000  0.00  0.00    +0.000 A 
ATOM     81  H   UNL     1       4.322   2.755   0.000  0.00  0.00    +0.000 HD
ENDBRANCH  75  78
ENDBRANCH  20  75
BRANCH  15  82
ATOM     82  C   UNL     1       2.118  -4.027   0.000  0.00  0.00    +0.000 C 
BRANCH  82  83
ATOM     83  C   UNL     1       2.956  -4.012   0.000  0.00  0.00    +0.000 C 
BRANCH  83  84
ATOM     84  C   UNL     1       3.376  -4.710   0.000  0.00  0.00    +0.000 C 
BRANCH  84  85
ATOM     85  N   UNL     1       4.214  -4.695   0.000  0.00  0.00    +0.000 NA
ATOM     86  N   UNL     1       4.245  -6.138   0.000  0.00  0.00    +0.000 NA
ATOM     87  N   UNL     1       5.471  -5.393   0.000  0.00  0.00    +0.000 NA
ATOM     88  C   UNL     1       4.633  -5.409   0.000  0.00  0.00    +0.000 C 
ENDBRANCH  84  85
ENDBRANCH  83  84
ENDBRANCH  82  83
ENDBRANCH  15  82
TORSDOF 18
