REMARK  Name = 
REMARK  4 active torsions:
REMARK  status: ('A' for Active; 'I' for Inactive)
REMARK    1  A    between atoms: N_1  and  C_4
REMARK    2  A    between atoms: C_3  and  C_8
REMARK    3  A    between atoms: C_4  and  C_9
REMARK    4  A    between atoms: C_8  and  N_12
REMARK                            x       y       z     vdW  Elec       q    Type
REMARK                         _______ _______ _______ _____ _____    ______ ____
ROOT
ATOM      1  N   UNL     1      -0.635   0.388   0.000  0.00  0.00    +0.000 N 
ATOM      2  C   UNL     1      -1.419   0.133   0.000  0.00  0.00    +0.000 A 
ATOM      3  C   UNL     1      -0.150  -0.280   0.000  0.00  0.00    +0.000 A 
ATOM      4  C   UNL     1      -1.419  -0.692   0.000  0.00  0.00    +0.000 A 
ATOM      5  C   UNL     1      -2.134   0.545   0.000  0.00  0.00    +0.000 A 
ATOM      6  N   UNL     1      -0.635  -0.947   0.000  0.00  0.00    +0.000 NA
ATOM      7  C   UNL     1      -2.134  -1.105   0.000  0.00  0.00    +0.000 A 
ATOM      8  C   UNL     1      -2.848   0.133   0.000  0.00  0.00    +0.000 A 
ATOM      9  C   UNL     1      -2.848  -0.692   0.000  0.00  0.00    +0.000 A 
ENDROOT
BRANCH   1  10
ATOM     10  C   UNL     1      -0.380   1.172   0.000  0.00  0.00    +0.000 C 
BRANCH  10  11
ATOM     11  C   UNL     1       0.427   1.344   0.000  0.00  0.00    +0.000 A 
ATOM     12  C   UNL     1       0.682   2.128   0.000  0.00  0.00    +0.000 A 
ATOM     13  C   UNL     1       0.979   0.731   0.000  0.00  0.00    +0.000 A 
ATOM     14  C   UNL     1       1.489   2.300   0.000  0.00  0.00    +0.000 A 
ATOM     15  C   UNL     1       1.786   0.902   0.000  0.00  0.00    +0.000 A 
ATOM     16  C   UNL     1       2.041   1.687   0.000  0.00  0.00    +0.000 A 
ATOM     17 CL   UNL     1       2.848   1.858   0.000  0.00  0.00    +0.000 Cl
ENDBRANCH  10  11
ENDBRANCH   1  10
BRANCH   3  18
ATOM     18  C   UNL     1       0.675  -0.280   0.000  0.00  0.00    +0.000 C 
BRANCH  18  19
ATOM     19  N   UNL     1       1.088  -0.994   0.000  0.00  0.00    +0.000 NA
ATOM     20  C   UNL     1       1.908  -1.080   0.000  0.00  0.00    +0.000 C 
ATOM     21  C   UNL     1       0.752  -1.748   0.000  0.00  0.00    +0.000 C 
ATOM     22  C   UNL     1       2.080  -1.887   0.000  0.00  0.00    +0.000 C 
ATOM     23  C   UNL     1       1.365  -2.300   0.000  0.00  0.00    +0.000 C 
ENDBRANCH  18  19
ENDBRANCH   3  18
TORSDOF 4
