REMARK  Name = 
REMARK  18 active torsions:
REMARK  status: ('A' for Active; 'I' for Inactive)
REMARK    1  A    between atoms: C_2  and  C_4
REMARK    2  A    between atoms: C_14  and  C_15
REMARK    3  A    between atoms: C_15  and  C_16
REMARK    4  A    between atoms: C_16  and  C_17
REMARK    5  A    between atoms: C_33  and  C_34
REMARK    6  A    between atoms: C_34  and  O_36
REMARK    7  A    between atoms: O_36  and  C_37
REMARK    8  A    between atoms: C_37  and  C_39
REMARK    9  A    between atoms: C_58  and  C_59
REMARK   10  A    between atoms: C_64  and  C_65
REMARK   11  A    between atoms: C_65  and  C_66
REMARK   12  A    between atoms: C_66  and  C_67
REMARK   13  A    between atoms: C_70  and  C_71
REMARK   14  A    between atoms: C_71  and  C_72
REMARK   15  A    between atoms: C_72  and  C_73
REMARK   16  A    between atoms: C_80  and  C_81
REMARK   17  A    between atoms: C_81  and  C_82
REMARK   18  A    between atoms: C_82  and  C_83
REMARK                            x       y       z     vdW  Elec       q    Type
REMARK                         _______ _______ _______ _____ _____    ______ ____
ROOT
ATOM      1  O   UNL     1      -2.359  -3.191   0.000  0.00  0.00    +0.000 OA
ENDROOT
BRANCH   1   2
ATOM      2  C   UNL     1      -1.595  -2.880   0.000  0.00  0.00    +0.000 C 
ATOM      3  C   UNL     1      -0.943  -3.386   0.000  0.00  0.00    +0.000 C 
BRANCH   2   4
ATOM      4  C   UNL     1      -1.482  -2.062   0.000  0.00  0.00    +0.000 A 
ATOM      5  C   UNL     1      -0.724  -1.646   0.000  0.00  0.00    +0.000 A 
ATOM      6  N   UNL     1      -0.848  -0.886   0.000  0.00  0.00    +0.000 NA
ATOM      7  C   UNL     1      -1.669  -0.747   0.000  0.00  0.00    +0.000 A 
ATOM      8  C   UNL     1      -2.056  -0.047   0.000  0.00  0.00    +0.000 C 
ATOM      9  C   UNL     1      -1.682   0.717   0.000  0.00  0.00    +0.000 C 
ATOM     10  N   UNL     1      -0.893   0.871   0.000  0.00  0.00    +0.000 NA
ATOM     11  C   UNL     1      -0.724   1.663   0.000  0.00  0.00    +0.000 C 
ATOM     12  C   UNL     1       0.005   2.050   0.000  0.00  0.00    +0.000 C 
ATOM     13  C   UNL     1       0.711   1.675   0.000  0.00  0.00    +0.000 A 
ATOM     14  N   UNL     1       0.864   0.857   0.000  0.00  0.00    +0.000 NA
ATOM     15  C   UNL     1       1.627   0.746   0.000  0.00  0.00    +0.000 A 
ATOM     16  C   UNL     1       2.043   0.018   0.000  0.00  0.00    +0.000 C 
ATOM     17  C   UNL     1       1.668  -0.688   0.000  0.00  0.00    +0.000 C 
ATOM     18  N   UNL     1       0.850  -0.871   0.000  0.00  0.00    +0.000 NA
ATOM     19  C   UNL     1       0.711  -1.663   0.000  0.00  0.00    +0.000 C 
ATOM     20  C   UNL     1       0.011  -2.049   0.000  0.00  0.00    +0.000 C 
ATOM     21  C   UNL     1       1.504  -2.036   0.000  0.00  0.00    +0.000 C 
ATOM     22  C   UNL     1       1.650  -2.849   0.000  0.00  0.00    +0.000 C 
ATOM     23  C   UNL     1       2.056  -1.475   0.000  0.00  0.00    +0.000 C 
ATOM     24  C   UNL     1       2.030   1.511   0.000  0.00  0.00    +0.000 A 
ATOM     25  C   UNL     1       2.845   1.638   0.000  0.00  0.00    +0.000 C 
ATOM     26  C   UNL     1       1.469   2.062   0.000  0.00  0.00    +0.000 A 
ATOM     27  C   UNL     1      -1.459   2.008   0.000  0.00  0.00    +0.000 C 
ATOM     28  C   UNL     1      -2.039   1.417   0.000  0.00  0.00    +0.000 C 
ATOM     29  C   UNL     1      -2.855   1.542   0.000  0.00  0.00    +0.000 C 
ATOM     30  C   UNL     1      -2.043  -1.511   0.000  0.00  0.00    +0.000 A 
ATOM     31  C   UNL     1      -2.856  -1.650   0.000  0.00  0.00    +0.000 C 
BRANCH  23  32
ATOM     32  C   UNL     1       2.870  -1.606   0.000  0.00  0.00    +0.000 C 
ATOM     33  C   UNL     1       3.164  -2.377   0.000  0.00  0.00    +0.000 C 
ATOM     34  O   UNL     1       3.391  -0.966   0.000  0.00  0.00    +0.000 OA
ENDBRANCH  23  32
BRANCH  26  35
ATOM     35  C   UNL     1       1.594   2.878   0.000  0.00  0.00    +0.000 C 
BRANCH  35  36
ATOM     36  C   UNL     1       2.362   3.177   0.000  0.00  0.00    +0.000 C 
BRANCH  36  37
ATOM     37  C   UNL     1       2.487   3.993   0.000  0.00  0.00    +0.000 C 
ATOM     38  O   UNL     1       3.256   4.292   0.000  0.00  0.00    +0.000 OA
ATOM     39  O   UNL     1       1.844   4.509   0.000  0.00  0.00    +0.000 OA
ENDBRANCH  36  37
ENDBRANCH  35  36
ENDBRANCH  26  35
BRANCH  27  40
ATOM     40  C   UNL     1      -1.605   2.820   0.000  0.00  0.00    +0.000 C 
BRANCH  40  41
ATOM     41  C   UNL     1      -2.381   3.099   0.000  0.00  0.00    +0.000 C 
BRANCH  41  42
ATOM     42  C   UNL     1      -2.526   3.911   0.000  0.00  0.00    +0.000 C 
ATOM     43  O   UNL     1      -1.896   4.444   0.000  0.00  0.00    +0.000 OA
ATOM     44  O   UNL     1      -3.303   4.191   0.000  0.00  0.00    +0.000 OA
ENDBRANCH  41  42
ENDBRANCH  40  41
ENDBRANCH  27  40
ENDBRANCH   2   4
ENDBRANCH   1   2
BRANCH   1  45
ATOM     45  C   UNL     1      -2.471  -4.008   0.000  0.00  0.00    +0.000 C 
ATOM     46  C   UNL     1      -1.820  -4.514   0.000  0.00  0.00    +0.000 C 
BRANCH  45  71
ATOM     47  C   UNL     1      -6.799  -4.477   0.000  0.00  0.00    +0.000 A 
ATOM     48  C   UNL     1      -7.222  -5.141   0.000  0.00  0.00    +0.000 A 
ATOM     49  C   UNL     1      -8.045  -5.200   0.000  0.00  0.00    +0.000 C 
ATOM     50  C   UNL     1      -6.657  -5.795   0.000  0.00  0.00    +0.000 A 
ATOM     51  C   UNL     1      -6.899  -6.599   0.000  0.00  0.00    +0.000 C 
ATOM     52  C   UNL     1      -6.376  -7.203   0.000  0.00  0.00    +0.000 C 
ATOM     53  N   UNL     1      -5.572  -7.175   0.000  0.00  0.00    +0.000 NA
ATOM     54  C   UNL     1      -5.224  -7.937   0.000  0.00  0.00    +0.000 C 
ATOM     55  C   UNL     1      -4.456  -8.157   0.000  0.00  0.00    +0.000 C 
ATOM     56  C   UNL     1      -3.829  -7.599   0.000  0.00  0.00    +0.000 A 
ATOM     57  C   UNL     1      -2.998  -7.835   0.000  0.00  0.00    +0.000 A 
ATOM     58  C   UNL     1      -2.575  -7.171   0.000  0.00  0.00    +0.000 A 
ATOM     59  C   UNL     1      -1.751  -7.125   0.000  0.00  0.00    +0.000 C 
ATOM     60  C   UNL     1      -3.111  -6.510   0.000  0.00  0.00    +0.000 A 
ATOM     61  N   UNL     1      -3.880  -6.830   0.000  0.00  0.00    +0.000 NA
ATOM     62  C   UNL     1      -2.891  -5.742   0.000  0.00  0.00    +0.000 C 
ATOM     63  C   UNL     1      -3.421  -5.109   0.000  0.00  0.00    +0.000 C 
ATOM     64  N   UNL     1      -4.230  -5.109   0.000  0.00  0.00    +0.000 NA
ATOM     65  C   UNL     1      -4.544  -4.369   0.000  0.00  0.00    +0.000 C 
ATOM     66  C   UNL     1      -5.369  -4.161   0.000  0.00  0.00    +0.000 C 
ATOM     67  C   UNL     1      -5.973  -4.685   0.000  0.00  0.00    +0.000 A 
ATOM     68  N   UNL     1      -5.939  -5.517   0.000  0.00  0.00    +0.000 NA
ATOM     69  C   UNL     1      -3.934  -3.874   0.000  0.00  0.00    +0.000 C 
ATOM     70  C   UNL     1      -3.981  -3.050   0.000  0.00  0.00    +0.000 C 
ATOM     71  C   UNL     1      -3.236  -4.319   0.000  0.00  0.00    +0.000 C 
ATOM     72  C   UNL     1      -5.913  -8.480   0.000  0.00  0.00    +0.000 C 
ATOM     73  C   UNL     1      -6.577  -8.057   0.000  0.00  0.00    +0.000 C 
ATOM     74  C   UNL     1      -7.341  -8.367   0.000  0.00  0.00    +0.000 C 
BRANCH  47  76
ATOM     75  C   UNL     1      -6.592  -3.063   0.000  0.00  0.00    +0.000 C 
ATOM     76  C   UNL     1      -7.104  -3.711   0.000  0.00  0.00    +0.000 C 
ATOM     77  O   UNL     1      -7.920  -3.591   0.000  0.00  0.00    +0.000 OA
ENDBRANCH  47  76
BRANCH  57  78
ATOM     78  C   UNL     1      -2.704  -8.606   0.000  0.00  0.00    +0.000 C 
BRANCH  78  79
ATOM     79  C   UNL     1      -1.890  -8.737   0.000  0.00  0.00    +0.000 C 
BRANCH  79  80
ATOM     80  C   UNL     1      -1.597  -9.508   0.000  0.00  0.00    +0.000 C 
ATOM     81  O   UNL     1      -2.118 -10.148   0.000  0.00  0.00    +0.000 OA
ATOM     82  O   UNL     1      -0.782  -9.640   0.000  0.00  0.00    +0.000 OA
ENDBRANCH  79  80
ENDBRANCH  78  79
ENDBRANCH  57  78
BRANCH  72  83
ATOM     83  C   UNL     1      -5.873  -9.304   0.000  0.00  0.00    +0.000 C 
BRANCH  83  84
ATOM     84  C   UNL     1      -5.139  -9.680   0.000  0.00  0.00    +0.000 C 
BRANCH  84  85
ATOM     85  C   UNL     1      -5.098 -10.504   0.000  0.00  0.00    +0.000 C 
ATOM     86  O   UNL     1      -5.791 -10.952   0.000  0.00  0.00    +0.000 OA
ATOM     87  O   UNL     1      -4.364 -10.881   0.000  0.00  0.00    +0.000 OA
ENDBRANCH  84  85
ENDBRANCH  83  84
ENDBRANCH  72  83
ENDBRANCH  45  71
ENDBRANCH   1  45
TORSDOF 18
