REMARK  Name = 
REMARK  7 active torsions:
REMARK  status: ('A' for Active; 'I' for Inactive)
REMARK    1  A    between atoms: C_3  and  C_9
REMARK    2  A    between atoms: C_6  and  C_7
REMARK    3  A    between atoms: N_11  and  C_14
REMARK    4  A    between atoms: C_14  and  C_15
REMARK    5  A    between atoms: C_15  and  N_16
REMARK    6  A    between atoms: C_17  and  C_18
REMARK    7  A    between atoms: C_21  and  C_23
REMARK                            x       y       z     vdW  Elec       q    Type
REMARK                         _______ _______ _______ _____ _____    ______ ____
ROOT
ATOM      1  C   UNL     1      -1.952  -0.405   0.000  0.00  0.00    +0.000 A 
ATOM      2  N   UNL     1      -1.198  -0.739   0.000  0.00  0.00    +0.000 NA
ATOM      3  N   UNL     1      -0.644  -0.126   0.000  0.00  0.00    +0.000 N 
ATOM      4  C   UNL     1      -1.060   0.589   0.000  0.00  0.00    +0.000 A 
ATOM      5  C   UNL     1      -1.866   0.418   0.000  0.00  0.00    +0.000 A 
ENDROOT
BRANCH   1   8
ATOM      6  C   UNL     1      -4.102  -0.816   0.000  0.00  0.00    +0.000 A 
ATOM      7  C   UNL     1      -3.387  -0.405   0.000  0.00  0.00    +0.000 A 
ATOM      8  C   UNL     1      -2.672  -0.816   0.000  0.00  0.00    +0.000 A 
ATOM      9  C   UNL     1      -2.672  -1.646   0.000  0.00  0.00    +0.000 A 
ATOM     10  C   UNL     1      -3.387  -2.057   0.000  0.00  0.00    +0.000 A 
ATOM     11  C   UNL     1      -4.102  -1.646   0.000  0.00  0.00    +0.000 A 
ATOM     12 CL   UNL     1      -4.816  -0.405   0.000  0.00  0.00    +0.000 Cl
BRANCH  11  13
ATOM     13  C   UNL     1      -4.816  -2.057   0.000  0.00  0.00    +0.000 C 
ATOM     14  N   UNL     1      -5.531  -2.472   0.000  0.00  0.00    +0.000 NA
ENDBRANCH  11  13
ENDBRANCH   1   8
BRANCH   3  15
ATOM     15  C   UNL     1       0.174  -0.212   0.000  0.00  0.00    +0.000 C 
BRANCH  15  16
ATOM     16  C   UNL     1       0.663   0.456   0.000  0.00  0.00    +0.000 C 
ATOM     17  C   UNL     1       0.324   1.210   0.000  0.00  0.00    +0.000 C 
BRANCH  16  18
ATOM     18  N   UNL     1       1.482   0.370   0.000  0.00  0.00    +0.000 NA
ATOM     19  C   UNL     1       1.970   1.038   0.000  0.00  0.00    +0.000 C 
ATOM     20  O   UNL     1       1.631   1.796   0.000  0.00  0.00    +0.000 OA
BRANCH  19  21
ATOM     21  C   UNL     1       2.789   0.952   0.000  0.00  0.00    +0.000 A 
ATOM     22  N   UNL     1       3.204   0.237   0.000  0.00  0.00    +0.000 NA
ATOM     23  N   UNL     1       4.011   0.407   0.000  0.00  0.00    +0.000 NA
ATOM     24  C   UNL     1       4.101   1.231   0.000  0.00  0.00    +0.000 A 
ATOM     25  C   UNL     1       3.343   1.565   0.000  0.00  0.00    +0.000 A 
BRANCH  24  26
ATOM     26  C   UNL     1       4.816   1.641   0.000  0.00  0.00    +0.000 C 
ATOM     27  C   UNL     1       5.531   1.231   0.000  0.00  0.00    +0.000 C 
ATOM     28  O   UNL     1       4.816   2.472   0.000  0.00  0.00    +0.000 OA
ENDBRANCH  24  26
ENDBRANCH  19  21
ENDBRANCH  16  18
ENDBRANCH  15  16
ENDBRANCH   3  15
TORSDOF 7
