REMARK  Name = 
REMARK  8 active torsions:
REMARK  status: ('A' for Active; 'I' for Inactive)
REMARK    1  A    between atoms: C_2  and  C_3
REMARK    2  A    between atoms: C_3  and  O_4
REMARK    3  A    between atoms: O_4  and  C_5
REMARK    4  A    between atoms: C_5  and  C_7
REMARK    5  A    between atoms: C_10  and  C_12
REMARK    6  A    between atoms: C_12  and  O_14
REMARK    7  A    between atoms: O_14  and  C_15
REMARK    8  A    between atoms: C_15  and  C_16
REMARK                            x       y       z     vdW  Elec       q    Type
REMARK                         _______ _______ _______ _____ _____    ______ ____
ROOT
ATOM      1  C   UNL     1      -0.476   1.044   0.000  0.00  0.00    +0.000 A 
ATOM      2  C   UNL     1      -0.888   1.759   0.000  0.00  0.00    +0.000 A 
ATOM      3  C   UNL     1      -0.336   2.372   0.000  0.00  0.00    +0.000 A 
ATOM      4  C   UNL     1       0.418   2.036   0.000  0.00  0.00    +0.000 A 
ATOM      5  S   UNL     1       0.331   1.216   0.000  0.00  0.00    +0.000 S 
ATOM      6  O   UNL     1      -0.508   3.179   0.000  0.00  0.00    +0.000 OA
ATOM      7  O   UNL     1      -1.709   1.845   0.000  0.00  0.00    +0.000 OA
ENDROOT
BRANCH   4   8
ATOM      8  C   UNL     1       1.132   2.449   0.000  0.00  0.00    +0.000 C 
ATOM      9  O   UNL     1       1.132   3.274   0.000  0.00  0.00    +0.000 OA
BRANCH   8  10
ATOM     10  O   UNL     1       1.847   2.036   0.000  0.00  0.00    +0.000 OA
BRANCH  10  11
ATOM     11  C   UNL     1       2.561   2.449   0.000  0.00  0.00    +0.000 C 
BRANCH  11  12
ATOM     12  C   UNL     1       3.276   2.036   0.000  0.00  0.00    +0.000 C 
ATOM     13  C   UNL     1       3.990   2.449   0.000  0.00  0.00    +0.000 C 
ENDBRANCH  11  12
ENDBRANCH  10  11
ENDBRANCH   8  10
ENDBRANCH   4   8
BRANCH   1  14
ATOM     14  C   UNL     1      -0.811   0.290   0.000  0.00  0.00    +0.000 C 
ATOM     15  O   UNL     1      -0.326  -0.377   0.000  0.00  0.00    +0.000 OA
BRANCH  14  16
ATOM     16  O   UNL     1      -1.632   0.204   0.000  0.00  0.00    +0.000 OA
BRANCH  16  17
ATOM     17  C   UNL     1      -1.967  -0.549   0.000  0.00  0.00    +0.000 C 
BRANCH  17  19
ATOM     18  C   UNL     1      -3.123  -1.389   0.000  0.00  0.00    +0.000 C 
ATOM     19  C   UNL     1      -2.788  -0.636   0.000  0.00  0.00    +0.000 C 
ENDBRANCH  17  19
ENDBRANCH  16  17
ENDBRANCH  14  16
ENDBRANCH   1  14
TORSDOF 8
