REMARK  Name = 
REMARK  2 active torsions:
REMARK  status: ('A' for Active; 'I' for Inactive)
REMARK    1  A    between atoms: C_4  and  C_14
REMARK    2  A    between atoms: C_14  and  C_26
REMARK                            x       y       z     vdW  Elec       q    Type
REMARK                         _______ _______ _______ _____ _____    ______ ____
ROOT
ATOM      1  C   UNL     1      -1.109  -0.328   0.000  0.00  0.00    +0.000 C 
ATOM      2  C   UNL     1       1.041   0.895   0.000  0.00  0.00    +0.000 C 
ATOM      3  C   UNL     1      -1.109  -1.153   0.000  0.00  0.00    +0.000 C 
ATOM      4  C   UNL     1       1.827   1.143   0.000  0.00  0.00    +0.000 C 
ATOM      5  C   UNL     1      -0.396   0.085   0.000  0.00  0.00    +0.000 C 
ATOM      6  C   UNL     1       0.318  -0.332   0.000  0.00  0.00    +0.000 C 
ATOM      7  C   UNL     1       1.031   0.075   0.000  0.00  0.00    +0.000 C 
ATOM      8  C   UNL     1      -1.822   0.085   0.000  0.00  0.00    +0.000 C 
ATOM      9  C   UNL     1       0.328   1.317   0.000  0.00  0.00    +0.000 C 
ATOM     10  C   UNL     1      -0.391   0.910   0.000  0.00  0.00    +0.000 C 
ATOM     11  C   UNL     1       0.313  -1.157   0.000  0.00  0.00    +0.000 C 
ATOM     12  C   UNL     1      -0.400  -1.565   0.000  0.00  0.00    +0.000 C 
ATOM     13  C   UNL     1      -1.822  -1.565   0.000  0.00  0.00    +0.000 C 
ATOM     14  C   UNL     1       2.303   0.473   0.000  0.00  0.00    +0.000 C 
ATOM     15  C   UNL     1       1.813  -0.192   0.000  0.00  0.00    +0.000 C 
ATOM     16  C   UNL     1      -2.531  -0.328   0.000  0.00  0.00    +0.000 C 
ATOM     17  C   UNL     1      -2.531  -1.153   0.000  0.00  0.00    +0.000 C 
ATOM     18  O   UNL     1      -3.249  -1.560   0.000  0.00  0.00    +0.000 OA
ATOM     19  O   UNL     1       2.541   1.565   0.000  0.00  0.00    +0.000 OA
ATOM     20  C   UNL     1      -1.114   0.502   0.000  0.00  0.00    +0.000 C 
ATOM     21  C   UNL     1       1.036   1.725   0.000  0.00  0.00    +0.000 C 
ATOM     22  F   UNL     1      -0.405  -2.390   0.000  0.00  0.00    +0.000 F 
ATOM     23  O   UNL     1      -1.104   1.327   0.000  0.00  0.00    +0.000 OA
ENDROOT
BRANCH   4  24
ATOM     24  C   UNL     1       1.822   1.973   0.000  0.00  0.00    +0.000 C 
ATOM     25  O   UNL     1       1.104   2.376   0.000  0.00  0.00    +0.000 OA
BRANCH  24  26
ATOM     26  C   UNL     1       2.531   2.390   0.000  0.00  0.00    +0.000 C 
ATOM     27  O   UNL     1       3.249   1.982   0.000  0.00  0.00    +0.000 OA
ENDBRANCH  24  26
ENDBRANCH   4  24
TORSDOF 2
