REMARK  Name = 
REMARK  7 active torsions:
REMARK  status: ('A' for Active; 'I' for Inactive)
REMARK    1  A    between atoms: C_1  and  C_2
REMARK    2  A    between atoms: C_1  and  C_34
REMARK    3  A    between atoms: C_2  and  C_3
REMARK    4  A    between atoms: C_3  and  C_4
REMARK    5  A    between atoms: C_5  and  O_28
REMARK    6  A    between atoms: C_17  and  O_21
REMARK    7  A    between atoms: C_36  and  C_39
REMARK                            x       y       z     vdW  Elec       q    Type
REMARK                         _______ _______ _______ _____ _____    ______ ____
ROOT
ATOM      1  C   UNL     1       0.055   0.792   0.000  0.00  0.00    +0.000 C 
ATOM      2  C   UNL     1      -0.657   1.220   0.000  0.00  0.00    +0.000 C 
ATOM      3  C   UNL     1      -1.369   0.808   0.000  0.00  0.00    +0.000 C 
ATOM      4  C   UNL     1      -2.075   1.235   0.000  0.00  0.00    +0.000 C 
ATOM      5  C   UNL     1      -2.790   0.823   0.000  0.00  0.00    +0.000 C 
ATOM      6  C   UNL     1      -3.499   1.254   0.000  0.00  0.00    +0.000 C 
ATOM      7  C   UNL     1      -4.217   0.848   0.000  0.00  0.00    +0.000 C 
ATOM      8  C   UNL     1      -4.068   0.065   0.000  0.00  0.00    +0.000 C 
ATOM      9  C   UNL     1      -4.198  -0.805   0.000  0.00  0.00    +0.000 C 
ATOM     10  C   UNL     1      -3.511  -1.204   0.000  0.00  0.00    +0.000 C 
ATOM     11  C   UNL     1      -2.833  -0.799   0.000  0.00  0.00    +0.000 C 
ATOM     12  C   UNL     1      -2.149  -1.198   0.000  0.00  0.00    +0.000 C 
ATOM     13  C   UNL     1      -1.471  -0.792   0.000  0.00  0.00    +0.000 C 
ATOM     14  C   UNL     1      -0.787  -1.189   0.000  0.00  0.00    +0.000 C 
ATOM     15  C   UNL     1      -0.109  -0.786   0.000  0.00  0.00    +0.000 C 
ATOM     16  O   UNL     1       0.148   0.084   0.000  0.00  0.00    +0.000 OA
ATOM     17  O   UNL     1       0.575  -1.183   0.000  0.00  0.00    +0.000 OA
ATOM     18  C   UNL     1      -2.149  -1.950   0.000  0.00  0.00    +0.000 C 
ATOM     19  C   UNL     1      -3.468  -1.950   0.000  0.00  0.00    +0.000 C 
ATOM     20  O   UNL     1      -4.901  -1.207   0.000  0.00  0.00    +0.000 OA
ATOM     21  C   UNL     1      -5.059   0.065   0.000  0.00  0.00    +0.000 C 
ATOM     22  C   UNL     1      -3.499   1.975   0.000  0.00  0.00    +0.000 C 
ENDROOT
BRANCH   1  23
ATOM     23  C   UNL     1       0.764   1.204   0.000  0.00  0.00    +0.000 C 
ATOM     24  C   UNL     1       0.764   2.080   0.000  0.00  0.00    +0.000 C 
BRANCH  23  25
ATOM     25  C   UNL     1       1.473   0.777   0.000  0.00  0.00    +0.000 C 
ATOM     26  O   UNL     1       1.473   0.084   0.000  0.00  0.00    +0.000 OA
BRANCH  25  27
ATOM     27  C   UNL     1       2.184   1.189   0.000  0.00  0.00    +0.000 C 
ATOM     28  C   UNL     1       2.184   1.975   0.000  0.00  0.00    +0.000 C 
BRANCH  27  30
ATOM     29  C   UNL     1       3.629   1.168   0.000  0.00  0.00    +0.000 C 
ATOM     30  C   UNL     1       2.915   0.755   0.000  0.00  0.00    +0.000 C 
ATOM     31  O   UNL     1       2.915  -0.070   0.000  0.00  0.00    +0.000 OA
ATOM     32  C   UNL     1       3.629  -0.482   0.000  0.00  0.00    +0.000 C 
ATOM     33  C   UNL     1       4.344  -0.070   0.000  0.00  0.00    +0.000 C 
ATOM     34  C   UNL     1       4.344   0.755   0.000  0.00  0.00    +0.000 C 
ATOM     35  C   UNL     1       5.059  -0.482   0.000  0.00  0.00    +0.000 C 
ATOM     36  O   UNL     1       5.059   1.168   0.000  0.00  0.00    +0.000 OA
ATOM     37  O   UNL     1       2.915   1.580   0.000  0.00  0.00    +0.000 OA
BRANCH  32  38
ATOM     38  C   UNL     1       3.629  -1.308   0.000  0.00  0.00    +0.000 C 
ATOM     39  C   UNL     1       4.344  -1.720   0.000  0.00  0.00    +0.000 C 
ATOM     40  C   UNL     1       2.915  -1.720   0.000  0.00  0.00    +0.000 C 
ENDBRANCH  32  38
ENDBRANCH  27  30
ENDBRANCH  25  27
ENDBRANCH  23  25
ENDBRANCH   1  23
BRANCH   2  41
ATOM     41  O   UNL     1      -0.657   2.037   0.000  0.00  0.00    +0.000 OA
ATOM     42  C   UNL     1       0.117   2.461   0.000  0.00  0.00    +0.000 C 
ENDBRANCH   2  41
BRANCH  14  43
ATOM     43  O   UNL     1      -0.787  -1.950   0.000  0.00  0.00    +0.000 OA
ATOM     44  C   UNL     1      -0.013  -2.461   0.000  0.00  0.00    +0.000 C 
ENDBRANCH  14  43
TORSDOF 7
