REMARK  Name = 
REMARK  15 active torsions:
REMARK  status: ('A' for Active; 'I' for Inactive)
REMARK    1  A    between atoms: P_1  and  C_2
REMARK    2  A    between atoms: P_1  and  O_19
REMARK    3  A    between atoms: P_1  and  O_21
REMARK    4  A    between atoms: C_2  and  O_3
REMARK    5  A    between atoms: O_3  and  C_4
REMARK    6  A    between atoms: C_4  and  C_7
REMARK    7  A    between atoms: C_7  and  N_10
REMARK    8  A    between atoms: C_18  and  O_19
REMARK    9  A    between atoms: C_18  and  O_26
REMARK   10  A    between atoms: C_20  and  O_21
REMARK   11  A    between atoms: C_20  and  O_33
REMARK   12  A    between atoms: C_22  and  C_23
REMARK   13  A    between atoms: C_22  and  O_26
REMARK   14  A    between atoms: C_29  and  C_30
REMARK   15  A    between atoms: C_29  and  O_33
REMARK                            x       y       z     vdW  Elec       q    Type
REMARK                         _______ _______ _______ _____ _____    ______ ____
ROOT
ATOM      1  P   UNL     1       0.000   1.828   0.000  0.00  0.00    +0.000 P 
ATOM      2  O   UNL     1       0.000   2.655   0.000  0.00  0.00    +0.000 OA
ENDROOT
BRANCH   1   3
ATOM      3  O   UNL     1      -0.714   2.241   0.000  0.00  0.00    +0.000 OA
BRANCH   3   4
ATOM      4  C   UNL     1      -1.429   1.828   0.000  0.00  0.00    +0.000 C 
BRANCH   4   5
ATOM      5  O   UNL     1      -2.143   2.241   0.000  0.00  0.00    +0.000 OA
BRANCH   5   6
ATOM      6  C   UNL     1      -2.858   1.828   0.000  0.00  0.00    +0.000 C 
ATOM      7  O   UNL     1      -2.858   1.003   0.000  0.00  0.00    +0.000 OA
BRANCH   6   8
ATOM      8  C   UNL     1      -3.572   2.241   0.000  0.00  0.00    +0.000 C 
ATOM      9  C   UNL     1      -3.572   3.066   0.000  0.00  0.00    +0.000 C 
ATOM     10  C   UNL     1      -4.287   2.653   0.000  0.00  0.00    +0.000 C 
ATOM     11  C   UNL     1      -4.287   1.828   0.000  0.00  0.00    +0.000 C 
ENDBRANCH   6   8
ENDBRANCH   5   6
ENDBRANCH   4   5
ENDBRANCH   3   4
ENDBRANCH   1   3
BRANCH   1  12
ATOM     12  O   UNL     1       0.714   2.241   0.000  0.00  0.00    +0.000 OA
BRANCH  12  13
ATOM     13  C   UNL     1       1.429   1.828   0.000  0.00  0.00    +0.000 C 
BRANCH  13  14
ATOM     14  O   UNL     1       2.143   2.241   0.000  0.00  0.00    +0.000 OA
BRANCH  14  15
ATOM     15  C   UNL     1       2.858   1.828   0.000  0.00  0.00    +0.000 C 
ATOM     16  O   UNL     1       2.858   1.003   0.000  0.00  0.00    +0.000 OA
BRANCH  15  17
ATOM     17  C   UNL     1       3.572   2.241   0.000  0.00  0.00    +0.000 C 
ATOM     18  C   UNL     1       4.287   1.828   0.000  0.00  0.00    +0.000 C 
ATOM     19  C   UNL     1       4.287   2.653   0.000  0.00  0.00    +0.000 C 
ATOM     20  C   UNL     1       3.572   3.066   0.000  0.00  0.00    +0.000 C 
ENDBRANCH  15  17
ENDBRANCH  14  15
ENDBRANCH  13  14
ENDBRANCH  12  13
ENDBRANCH   1  12
BRANCH   1  21
ATOM     21  C   UNL     1       0.000   1.003   0.000  0.00  0.00    +0.000 C 
BRANCH  21  22
ATOM     22  O   UNL     1      -0.714   0.591   0.000  0.00  0.00    +0.000 OA
BRANCH  22  23
ATOM     23  C   UNL     1      -0.714  -0.234   0.000  0.00  0.00    +0.000 C 
ATOM     24  C   UNL     1      -1.429  -0.647   0.000  0.00  0.00    +0.000 C 
ATOM     25  C   UNL     1      -0.714  -1.059   0.000  0.00  0.00    +0.000 C 
BRANCH  23  26
ATOM     26  C   UNL     1       0.000   0.178   0.000  0.00  0.00    +0.000 C 
BRANCH  26  29
ATOM     27  N   UNL     1       2.020  -0.512   0.000  0.00  0.00    +0.000 NA
ATOM     28  C   UNL     1       1.468   0.101   0.000  0.00  0.00    +0.000 A 
ATOM     29  N   UNL     1       0.714  -0.234   0.000  0.00  0.00    +0.000 N 
ATOM     30  C   UNL     1       0.801  -1.055   0.000  0.00  0.00    +0.000 A 
ATOM     31  N   UNL     1       0.249  -1.668   0.000  0.00  0.00    +0.000 NA
ATOM     32  C   UNL     1       0.503  -2.453   0.000  0.00  0.00    +0.000 A 
ATOM     33  N   UNL     1       1.310  -2.624   0.000  0.00  0.00    +0.000 NA
ATOM     34  C   UNL     1       1.863  -2.011   0.000  0.00  0.00    +0.000 A 
ATOM     35  C   UNL     1       1.608  -1.226   0.000  0.00  0.00    +0.000 A 
ATOM     36  N   UNL     1      -0.048  -3.066   0.000  0.00  0.00    +0.000 NA
ENDBRANCH  26  29
ENDBRANCH  23  26
ENDBRANCH  22  23
ENDBRANCH  21  22
ENDBRANCH   1  21
TORSDOF 15
