REMARK  Name = 
REMARK  2 active torsions:
REMARK  status: ('A' for Active; 'I' for Inactive)
REMARK    1  A    between atoms: N_1  and  O_3
REMARK    2  A    between atoms: O_3  and  C_4
REMARK                            x       y       z     vdW  Elec       q    Type
REMARK                         _______ _______ _______ _____ _____    ______ ____
ROOT
ATOM      1  O   UNL     1       0.000  -0.207   0.000  0.00  0.00    +0.000 OA
ENDROOT
BRANCH   1   2
ATOM      2  N   UNL     1       0.714   0.207   0.000  0.00  0.00    +0.000 NA
ATOM      3  O   UNL     1       1.428  -0.207   0.000  0.00  0.00    +0.000 OA
ENDBRANCH   1   2
BRANCH   1   4
ATOM      4  C   UNL     1      -0.714   0.207   0.000  0.00  0.00    +0.000 C 
ATOM      5  C   UNL     1      -1.428  -0.207   0.000  0.00  0.00    +0.000 C 
ENDBRANCH   1   4
TORSDOF 2
