REMARK  Name = 
REMARK  2 active torsions:
REMARK  status: ('A' for Active; 'I' for Inactive)
REMARK    1  A    between atoms: C_11  and  C_18
REMARK    2  A    between atoms: C_18  and  C_22
REMARK                            x       y       z     vdW  Elec       q    Type
REMARK                         _______ _______ _______ _____ _____    ______ ____
ROOT
ATOM      1  C   UNL     1       7.936  -1.344   0.000  0.00  0.00    +0.000 C 
ATOM      2  C   UNL     1       3.950   0.096   0.000  0.00  0.00    +0.000 C 
ATOM      3  C   UNL     1       6.466   0.498   0.000  0.00  0.00    +0.000 C 
ATOM      4  C   UNL     1       3.921  -2.086   0.000  0.00  0.00    +0.000 C 
ATOM      5  C   UNL     1       4.734  -1.941   0.000  0.00  0.00    +0.000 C 
ATOM      6  C   UNL     1       2.326  -0.194   0.000  0.00  0.00    +0.000 C 
ATOM      7  C   UNL     1       3.138  -0.049   0.000  0.00  0.00    +0.000 C 
ATOM      8  C   UNL     1       6.477  -1.526   0.000  0.00  0.00    +0.000 C 
ATOM      9  C   UNL     1       2.578  -1.601   0.000  0.00  0.00    +0.000 C 
ATOM     10  C   UNL     1       5.574   0.387   0.000  0.00  0.00    +0.000 C 
ATOM     11  C   UNL     1       7.160  -1.063   0.000  0.00  0.00    +0.000 C 
ATOM     12  C   UNL     1       3.390  -1.456   0.000  0.00  0.00    +0.000 C 
ATOM     13  C   UNL     1       2.046  -0.970   0.000  0.00  0.00    +0.000 C 
ATOM     14  C   UNL     1       5.014  -1.165   0.000  0.00  0.00    +0.000 C 
ATOM     15  C   UNL     1       5.826  -1.020   0.000  0.00  0.00    +0.000 C 
ATOM     16  C   UNL     1       4.762   0.241   0.000  0.00  0.00    +0.000 C 
ATOM     17  C   UNL     1       3.670  -0.680   0.000  0.00  0.00    +0.000 C 
ATOM     18  C   UNL     1       6.106  -0.244   0.000  0.00  0.00    +0.000 C 
ATOM     19  C   UNL     1       4.482  -0.535   0.000  0.00  0.00    +0.000 C 
ATOM     20  C   UNL     1       6.931  -0.271   0.000  0.00  0.00    +0.000 C 
ATOM     21  F   UNL     1       4.423   0.288   0.000  0.00  0.00    +0.000 F 
ATOM     22  O   UNL     1       1.234  -1.115   0.000  0.00  0.00    +0.000 OA
ATOM     23  O   UNL     1       4.231   0.872   0.000  0.00  0.00    +0.000 OA
ATOM     24  O   UNL     1       6.871   0.552   0.000  0.00  0.00    +0.000 OA
ENDROOT
BRANCH  20  25
ATOM     25  C   UNL     1       7.743  -0.126   0.000  0.00  0.00    +0.000 C 
ATOM     26  O   UNL     1       8.275  -0.756   0.000  0.00  0.00    +0.000 OA
BRANCH  25  27
ATOM     27  C   UNL     1       8.023   0.650   0.000  0.00  0.00    +0.000 C 
ATOM     28 CL   UNL     1       7.492   1.281   0.000  0.00  0.00    +0.000 Cl
ENDBRANCH  25  27
ENDBRANCH  20  25
TORSDOF 2
