REMARK  Name = 
REMARK  11 active torsions:
REMARK  status: ('A' for Active; 'I' for Inactive)
REMARK    1  A    between atoms: C_6  and  N_7
REMARK    2  A    between atoms: N_7  and  C_8
REMARK    3  A    between atoms: C_8  and  C_9
REMARK    4  A    between atoms: C_9  and  N_10
REMARK    5  A    between atoms: N_10  and  C_11
REMARK    6  A    between atoms: N_10  and  C_14
REMARK    7  A    between atoms: C_11  and  C_12
REMARK    8  A    between atoms: C_14  and  C_15
REMARK    9  A    between atoms: C_15  and  C_16
REMARK   10  A    between atoms: C_16  and  C_17
REMARK   11  A    between atoms: C_20  and  N_23
REMARK                            x       y       z     vdW  Elec       q    Type
REMARK                         _______ _______ _______ _____ _____    ______ ____
ROOT
ATOM      1  N   UNL     1       5.001  -5.362   0.000  0.00  0.00    +0.000 NA
ENDROOT
BRANCH   1   2
ATOM      2  C   UNL     1       5.001  -6.188   0.000  0.00  0.00    +0.000 C 
BRANCH   2   3
ATOM      3  C   UNL     1       5.716  -6.600   0.000  0.00  0.00    +0.000 C 
ATOM      4  O   UNL     1       5.716  -7.425   0.000  0.00  0.00    +0.000 OA
ENDBRANCH   2   3
ENDBRANCH   1   2
BRANCH   1   5
ATOM      5  C   UNL     1       4.287  -4.950   0.000  0.00  0.00    +0.000 C 
BRANCH   5   6
ATOM      6  C   UNL     1       3.572  -5.362   0.000  0.00  0.00    +0.000 C 
BRANCH   6   7
ATOM      7  N   UNL     1       2.858  -4.950   0.000  0.00  0.00    +0.000 NA
BRANCH   7  13
ATOM      8  C   UNL     1       0.000  -6.600   0.000  0.00  0.00    +0.000 C 
ATOM      9  N   UNL     1       0.715  -6.188   0.000  0.00  0.00    +0.000 N 
ATOM     10  C   UNL     1       0.715  -5.362   0.000  0.00  0.00    +0.000 A 
ATOM     11  O   UNL     1       0.000  -4.950   0.000  0.00  0.00    +0.000 OA
ATOM     12  C   UNL     1       1.429  -4.950   0.000  0.00  0.00    +0.000 A 
ATOM     13  C   UNL     1       2.143  -5.362   0.000  0.00  0.00    +0.000 A 
ATOM     14  N   UNL     1       2.143  -6.188   0.000  0.00  0.00    +0.000 N 
ATOM     15  C   UNL     1       2.858  -6.600   0.000  0.00  0.00    +0.000 C 
ATOM     16  C   UNL     1       1.429  -6.600   0.000  0.00  0.00    +0.000 A 
ATOM     17  O   UNL     1       1.429  -7.425   0.000  0.00  0.00    +0.000 OA
ENDBRANCH   7  13
ENDBRANCH   6   7
ENDBRANCH   5   6
ENDBRANCH   1   5
BRANCH   1  18
ATOM     18  C   UNL     1       5.716  -4.950   0.000  0.00  0.00    +0.000 C 
BRANCH  18  19
ATOM     19  C   UNL     1       6.430  -5.362   0.000  0.00  0.00    +0.000 C 
BRANCH  19  20
ATOM     20  C   UNL     1       7.145  -4.950   0.000  0.00  0.00    +0.000 C 
BRANCH  20  21
ATOM     21  C   UNL     1       7.859  -5.362   0.000  0.00  0.00    +0.000 A 
ATOM     22  C   UNL     1       8.574  -4.950   0.000  0.00  0.00    +0.000 A 
ATOM     23  C   UNL     1       9.288  -5.362   0.000  0.00  0.00    +0.000 A 
ATOM     24  C   UNL     1       9.288  -6.188   0.000  0.00  0.00    +0.000 A 
ATOM     25  C   UNL     1       8.574  -6.600   0.000  0.00  0.00    +0.000 A 
ATOM     26  C   UNL     1       7.859  -6.188   0.000  0.00  0.00    +0.000 A 
BRANCH  24  27
ATOM     27  N   UNL     1      10.003  -6.600   0.000  0.00  0.00    +0.000 N 
ATOM     28  O   UNL     1      10.717  -6.188   0.000  0.00  0.00    +0.000 OA
ATOM     29  O   UNL     1      10.003  -7.425   0.000  0.00  0.00    +0.000 OA
ENDBRANCH  24  27
ENDBRANCH  20  21
ENDBRANCH  19  20
ENDBRANCH  18  19
ENDBRANCH   1  18
TORSDOF 11
