REMARK  Name = 
REMARK  11 active torsions:
REMARK  status: ('A' for Active; 'I' for Inactive)
REMARK    1  A    between atoms: C_1  and  C_3
REMARK    2  A    between atoms: C_2  and  C_6
REMARK    3  A    between atoms: C_6  and  C_40
REMARK    4  A    between atoms: C_8  and  C_12
REMARK    5  A    between atoms: C_10  and  C_14
REMARK    6  A    between atoms: C_14  and  C_18
REMARK    7  A    between atoms: C_15  and  C_19
REMARK    8  A    between atoms: C_18  and  C_22
REMARK    9  A    between atoms: C_20  and  C_25
REMARK   10  A    between atoms: C_34  and  C_37
REMARK   11  A    between atoms: C_40  and  C_41
REMARK                            x       y       z     vdW  Elec       q    Type
REMARK                         _______ _______ _______ _____ _____    ______ ____
ROOT
ATOM      1  C   UNL     1      15.173 -10.980   0.000  0.00  0.00    +0.000 C 
ATOM      2  C   UNL     1      14.460 -10.570   0.000  0.00  0.00    +0.000 C 
ATOM      3  C   UNL     1      13.791 -11.056   0.000  0.00  0.00    +0.000 C 
ATOM      4  N   UNL     1      14.257  -9.754   0.000  0.00  0.00    +0.000 NA
ATOM      5  C   UNL     1      13.116 -10.563   0.000  0.00  0.00    +0.000 C 
ATOM      6  C   UNL     1      13.378  -9.771   0.000  0.00  0.00    +0.000 C 
ATOM      7  C   UNL     1      12.331 -10.815   0.000  0.00  0.00    +0.000 C 
ENDROOT
BRANCH   6   8
ATOM      8  C   UNL     1      12.961  -9.044   0.000  0.00  0.00    +0.000 C 
ATOM      9  C   UNL     1      13.381  -8.328   0.000  0.00  0.00    +0.000 C 
ATOM     10  C   UNL     1      13.130  -7.539   0.000  0.00  0.00    +0.000 C 
ATOM     11  N   UNL     1      14.212  -8.328   0.000  0.00  0.00    +0.000 NA
ATOM     12  C   UNL     1      13.798  -7.056   0.000  0.00  0.00    +0.000 C 
ATOM     13  C   UNL     1      12.351  -7.277   0.000  0.00  0.00    +0.000 C 
ATOM     14  C   UNL     1      14.463  -7.539   0.000  0.00  0.00    +0.000 C 
ATOM     15  O   UNL     1      14.918  -6.898   0.000  0.00  0.00    +0.000 OA
BRANCH  12  16
ATOM     16  C   UNL     1      13.802  -6.229   0.000  0.00  0.00    +0.000 C 
ATOM     17  C   UNL     1      14.518  -5.823   0.000  0.00  0.00    +0.000 C 
ENDBRANCH  12  16
ENDBRANCH   6   8
BRANCH   1  18
ATOM     18  C   UNL     1      15.886 -10.567   0.000  0.00  0.00    +0.000 A 
ATOM     19  C   UNL     1      16.558 -11.053   0.000  0.00  0.00    +0.000 A 
ATOM     20  N   UNL     1      16.134  -9.774   0.000  0.00  0.00    +0.000 NA
ATOM     21  C   UNL     1      17.233 -10.560   0.000  0.00  0.00    +0.000 A 
ATOM     22  C   UNL     1      16.974  -9.761   0.000  0.00  0.00    +0.000 A 
ATOM     23  C   UNL     1      18.018 -10.811   0.000  0.00  0.00    +0.000 C 
BRANCH  22  24
ATOM     24  C   UNL     1      17.388  -9.041   0.000  0.00  0.00    +0.000 C 
ATOM     25  C   UNL     1      16.968  -8.321   0.000  0.00  0.00    +0.000 C 
ATOM     26  C   UNL     1      17.219  -7.532   0.000  0.00  0.00    +0.000 C 
ATOM     27  N   UNL     1      16.134  -8.321   0.000  0.00  0.00    +0.000 NA
ATOM     28  C   UNL     1      16.547  -7.053   0.000  0.00  0.00    +0.000 C 
ATOM     29  C   UNL     1      15.889  -7.532   0.000  0.00  0.00    +0.000 C 
ATOM     30  C   UNL     1      16.547  -6.226   0.000  0.00  0.00    +0.000 C 
ATOM     31  O   UNL     1      15.414  -6.926   0.000  0.00  0.00    +0.000 OA
BRANCH  26  32
ATOM     32  C   UNL     1      18.001  -7.273   0.000  0.00  0.00    +0.000 C 
ATOM     33  C   UNL     1      18.618  -7.825   0.000  0.00  0.00    +0.000 C 
ENDBRANCH  26  32
ENDBRANCH  22  24
BRANCH  19  34
ATOM     34  C   UNL     1      16.561 -11.876   0.000  0.00  0.00    +0.000 C 
BRANCH  34  35
ATOM     35  C   UNL     1      17.277 -12.285   0.000  0.00  0.00    +0.000 C 
BRANCH  35  36
ATOM     36  C   UNL     1      17.280 -13.109   0.000  0.00  0.00    +0.000 C 
ATOM     37  O   UNL     1      17.996 -13.518   0.000  0.00  0.00    +0.000 OA
ATOM     38  O   UNL     1      16.568 -13.524   0.000  0.00  0.00    +0.000 OA
ENDBRANCH  35  36
ENDBRANCH  34  35
ENDBRANCH  19  34
ENDBRANCH   1  18
BRANCH   3  39
ATOM     39  C   UNL     1      13.791 -11.879   0.000  0.00  0.00    +0.000 C 
BRANCH  39  40
ATOM     40  C   UNL     1      13.082 -12.293   0.000  0.00  0.00    +0.000 C 
BRANCH  40  41
ATOM     41  C   UNL     1      13.082 -13.116   0.000  0.00  0.00    +0.000 C 
ATOM     42  O   UNL     1      12.369 -13.529   0.000  0.00  0.00    +0.000 OA
ATOM     43  O   UNL     1      13.795 -13.526   0.000  0.00  0.00    +0.000 OA
ENDBRANCH  40  41
ENDBRANCH  39  40
ENDBRANCH   3  39
TORSDOF 11
