REMARK  Name = 
REMARK  4 active torsions:
REMARK  status: ('A' for Active; 'I' for Inactive)
REMARK    1  A    between atoms: C_7  and  C_8
REMARK    2  A    between atoms: C_8  and  N_9
REMARK    3  A    between atoms: N_18  and  C_19
REMARK    4  A    between atoms: C_19  and  C_20
REMARK                            x       y       z     vdW  Elec       q    Type
REMARK                         _______ _______ _______ _____ _____    ______ ____
ROOT
ATOM      1  N   UNL     1       2.408  -0.964   0.000  0.00  0.00    +0.000 N 
ATOM      2  C   UNL     1       2.798  -0.237   0.000  0.00  0.00    +0.000 C 
ATOM      3  N   UNL     1       3.599  -0.041   0.000  0.00  0.00    +0.000 NA
ATOM      4  C   UNL     1       3.660   0.782   0.000  0.00  0.00    +0.000 C 
ATOM      5  C   UNL     1       2.896   1.094   0.000  0.00  0.00    +0.000 C 
ATOM      6  N   UNL     1       2.364   0.464   0.000  0.00  0.00    +0.000 N 
ATOM      7  C   UNL     1       1.539   0.438   0.000  0.00  0.00    +0.000 C 
ATOM      8  C   UNL     1       1.149  -0.289   0.000  0.00  0.00    +0.000 C 
ATOM      9  C   UNL     1       0.325  -0.315   0.000  0.00  0.00    +0.000 C 
ATOM     10  N   UNL     1      -0.110   0.387   0.000  0.00  0.00    +0.000 NA
ATOM     11  C   UNL     1       0.280   1.114   0.000  0.00  0.00    +0.000 C 
ATOM     12  C   UNL     1       1.105   1.139   0.000  0.00  0.00    +0.000 C 
ATOM     13  C   UNL     1       1.584  -0.990   0.000  0.00  0.00    +0.000 C 
ATOM     14  O   UNL     1       1.194  -1.717   0.000  0.00  0.00    +0.000 OA
ENDROOT
BRANCH   1  15
ATOM     15  C   UNL     1       2.843  -1.665   0.000  0.00  0.00    +0.000 C 
BRANCH  15  22
ATOM     16  C   UNL     1       3.712  -3.068   0.000  0.00  0.00    +0.000 C 
ATOM     17  C   UNL     1       4.102  -2.341   0.000  0.00  0.00    +0.000 A 
ATOM     18  C   UNL     1       4.927  -2.315   0.000  0.00  0.00    +0.000 A 
ATOM     19  C   UNL     1       5.317  -1.588   0.000  0.00  0.00    +0.000 A 
ATOM     20  C   UNL     1       4.882  -0.887   0.000  0.00  0.00    +0.000 A 
ATOM     21  C   UNL     1       4.058  -0.913   0.000  0.00  0.00    +0.000 A 
ATOM     22  C   UNL     1       3.667  -1.640   0.000  0.00  0.00    +0.000 A 
ENDBRANCH  15  22
ENDBRANCH   1  15
BRANCH  10  23
ATOM     23  C   UNL     1      -0.935   0.361   0.000  0.00  0.00    +0.000 C 
BRANCH  23  24
ATOM     24  C   UNL     1      -1.369   1.062   0.000  0.00  0.00    +0.000 A 
ATOM     25  C   UNL     1      -2.194   1.036   0.000  0.00  0.00    +0.000 A 
ATOM     26  C   UNL     1      -2.628   1.738   0.000  0.00  0.00    +0.000 A 
ATOM     27  C   UNL     1      -2.239   2.465   0.000  0.00  0.00    +0.000 A 
ATOM     28  C   UNL     1      -1.414   2.490   0.000  0.00  0.00    +0.000 A 
ATOM     29  C   UNL     1      -0.979   1.789   0.000  0.00  0.00    +0.000 A 
ENDBRANCH  23  24
ENDBRANCH  10  23
TORSDOF 4
