REMARK  Name = 
REMARK  2 active torsions:
REMARK  status: ('A' for Active; 'I' for Inactive)
REMARK    1  A    between atoms: N_4  and  N_5
REMARK    2  A    between atoms: C_6  and  C_7
REMARK                            x       y       z     vdW  Elec       q    Type
REMARK                         _______ _______ _______ _____ _____    ______ ____
ROOT
ATOM      1  C   UNL     1       0.715   1.238   0.000  0.00  0.00    +0.000 A 
ATOM      2  C   UNL     1       1.429   0.825   0.000  0.00  0.00    +0.000 A 
ATOM      3  C   UNL     1       1.429   0.000   0.000  0.00  0.00    +0.000 A 
ATOM      4  C   UNL     1       0.715  -0.412   0.000  0.00  0.00    +0.000 A 
ATOM      5  C   UNL     1       0.000   0.000   0.000  0.00  0.00    +0.000 A 
ATOM      6  C   UNL     1       0.000   0.825   0.000  0.00  0.00    +0.000 A 
ATOM      7 CL   UNL     1      -0.715   1.238   0.000  0.00  0.00    +0.000 Cl
ENDROOT
BRANCH   1   9
ATOM      8  N   UNL     1       0.000   2.475   0.000  0.00  0.00    +0.000 NA
ATOM      9  C   UNL     1       0.715   2.062   0.000  0.00  0.00    +0.000 C 
BRANCH   8  13
ATOM     10  N   UNL     1      -0.715   4.537   0.000  0.00  0.00    +0.000 NA
ATOM     11  C   UNL     1      -0.715   3.712   0.000  0.00  0.00    +0.000 C 
ATOM     12  N   UNL     1      -1.429   3.300   0.000  0.00  0.00    +0.000 NA
ATOM     13  N   UNL     1       0.000   3.300   0.000  0.00  0.00    +0.000 NA
ENDBRANCH   8  13
ENDBRANCH   1   9
TORSDOF 2
