REMARK  Name = 
REMARK  4 active torsions:
REMARK  status: ('A' for Active; 'I' for Inactive)
REMARK    1  A    between atoms: C_2  and  C_6
REMARK    2  A    between atoms: C_3  and  C_4
REMARK    3  A    between atoms: C_4  and  C_6
REMARK    4  A    between atoms: C_5  and  C_7
REMARK                            x       y       z     vdW  Elec       q    Type
REMARK                         _______ _______ _______ _____ _____    ______ ____
ROOT
ATOM      1  C   UNL     1       0.000  -0.619   0.000  0.00  0.00    +0.000 C 
ENDROOT
BRANCH   1   2
ATOM      2  C   UNL     1       0.715  -0.206   0.000  0.00  0.00    +0.000 C 
ATOM      3  C   UNL     1       1.429  -0.619   0.000  0.00  0.00    +0.000 C 
ATOM      4  C   UNL     1       0.714   0.619   0.000  0.00  0.00    +0.000 C 
BRANCH   3   5
ATOM      5  C   UNL     1       2.144  -0.206   0.000  0.00  0.00    +0.000 C 
ATOM      6  O   UNL     1       2.858  -0.619   0.000  0.00  0.00    +0.000 OA
ENDBRANCH   3   5
ENDBRANCH   1   2
BRANCH   1   7
ATOM      7  C   UNL     1      -0.715  -0.206   0.000  0.00  0.00    +0.000 C 
BRANCH   7   9
ATOM      8  C   UNL     1      -2.144  -0.206   0.000  0.00  0.00    +0.000 C 
ATOM      9  C   UNL     1      -1.429  -0.619   0.000  0.00  0.00    +0.000 C 
ATOM     10  C   UNL     1      -2.858  -0.619   0.000  0.00  0.00    +0.000 C 
ATOM     11  C   UNL     1      -2.144   0.619   0.000  0.00  0.00    +0.000 C 
ENDBRANCH   7   9
ENDBRANCH   1   7
TORSDOF 4
