REMARK  Name = 
REMARK  6 active torsions:
REMARK  status: ('A' for Active; 'I' for Inactive)
REMARK    1  A    between atoms: N_4  and  C_15
REMARK    2  A    between atoms: C_5  and  C_22
REMARK    3  A    between atoms: C_6  and  C_8
REMARK    4  A    between atoms: C_8  and  O_9
REMARK    5  A    between atoms: C_15  and  C_16
REMARK    6  A    between atoms: C_16  and  C_17
REMARK                            x       y       z     vdW  Elec       q    Type
REMARK                         _______ _______ _______ _____ _____    ______ ____
ROOT
ATOM      1  C   UNL     1       0.169  -1.539   0.000  0.00  0.00    +0.000 C 
ATOM      2  C   UNL     1       0.994  -1.539   0.000  0.00  0.00    +0.000 C 
ATOM      3  C   UNL     1       1.325  -0.090   0.000  0.00  0.00    +0.000 C 
ATOM      4  N   UNL     1       0.575  -1.093   0.000  0.00  0.00    +0.000 NA
ATOM      5  C   UNL     1       0.582   0.268   0.000  0.00  0.00    +0.000 C 
ATOM      6  C   UNL     1      -0.162  -0.090   0.000  0.00  0.00    +0.000 C 
ATOM      7  C   UNL     1      -0.345  -0.894   0.000  0.00  0.00    +0.000 C 
ATOM      8  C   UNL     1       1.508  -0.894   0.000  0.00  0.00    +0.000 C 
ENDROOT
BRANCH   5  12
ATOM      9  C   UNL     1       0.582   2.743   0.000  0.00  0.00    +0.000 A 
ATOM     10  C   UNL     1      -0.133   2.330   0.000  0.00  0.00    +0.000 A 
ATOM     11  C   UNL     1      -0.133   1.506   0.000  0.00  0.00    +0.000 A 
ATOM     12  C   UNL     1       0.582   1.093   0.000  0.00  0.00    +0.000 A 
ATOM     13  C   UNL     1       1.296   1.506   0.000  0.00  0.00    +0.000 A 
ATOM     14  C   UNL     1       1.296   2.330   0.000  0.00  0.00    +0.000 A 
ATOM     15  I   UNL     1       0.582   3.568   0.000  0.00  0.00    +0.000 I 
ENDBRANCH   5  12
BRANCH   6  17
ATOM     16  O   UNL     1      -0.876   1.147   0.000  0.00  0.00    +0.000 OA
ATOM     17  C   UNL     1      -0.876   0.323   0.000  0.00  0.00    +0.000 C 
BRANCH  17  18
ATOM     18  O   UNL     1      -1.591  -0.090   0.000  0.00  0.00    +0.000 OA
ATOM     19  C   UNL     1      -2.305   0.323   0.000  0.00  0.00    +0.000 C 
ENDBRANCH  17  18
ENDBRANCH   6  17
BRANCH   4  20
ATOM     20  C   UNL     1       0.575  -1.918   0.000  0.00  0.00    +0.000 C 
BRANCH  20  21
ATOM     21  C   UNL     1      -0.139  -2.330   0.000  0.00  0.00    +0.000 C 
BRANCH  21  22
ATOM     22  C   UNL     1      -0.139  -3.155   0.000  0.00  0.00    +0.000 C 
ATOM     23  F   UNL     1      -0.854  -3.568   0.000  0.00  0.00    +0.000 F 
ENDBRANCH  21  22
ENDBRANCH  20  21
ENDBRANCH   4  20
TORSDOF 6
