REMARK  Name = 
REMARK  11 active torsions:
REMARK  status: ('A' for Active; 'I' for Inactive)
REMARK    1  A    between atoms: C_2  and  C_3
REMARK    2  A    between atoms: C_3  and  C_4
REMARK    3  A    between atoms: C_4  and  C_6
REMARK    4  A    between atoms: C_7  and  C_9
REMARK    5  A    between atoms: C_9  and  C_10
REMARK    6  A    between atoms: C_10  and  C_12
REMARK    7  A    between atoms: C_13  and  C_14
REMARK    8  A    between atoms: C_15  and  C_17
REMARK    9  A    between atoms: C_21  and  O_33
REMARK   10  A    between atoms: O_33  and  C_34
REMARK   11  A    between atoms: N_39  and  C_42
REMARK                            x       y       z     vdW  Elec       q    Type
REMARK                         _______ _______ _______ _____ _____    ______ ____
ROOT
ATOM      1  C   UNL     1       4.287  -6.251   0.000  0.00  0.00    +0.000 C 
ATOM      2  C   UNL     1       4.287  -5.426   0.000  0.00  0.00    +0.000 C 
ATOM      3  C   UNL     1       5.001  -5.014   0.000  0.00  0.00    +0.000 C 
ATOM      4  C   UNL     1       5.001  -4.189   0.000  0.00  0.00    +0.000 C 
ATOM      5  C   UNL     1       5.716  -3.776   0.000  0.00  0.00    +0.000 C 
ATOM      6  C   UNL     1       6.430  -4.189   0.000  0.00  0.00    +0.000 C 
ATOM      7  C   UNL     1       6.430  -5.014   0.000  0.00  0.00    +0.000 C 
ATOM      8  C   UNL     1       7.145  -5.426   0.000  0.00  0.00    +0.000 C 
ATOM      9  C   UNL     1       7.145  -6.251   0.000  0.00  0.00    +0.000 C 
ATOM     10  C   UNL     1       6.430  -6.664   0.000  0.00  0.00    +0.000 C 
ATOM     11  C   UNL     1       5.716  -6.251   0.000  0.00  0.00    +0.000 C 
ATOM     12  O   UNL     1       5.716  -5.426   0.000  0.00  0.00    +0.000 OA
ATOM     13  O   UNL     1       5.001  -6.664   0.000  0.00  0.00    +0.000 OA
ATOM     14  O   UNL     1       7.859  -6.664   0.000  0.00  0.00    +0.000 OA
ATOM     15  C   UNL     1       6.867  -3.489   0.000  0.00  0.00    +0.000 C 
ATOM     16  O   UNL     1       7.255  -4.160   0.000  0.00  0.00    +0.000 OA
ATOM     17  C   UNL     1       3.572  -5.014   0.000  0.00  0.00    +0.000 C 
ENDROOT
BRANCH   1  19
ATOM     18  C   UNL     1       2.858  -6.251   0.000  0.00  0.00    +0.000 C 
ATOM     19  C   UNL     1       3.572  -6.664   0.000  0.00  0.00    +0.000 C 
ATOM     20  C   UNL     1       3.572  -7.489   0.000  0.00  0.00    +0.000 C 
BRANCH  18  22
ATOM     21  C   UNL     1       1.429  -6.251   0.000  0.00  0.00    +0.000 C 
ATOM     22  C   UNL     1       2.143  -6.664   0.000  0.00  0.00    +0.000 C 
BRANCH  21  23
ATOM     23  C   UNL     1       0.715  -6.664   0.000  0.00  0.00    +0.000 C 
ATOM     24  C   UNL     1       1.127  -7.378   0.000  0.00  0.00    +0.000 C 
ATOM     25  O   UNL     1       0.302  -5.949   0.000  0.00  0.00    +0.000 OA
BRANCH  23  26
ATOM     26  C   UNL     1       0.000  -7.076   0.000  0.00  0.00    +0.000 C 
BRANCH  26  28
ATOM     27  C   UNL     1      -1.127  -5.949   0.000  0.00  0.00    +0.000 C 
ATOM     28  C   UNL     1      -0.715  -6.664   0.000  0.00  0.00    +0.000 C 
ATOM     29  O   UNL     1      -1.540  -6.664   0.000  0.00  0.00    +0.000 OA
BRANCH  27  30
ATOM     30  C   UNL     1      -1.127  -5.124   0.000  0.00  0.00    +0.000 C 
ATOM     31  C   UNL     1      -0.412  -4.712   0.000  0.00  0.00    +0.000 C 
BRANCH  30  32
ATOM     32  C   UNL     1      -1.841  -4.712   0.000  0.00  0.00    +0.000 C 
ATOM     33  O   UNL     1      -2.556  -5.124   0.000  0.00  0.00    +0.000 OA
BRANCH  32  35
ATOM     34  C   UNL     1      -2.556  -3.474   0.000  0.00  0.00    +0.000 C 
ATOM     35  C   UNL     1      -1.841  -3.887   0.000  0.00  0.00    +0.000 C 
ENDBRANCH  32  35
ENDBRANCH  30  32
ENDBRANCH  27  30
ENDBRANCH  26  28
ENDBRANCH  23  26
ENDBRANCH  21  23
ENDBRANCH  18  22
ENDBRANCH   1  19
BRANCH   5  36
ATOM     36  O   UNL     1       5.716  -2.951   0.000  0.00  0.00    +0.000 OA
BRANCH  36  37
ATOM     37  C   UNL     1       6.430  -2.539   0.000  0.00  0.00    +0.000 C 
ATOM     38  O   UNL     1       7.145  -2.951   0.000  0.00  0.00    +0.000 OA
ATOM     39  N   UNL     1       6.430  -1.714   0.000  0.00  0.00    +0.000 N 
ATOM     40  C   UNL     1       5.716  -1.301   0.000  0.00  0.00    +0.000 C 
ATOM     41  C   UNL     1       5.716  -0.476   0.000  0.00  0.00    +0.000 C 
ATOM     42  N   UNL     1       6.430  -0.064   0.000  0.00  0.00    +0.000 NA
ATOM     43  C   UNL     1       7.145  -0.476   0.000  0.00  0.00    +0.000 C 
ATOM     44  C   UNL     1       7.145  -1.301   0.000  0.00  0.00    +0.000 C 
BRANCH  42  45
ATOM     45  C   UNL     1       6.430   0.761   0.000  0.00  0.00    +0.000 C 
ATOM     46  C   UNL     1       5.687   1.119   0.000  0.00  0.00    +0.000 C 
ATOM     47  C   UNL     1       5.503   1.923   0.000  0.00  0.00    +0.000 C 
ATOM     48  C   UNL     1       6.018   2.568   0.000  0.00  0.00    +0.000 C 
ATOM     49  C   UNL     1       6.843   2.568   0.000  0.00  0.00    +0.000 C 
ATOM     50  C   UNL     1       7.357   1.923   0.000  0.00  0.00    +0.000 C 
ATOM     51  C   UNL     1       7.173   1.119   0.000  0.00  0.00    +0.000 C 
ENDBRANCH  42  45
ENDBRANCH  36  37
ENDBRANCH   5  36
TORSDOF 11
