REMARK  Name = 
REMARK  51 active torsions:
REMARK  status: ('A' for Active; 'I' for Inactive)
REMARK    1  A    between atoms: N_15  and  C_54
REMARK    2  A    between atoms: N_16  and  C_48
REMARK    3  A    between atoms: N_17  and  C_59
REMARK    4  A    between atoms: N_18  and  C_53
REMARK    5  A    between atoms: N_21  and  C_79
REMARK    6  A    between atoms: N_23  and  C_66
REMARK    7  A    between atoms: N_25  and  C_88
REMARK    8  A    between atoms: N_26  and  C_105
REMARK    9  A    between atoms: N_27  and  C_96
REMARK   10  A    between atoms: N_28  and  C_107
REMARK   11  A    between atoms: N_29  and  C_109
REMARK   12  A    between atoms: N_30  and  C_120
REMARK   13  A    between atoms: N_32  and  C_121
REMARK   14  A    between atoms: N_37  and  C_128
REMARK   15  A    between atoms: C_40  and  C_50
REMARK   16  A    between atoms: C_41  and  C_52
REMARK   17  A    between atoms: C_48  and  C_49
REMARK   18  A    between atoms: C_48  and  C_55
REMARK   19  A    between atoms: C_51  and  C_53
REMARK   20  A    between atoms: C_53  and  C_56
REMARK   21  A    between atoms: C_54  and  C_57
REMARK   22  A    between atoms: C_54  and  C_58
REMARK   23  A    between atoms: C_55  and  C_60
REMARK   24  A    between atoms: C_56  and  C_61
REMARK   25  A    between atoms: C_58  and  C_62
REMARK   26  A    between atoms: C_59  and  C_63
REMARK   27  A    between atoms: C_59  and  C_67
REMARK   28  A    between atoms: C_63  and  C_72
REMARK   29  A    between atoms: C_65  and  C_66
REMARK   30  A    between atoms: C_66  and  C_75
REMARK   31  A    between atoms: C_75  and  C_81
REMARK   32  A    between atoms: C_79  and  C_87
REMARK   33  A    between atoms: C_79  and  C_97
REMARK   34  A    between atoms: C_81  and  C_96
REMARK   35  A    between atoms: C_87  and  C_101
REMARK   36  A    between atoms: C_88  and  C_90
REMARK   37  A    between atoms: C_88  and  C_94
REMARK   38  A    between atoms: C_94  and  C_103
REMARK   39  A    between atoms: C_101  and  C_107
REMARK   40  A    between atoms: C_105  and  C_114
REMARK   41  A    between atoms: C_105  and  C_115
REMARK   42  A    between atoms: C_109  and  C_110
REMARK   43  A    between atoms: C_109  and  C_113
REMARK   44  A    between atoms: C_113  and  C_117
REMARK   45  A    between atoms: C_114  and  C_116
REMARK   46  A    between atoms: C_116  and  C_121
REMARK   47  A    between atoms: C_120  and  C_123
REMARK   48  A    between atoms: C_120  and  C_126
REMARK   49  A    between atoms: C_123  and  C_125
REMARK   50  A    between atoms: C_125  and  C_127
REMARK   51  A    between atoms: C_127  and  C_128
REMARK                            x       y       z     vdW  Elec       q    Type
REMARK                         _______ _______ _______ _____ _____    ______ ____
ROOT
ATOM      1  C   UNL     1      -0.925  -3.297   0.000  0.00  0.00    +0.000 C 
ENDROOT
BRANCH   1   8
ATOM      2  O   UNL     1       0.482  -3.016   0.000  0.00  0.00    +0.000 OA
ATOM      3  N   UNL     1       0.040  -4.383   0.000  0.00  0.00    +0.000 N 
ATOM      4  C   UNL     1       0.804  -4.705   0.000  0.00  0.00    +0.000 C 
ATOM      5  C   UNL     1       0.704  -5.529   0.000  0.00  0.00    +0.000 C 
ATOM      6  C   UNL     1      -0.101  -5.710   0.000  0.00  0.00    +0.000 C 
ATOM      7  C   UNL     1      -0.523  -4.986   0.000  0.00  0.00    +0.000 C 
ATOM      8  C   UNL     1      -0.141  -3.559   0.000  0.00  0.00    +0.000 C 
BRANCH   4  11
ATOM      9  O   UNL     1       1.508  -3.478   0.000  0.00  0.00    +0.000 OA
ATOM     10  N   UNL     1       2.232  -4.725   0.000  0.00  0.00    +0.000 N 
ATOM     11  C   UNL     1       1.508  -4.303   0.000  0.00  0.00    +0.000 C 
ATOM     12  H   UNL     1       2.232  -5.228   0.000  0.00  0.00    +0.000 HD
BRANCH  10  13
ATOM     13  C   UNL     1       2.955  -4.303   0.000  0.00  0.00    +0.000 C 
BRANCH  13  16
ATOM     14  O   UNL     1       2.232  -3.056   0.000  0.00  0.00    +0.000 OA
ATOM     15  N   UNL     1       3.659  -3.056   0.000  0.00  0.00    +0.000 N 
ATOM     16  C   UNL     1       2.955  -3.478   0.000  0.00  0.00    +0.000 C 
ATOM     17  H   UNL     1       4.102  -3.317   0.000  0.00  0.00    +0.000 HD
BRANCH  15  18
ATOM     18  C   UNL     1       3.659  -2.232   0.000  0.00  0.00    +0.000 C 
BRANCH  18  21
ATOM     19  O   UNL     1       5.107  -2.232   0.000  0.00  0.00    +0.000 OA
ATOM     20  N   UNL     1       4.383  -0.985   0.000  0.00  0.00    +0.000 N 
ATOM     21  C   UNL     1       4.383  -1.830   0.000  0.00  0.00    +0.000 C 
ATOM     22  H   UNL     1       3.941  -0.744   0.000  0.00  0.00    +0.000 HD
BRANCH  20  23
ATOM     23  C   UNL     1       5.107  -0.583   0.000  0.00  0.00    +0.000 C 
BRANCH  23  26
ATOM     24  O   UNL     1       4.383   0.663   0.000  0.00  0.00    +0.000 OA
ATOM     25  N   UNL     1       5.831   0.663   0.000  0.00  0.00    +0.000 N 
ATOM     26  C   UNL     1       5.107   0.241   0.000  0.00  0.00    +0.000 C 
ATOM     27  H   UNL     1       6.273   0.402   0.000  0.00  0.00    +0.000 HD
BRANCH  25  28
ATOM     28  C   UNL     1       5.831   1.488   0.000  0.00  0.00    +0.000 C 
BRANCH  28  31
ATOM     29  O   UNL     1       7.258   1.488   0.000  0.00  0.00    +0.000 OA
ATOM     30  N   UNL     1       6.555   2.734   0.000  0.00  0.00    +0.000 N 
ATOM     31  C   UNL     1       6.534   1.910   0.000  0.00  0.00    +0.000 C 
ATOM     32  H   UNL     1       6.092   2.996   0.000  0.00  0.00    +0.000 HD
ATOM     33  H   UNL     1       6.997   2.976   0.000  0.00  0.00    +0.000 HD
ENDBRANCH  28  31
BRANCH  28  34
ATOM     34  C   UNL     1       5.107   1.910   0.000  0.00  0.00    +0.000 C 
BRANCH  34  35
ATOM     35  C   UNL     1       5.107   2.734   0.000  0.00  0.00    +0.000 C 
BRANCH  35  36
ATOM     36  C   UNL     1       4.403   3.157   0.000  0.00  0.00    +0.000 C 
BRANCH  36  37
ATOM     37  C   UNL     1       4.403   3.981   0.000  0.00  0.00    +0.000 C 
BRANCH  37  38
ATOM     38  N   UNL     1       3.679   4.383   0.000  0.00  0.00    +0.000 NA
ATOM     39  H   UNL     1       3.679   4.906   0.000  0.00  0.00    +0.000 HD
ATOM     40  H   UNL     1       3.237   4.142   0.000  0.00  0.00    +0.000 HD
ENDBRANCH  37  38
ENDBRANCH  36  37
ENDBRANCH  35  36
ENDBRANCH  34  35
ENDBRANCH  28  34
ENDBRANCH  25  28
ENDBRANCH  23  26
BRANCH  23  41
ATOM     41  C   UNL     1       5.831  -1.005   0.000  0.00  0.00    +0.000 C 
BRANCH  41  42
ATOM     42  C   UNL     1       6.534  -0.583   0.000  0.00  0.00    +0.000 C 
BRANCH  42  43
ATOM     43  C   UNL     1       7.258  -1.005   0.000  0.00  0.00    +0.000 C 
BRANCH  43  44
ATOM     44  N   UNL     1       7.982  -0.583   0.000  0.00  0.00    +0.000 N 
ATOM     45  N   UNL     1       9.410  -0.583   0.000  0.00  0.00    +0.000 N 
ATOM     46  N   UNL     1       8.686  -1.830   0.000  0.00  0.00    +0.000 NA
ATOM     47  C   UNL     1       8.686  -1.005   0.000  0.00  0.00    +0.000 C 
ATOM     48  H   UNL     1       7.982  -0.080   0.000  0.00  0.00    +0.000 HD
ATOM     49  H   UNL     1       9.410  -0.080   0.000  0.00  0.00    +0.000 HD
ATOM     50  H   UNL     1       9.852  -0.844   0.000  0.00  0.00    +0.000 HD
ATOM     51  H   UNL     1       9.128  -2.091   0.000  0.00  0.00    +0.000 HD
ENDBRANCH  43  44
ENDBRANCH  42  43
ENDBRANCH  41  42
ENDBRANCH  23  41
ENDBRANCH  20  23
ENDBRANCH  18  21
BRANCH  18  52
ATOM     52  C   UNL     1       2.955  -1.810   0.000  0.00  0.00    +0.000 C 
BRANCH  52  53
ATOM     53  C   UNL     1       2.232  -2.232   0.000  0.00  0.00    +0.000 C 
BRANCH  53  54
ATOM     54  C   UNL     1       1.508  -1.810   0.000  0.00  0.00    +0.000 C 
BRANCH  54  55
ATOM     55  N   UNL     1       1.528  -0.985   0.000  0.00  0.00    +0.000 N 
ATOM     56  N   UNL     1       2.232   0.261   0.000  0.00  0.00    +0.000 N 
ATOM     57  N   UNL     1       2.955  -0.985   0.000  0.00  0.00    +0.000 NA
ATOM     58  C   UNL     1       2.232  -0.583   0.000  0.00  0.00    +0.000 C 
ATOM     59  H   UNL     1       1.066  -0.724   0.000  0.00  0.00    +0.000 HD
ATOM     60  H   UNL     1       2.674   0.502   0.000  0.00  0.00    +0.000 HD
ATOM     61  H   UNL     1       1.789   0.502   0.000  0.00  0.00    +0.000 HD
ATOM     62  H   UNL     1       3.398  -0.744   0.000  0.00  0.00    +0.000 HD
ENDBRANCH  54  55
ENDBRANCH  53  54
ENDBRANCH  52  53
ENDBRANCH  18  52
ENDBRANCH  15  18
ENDBRANCH  13  16
BRANCH  13  63
ATOM     63  C   UNL     1       3.659  -4.725   0.000  0.00  0.00    +0.000 C 
BRANCH  63  65
ATOM     64  N   UNL     1       3.237  -6.816   0.000  0.00  0.00    +0.000 N 
ATOM     65  C   UNL     1       3.659  -5.549   0.000  0.00  0.00    +0.000 A 
ATOM     66  C   UNL     1       4.323  -6.032   0.000  0.00  0.00    +0.000 A 
ATOM     67  C   UNL     1       2.996  -6.032   0.000  0.00  0.00    +0.000 A 
ATOM     68  C   UNL     1       4.061  -6.816   0.000  0.00  0.00    +0.000 A 
ATOM     69  C   UNL     1       5.147  -5.871   0.000  0.00  0.00    +0.000 A 
ATOM     70  C   UNL     1       4.624  -7.439   0.000  0.00  0.00    +0.000 A 
ATOM     71  C   UNL     1       5.690  -6.474   0.000  0.00  0.00    +0.000 A 
ATOM     72  C   UNL     1       5.429  -7.258   0.000  0.00  0.00    +0.000 A 
ATOM     73  H   UNL     1       2.936  -7.218   0.000  0.00  0.00    +0.000 HD
ENDBRANCH  63  65
ENDBRANCH  13  63
ENDBRANCH  10  13
ENDBRANCH   4  11
ENDBRANCH   1   8
BRANCH   1  75
ATOM     74  O   UNL     1       0.121  -1.749   0.000  0.00  0.00    +0.000 OA
ATOM     75  N   UNL     1      -1.086  -2.493   0.000  0.00  0.00    +0.000 N 
ATOM     76  C   UNL     1      -0.704  -1.769   0.000  0.00  0.00    +0.000 C 
ATOM     77  H   UNL     1      -1.568  -2.332   0.000  0.00  0.00    +0.000 HD
BRANCH  76  78
ATOM     78  C   UNL     1      -1.146  -1.066   0.000  0.00  0.00    +0.000 C 
BRANCH  78  80
ATOM     79  O   UNL     1      -2.011   0.342   0.000  0.00  0.00    +0.000 OA
ATOM     80  N   UNL     1      -0.744  -0.342   0.000  0.00  0.00    +0.000 N 
ATOM     81  C   UNL     1      -1.186   0.362   0.000  0.00  0.00    +0.000 C 
ATOM     82  H   UNL     1      -0.241  -0.322   0.000  0.00  0.00    +0.000 HD
BRANCH  81  85
ATOM     83  O   UNL     1      -2.574   2.091   0.000  0.00  0.00    +0.000 OA
ATOM     84  N   UNL     1      -1.146   1.850   0.000  0.00  0.00    +0.000 N 
ATOM     85  C   UNL     1      -0.784   1.106   0.000  0.00  0.00    +0.000 C 
ATOM     86  C   UNL     1       0.020   1.206   0.000  0.00  0.00    +0.000 C 
ATOM     87  C   UNL     1       0.181   2.031   0.000  0.00  0.00    +0.000 C 
ATOM     88  C   UNL     1      -0.563   2.413   0.000  0.00  0.00    +0.000 C 
ATOM     89  C   UNL     1      -1.789   2.372   0.000  0.00  0.00    +0.000 C 
BRANCH  89  90
ATOM     90  C   UNL     1      -1.649   3.197   0.000  0.00  0.00    +0.000 C 
BRANCH  90  92
ATOM     91  O   UNL     1      -3.197   2.634   0.000  0.00  0.00    +0.000 OA
ATOM     92  N   UNL     1      -2.272   3.720   0.000  0.00  0.00    +0.000 N 
ATOM     93  C   UNL     1      -3.056   3.438   0.000  0.00  0.00    +0.000 C 
ATOM     94  H   UNL     1      -2.192   4.222   0.000  0.00  0.00    +0.000 HD
BRANCH  93  95
ATOM     95  C   UNL     1      -3.679   3.981   0.000  0.00  0.00    +0.000 C 
BRANCH  95  97
ATOM     96  O   UNL     1      -5.569   4.624   0.000  0.00  0.00    +0.000 OA
ATOM     97  N   UNL     1      -4.463   3.700   0.000  0.00  0.00    +0.000 N 
ATOM     98  C   UNL     1      -5.288   3.840   0.000  0.00  0.00    +0.000 C 
ATOM     99  H   UNL     1      -4.564   3.197   0.000  0.00  0.00    +0.000 HD
BRANCH  98 100
ATOM    100  C   UNL     1      -5.811   3.217   0.000  0.00  0.00    +0.000 C 
BRANCH 100 102
ATOM    101  O   UNL     1      -6.876   1.950   0.000  0.00  0.00    +0.000 OA
ATOM    102  N   UNL     1      -6.635   3.358   0.000  0.00  0.00    +0.000 N 
ATOM    103  C   UNL     1      -7.158   2.714   0.000  0.00  0.00    +0.000 C 
ATOM    104  H   UNL     1      -6.796   3.840   0.000  0.00  0.00    +0.000 HD
BRANCH 103 105
ATOM    105  C   UNL     1      -7.982   2.855   0.000  0.00  0.00    +0.000 C 
BRANCH 105 106
ATOM    106  N   UNL     1      -8.264   3.639   0.000  0.00  0.00    +0.000 NA
ATOM    107  H   UNL     1      -8.766   3.740   0.000  0.00  0.00    +0.000 HD
ATOM    108  H   UNL     1      -7.922   4.041   0.000  0.00  0.00    +0.000 HD
ENDBRANCH 105 106
BRANCH 105 109
ATOM    109  C   UNL     1      -8.505   2.232   0.000  0.00  0.00    +0.000 C 
ATOM    110  C   UNL     1      -8.223   1.448   0.000  0.00  0.00    +0.000 C 
BRANCH 109 111
ATOM    111  C   UNL     1      -9.329   2.372   0.000  0.00  0.00    +0.000 C 
ATOM    112  C   UNL     1      -9.852   1.749   0.000  0.00  0.00    +0.000 C 
ENDBRANCH 109 111
ENDBRANCH 105 109
ENDBRANCH 103 105
ENDBRANCH 100 102
BRANCH 100 113
ATOM    113  C   UNL     1      -5.951   2.393   0.000  0.00  0.00    +0.000 C 
BRANCH 113 114
ATOM    114  C   UNL     1      -5.328   1.850   0.000  0.00  0.00    +0.000 C 
ATOM    115  C   UNL     1      -4.544   2.151   0.000  0.00  0.00    +0.000 C 
ATOM    116  C   UNL     1      -5.469   1.046   0.000  0.00  0.00    +0.000 C 
ENDBRANCH 113 114
ENDBRANCH 100 113
ENDBRANCH  98 100
ENDBRANCH  95  97
BRANCH  95 117
ATOM    117  C   UNL     1      -3.539   4.785   0.000  0.00  0.00    +0.000 C 
BRANCH 117 118
ATOM    118  C   UNL     1      -4.182   5.328   0.000  0.00  0.00    +0.000 C 
BRANCH 118 119
ATOM    119  C   UNL     1      -4.041   6.132   0.000  0.00  0.00    +0.000 C 
BRANCH 119 120
ATOM    120  N   UNL     1      -4.665   6.675   0.000  0.00  0.00    +0.000 N 
ATOM    121  N   UNL     1      -6.072   6.916   0.000  0.00  0.00    +0.000 N 
ATOM    122  N   UNL     1      -5.589   5.569   0.000  0.00  0.00    +0.000 NA
ATOM    123  C   UNL     1      -5.449   6.394   0.000  0.00  0.00    +0.000 C 
ATOM    124  H   UNL     1      -4.584   7.178   0.000  0.00  0.00    +0.000 HD
ATOM    125  H   UNL     1      -6.554   6.756   0.000  0.00  0.00    +0.000 HD
ATOM    126  H   UNL     1      -5.992   7.439   0.000  0.00  0.00    +0.000 HD
ATOM    127  H   UNL     1      -6.072   5.409   0.000  0.00  0.00    +0.000 HD
ENDBRANCH 119 120
ENDBRANCH 118 119
ENDBRANCH 117 118
ENDBRANCH  95 117
ENDBRANCH  93  95
ENDBRANCH  90  92
BRANCH  90 128
ATOM    128  C   UNL     1      -0.865   3.478   0.000  0.00  0.00    +0.000 C 
BRANCH 128 130
ATOM    129  N   UNL     1      -0.080   5.469   0.000  0.00  0.00    +0.000 N 
ATOM    130  C   UNL     1      -0.724   4.282   0.000  0.00  0.00    +0.000 A 
ATOM    131  C   UNL     1      -1.287   4.886   0.000  0.00  0.00    +0.000 A 
ATOM    132  C   UNL     1       0.020   4.644   0.000  0.00  0.00    +0.000 A 
ATOM    133  C   UNL     1      -0.905   5.610   0.000  0.00  0.00    +0.000 A 
ATOM    134  C   UNL     1      -2.111   4.866   0.000  0.00  0.00    +0.000 A 
ATOM    135  C   UNL     1      -1.327   6.313   0.000  0.00  0.00    +0.000 A 
ATOM    136  C   UNL     1      -2.553   5.569   0.000  0.00  0.00    +0.000 A 
ATOM    137  C   UNL     1      -2.171   6.293   0.000  0.00  0.00    +0.000 A 
ATOM    138  H   UNL     1       0.281   5.811   0.000  0.00  0.00    +0.000 HD
ENDBRANCH 128 130
ENDBRANCH  90 128
ENDBRANCH  89  90
ENDBRANCH  81  85
ENDBRANCH  78  80
BRANCH  78 139
ATOM    139  C   UNL     1      -1.970  -1.086   0.000  0.00  0.00    +0.000 C 
BRANCH 139 141
ATOM    140  N   UNL     1      -3.237  -2.795   0.000  0.00  0.00    +0.000 N 
ATOM    141  C   UNL     1      -2.574  -1.649   0.000  0.00  0.00    +0.000 A 
ATOM    142  C   UNL     1      -3.378  -1.468   0.000  0.00  0.00    +0.000 A 
ATOM    143  C   UNL     1      -2.493  -2.473   0.000  0.00  0.00    +0.000 A 
ATOM    144  C   UNL     1      -3.800  -2.192   0.000  0.00  0.00    +0.000 A 
ATOM    145  C   UNL     1      -3.800  -0.744   0.000  0.00  0.00    +0.000 A 
ATOM    146  C   UNL     1      -4.624  -2.192   0.000  0.00  0.00    +0.000 A 
ATOM    147  C   UNL     1      -4.624  -0.744   0.000  0.00  0.00    +0.000 A 
ATOM    148  C   UNL     1      -5.046  -1.468   0.000  0.00  0.00    +0.000 A 
ATOM    149  H   UNL     1      -3.358  -3.297   0.000  0.00  0.00    +0.000 HD
ENDBRANCH 139 141
ENDBRANCH  78 139
ENDBRANCH  76  78
ENDBRANCH   1  75
BRANCH   1 150
ATOM    150  C   UNL     1      -1.528  -3.860   0.000  0.00  0.00    +0.000 C 
BRANCH 150 152
ATOM    151  N   UNL     1      -1.789  -5.971   0.000  0.00  0.00    +0.000 N 
ATOM    152  C   UNL     1      -1.789  -4.644   0.000  0.00  0.00    +0.000 A 
ATOM    153  C   UNL     1      -2.574  -4.906   0.000  0.00  0.00    +0.000 A 
ATOM    154  C   UNL     1      -1.307  -5.308   0.000  0.00  0.00    +0.000 A 
ATOM    155  C   UNL     1      -2.574  -5.730   0.000  0.00  0.00    +0.000 A 
ATOM    156  C   UNL     1      -3.297  -4.484   0.000  0.00  0.00    +0.000 A 
ATOM    157  C   UNL     1      -3.297  -6.132   0.000  0.00  0.00    +0.000 A 
ATOM    158  C   UNL     1      -4.001  -4.906   0.000  0.00  0.00    +0.000 A 
ATOM    159  C   UNL     1      -4.001  -5.730   0.000  0.00  0.00    +0.000 A 
ATOM    160  H   UNL     1      -1.629  -6.474   0.000  0.00  0.00    +0.000 HD
ENDBRANCH 150 152
ENDBRANCH   1 150
TORSDOF 51
