REMARK  Name = 
REMARK  7 active torsions:
REMARK  status: ('A' for Active; 'I' for Inactive)
REMARK    1  A    between atoms: C_1  and  C_4
REMARK    2  A    between atoms: N_2  and  C_5
REMARK    3  A    between atoms: N_2  and  C_6
REMARK    4  A    between atoms: C_4  and  O_11
REMARK    5  A    between atoms: O_11  and  C_16
REMARK    6  A    between atoms: C_16  and  C_18
REMARK    7  A    between atoms: C_18  and  C_24
REMARK                            x       y       z     vdW  Elec       q    Type
REMARK                         _______ _______ _______ _____ _____    ______ ____
ROOT
ATOM      1  C   UNL     1      -1.429   1.243   0.000  0.00  0.00    +0.000 A 
ATOM      2  C   UNL     1      -1.435   0.418   0.000  0.00  0.00    +0.000 A 
ATOM      3  C   UNL     1      -2.134   1.656   0.000  0.00  0.00    +0.000 A 
ATOM      4  C   UNL     1      -2.151   0.006   0.000  0.00  0.00    +0.000 A 
ATOM      5  C   UNL     1      -2.856   1.249   0.000  0.00  0.00    +0.000 A 
ATOM      6  C   UNL     1      -2.862   0.424   0.000  0.00  0.00    +0.000 A 
ENDROOT
BRANCH   1   7
ATOM      7  C   UNL     1      -0.707   1.644   0.000  0.00  0.00    +0.000 C 
ATOM      8  O   UNL     1      -0.707   2.469   0.000  0.00  0.00    +0.000 OA
BRANCH   7   9
ATOM      9  O   UNL     1      -0.003   1.226   0.000  0.00  0.00    +0.000 OA
BRANCH   9  10
ATOM     10  C   UNL     1       0.719   1.627   0.000  0.00  0.00    +0.000 C 
BRANCH  10  11
ATOM     11  C   UNL     1       1.424   1.209   0.000  0.00  0.00    +0.000 C 
ATOM     12  O   UNL     1       1.424   0.384   0.000  0.00  0.00    +0.000 OA
BRANCH  11  14
ATOM     13  O   UNL     1       2.862   1.197   0.000  0.00  0.00    +0.000 OA
ATOM     14  C   UNL     1       2.146   1.621   0.000  0.00  0.00    +0.000 C 
ENDBRANCH  11  14
ENDBRANCH  10  11
ENDBRANCH   9  10
ENDBRANCH   7   9
ENDBRANCH   1   7
BRANCH   2  15
ATOM     15  N   UNL     1      -0.725   0.006   0.000  0.00  0.00    +0.000 NA
BRANCH  15  17
ATOM     16  C   UNL     1      -0.020  -1.232   0.000  0.00  0.00    +0.000 A 
ATOM     17  C   UNL     1      -0.725  -0.819   0.000  0.00  0.00    +0.000 A 
ATOM     18  C   UNL     1      -0.020  -2.057   0.000  0.00  0.00    +0.000 A 
ATOM     19  C   UNL     1       0.696  -2.469   0.000  0.00  0.00    +0.000 A 
ATOM     20  C   UNL     1       0.696  -0.819   0.000  0.00  0.00    +0.000 A 
ATOM     21  N   UNL     1      -0.742  -2.469   0.000  0.00  0.00    +0.000 NA
ATOM     22  C   UNL     1       1.401  -2.057   0.000  0.00  0.00    +0.000 A 
ATOM     23  C   UNL     1      -1.446  -1.232   0.000  0.00  0.00    +0.000 A 
ATOM     24  C   UNL     1       1.401  -1.232   0.000  0.00  0.00    +0.000 A 
ATOM     25  C   UNL     1      -1.446  -2.057   0.000  0.00  0.00    +0.000 A 
ATOM     26 CL   UNL     1       2.111  -2.469   0.000  0.00  0.00    +0.000 Cl
ENDBRANCH  15  17
ENDBRANCH   2  15
TORSDOF 7
