REMARK  Name = 
REMARK  10 active torsions:
REMARK  status: ('A' for Active; 'I' for Inactive)
REMARK    1  A    between atoms: C_2  and  C_4
REMARK    2  A    between atoms: C_8  and  C_33
REMARK    3  A    between atoms: C_9  and  O_10
REMARK    4  A    between atoms: O_10  and  S_11
REMARK    5  A    between atoms: S_11  and  N_14
REMARK    6  A    between atoms: C_15  and  C_17
REMARK    7  A    between atoms: C_17  and  C_18
REMARK    8  A    between atoms: C_19  and  C_30
REMARK    9  A    between atoms: C_21  and  C_27
REMARK   10  A    between atoms: C_23  and  C_24
REMARK                            x       y       z     vdW  Elec       q    Type
REMARK                         _______ _______ _______ _____ _____    ______ ____
ROOT
ATOM      1  N   UNL     1       0.000  -4.950   0.000  0.00  0.00    +0.000 NA
ATOM      2  C   UNL     1      -0.715  -4.537   0.000  0.00  0.00    +0.000 C 
ATOM      3  O   UNL     1      -0.715  -3.712   0.000  0.00  0.00    +0.000 OA
ENDROOT
BRANCH   1   4
ATOM      4  S   UNL     1       0.715  -4.537   0.000  0.00  0.00    +0.000 S 
ATOM      5  O   UNL     1       0.302  -3.823   0.000  0.00  0.00    +0.000 OA
ATOM      6  O   UNL     1       1.127  -5.252   0.000  0.00  0.00    +0.000 OA
BRANCH   4   7
ATOM      7  O   UNL     1       1.429  -4.125   0.000  0.00  0.00    +0.000 OA
BRANCH   7  13
ATOM      8  C   UNL     1       2.858  -4.125   0.000  0.00  0.00    +0.000 A 
ATOM      9  C   UNL     1       3.572  -4.537   0.000  0.00  0.00    +0.000 A 
ATOM     10  C   UNL     1       3.572  -5.362   0.000  0.00  0.00    +0.000 A 
ATOM     11  C   UNL     1       2.858  -5.775   0.000  0.00  0.00    +0.000 A 
ATOM     12  C   UNL     1       2.143  -5.362   0.000  0.00  0.00    +0.000 A 
ATOM     13  C   UNL     1       2.143  -4.537   0.000  0.00  0.00    +0.000 A 
BRANCH  12  14
ATOM     14  C   UNL     1       1.429  -5.775   0.000  0.00  0.00    +0.000 C 
ATOM     15  C   UNL     1       0.715  -5.362   0.000  0.00  0.00    +0.000 C 
ATOM     16  C   UNL     1       1.429  -6.600   0.000  0.00  0.00    +0.000 C 
ENDBRANCH  12  14
BRANCH   8  18
ATOM     17  C   UNL     1       3.572  -2.888   0.000  0.00  0.00    +0.000 C 
ATOM     18  C   UNL     1       2.858  -3.300   0.000  0.00  0.00    +0.000 C 
ATOM     19  C   UNL     1       2.143  -2.888   0.000  0.00  0.00    +0.000 C 
ENDBRANCH   8  18
ENDBRANCH   7  13
ENDBRANCH   4   7
ENDBRANCH   1   4
BRANCH   2  20
ATOM     20  C   UNL     1      -1.429  -4.950   0.000  0.00  0.00    +0.000 C 
BRANCH  20  21
ATOM     21  C   UNL     1      -2.143  -4.537   0.000  0.00  0.00    +0.000 A 
ATOM     22  C   UNL     1      -2.858  -4.950   0.000  0.00  0.00    +0.000 A 
ATOM     23  C   UNL     1      -3.572  -4.537   0.000  0.00  0.00    +0.000 A 
ATOM     24  C   UNL     1      -3.572  -3.712   0.000  0.00  0.00    +0.000 A 
ATOM     25  C   UNL     1      -2.858  -3.300   0.000  0.00  0.00    +0.000 A 
ATOM     26  C   UNL     1      -2.143  -3.712   0.000  0.00  0.00    +0.000 A 
BRANCH  22  27
ATOM     27  C   UNL     1      -2.858  -5.775   0.000  0.00  0.00    +0.000 C 
ATOM     28  C   UNL     1      -3.572  -6.188   0.000  0.00  0.00    +0.000 C 
ATOM     29  C   UNL     1      -2.143  -6.188   0.000  0.00  0.00    +0.000 C 
ENDBRANCH  22  27
BRANCH  26  30
ATOM     30  C   UNL     1      -1.429  -3.300   0.000  0.00  0.00    +0.000 C 
ATOM     31  C   UNL     1      -0.609  -3.214   0.000  0.00  0.00    +0.000 C 
ATOM     32  C   UNL     1      -1.429  -2.475   0.000  0.00  0.00    +0.000 C 
ENDBRANCH  26  30
BRANCH  24  33
ATOM     33  C   UNL     1      -4.287  -3.300   0.000  0.00  0.00    +0.000 C 
ATOM     34  C   UNL     1      -5.001  -3.712   0.000  0.00  0.00    +0.000 C 
ATOM     35  C   UNL     1      -4.287  -2.475   0.000  0.00  0.00    +0.000 C 
ENDBRANCH  24  33
ENDBRANCH  20  21
ENDBRANCH   2  20
TORSDOF 10
