REMARK  Name = 
REMARK  1 active torsions:
REMARK  status: ('A' for Active; 'I' for Inactive)
REMARK    1  A    between atoms: C_1  and  O_4
REMARK                            x       y       z     vdW  Elec       q    Type
REMARK                         _______ _______ _______ _____ _____    ______ ____
ROOT
ATOM      1  C   UNL     1       0.206  -0.357   0.000  0.00  0.00    +0.000 C 
ATOM      2  O   UNL     1       0.619  -1.072   0.000  0.00  0.00    +0.000 OA
ATOM      3  C   UNL     1      -0.619  -0.357   0.000  0.00  0.00    +0.000 C 
ENDROOT
BRANCH   1   5
ATOM      4  O   UNL     1       0.206   1.072   0.000  0.00  0.00    +0.000 OA
ATOM      5  O   UNL     1       0.619   0.357   0.000  0.00  0.00    +0.000 OA
ENDBRANCH   1   5
TORSDOF 1
