REMARK  Name = 
REMARK  2 active torsions:
REMARK  status: ('A' for Active; 'I' for Inactive)
REMARK    1  A    between atoms: C_18  and  C_23
REMARK    2  A    between atoms: C_23  and  C_25
REMARK                            x       y       z     vdW  Elec       q    Type
REMARK                         _______ _______ _______ _____ _____    ______ ____
ROOT
ATOM      1  C   UNL     1       0.322  -1.571   0.000  0.00  0.00    +0.000 C 
ATOM      2  C   UNL     1      -0.392  -1.984   0.000  0.00  0.00    +0.000 C 
ATOM      3  C   UNL     1      -1.107  -1.571   0.000  0.00  0.00    +0.000 C 
ATOM      4  C   UNL     1      -1.821  -1.984   0.000  0.00  0.00    +0.000 C 
ATOM      5  C   UNL     1      -2.536  -0.746   0.000  0.00  0.00    +0.000 C 
ATOM      6  C   UNL     1      -1.821  -0.334   0.000  0.00  0.00    +0.000 C 
ATOM      7  C   UNL     1      -1.107  -0.746   0.000  0.00  0.00    +0.000 C 
ATOM      8  C   UNL     1       0.322   0.904   0.000  0.00  0.00    +0.000 C 
ATOM      9  C   UNL     1       2.306   0.079   0.000  0.00  0.00    +0.000 C 
ATOM     10  C   UNL     1       1.821  -0.589   0.000  0.00  0.00    +0.000 C 
ATOM     11  C   UNL     1      -0.392  -0.334   0.000  0.00  0.00    +0.000 C 
ATOM     12  C   UNL     1       1.037  -0.334   0.000  0.00  0.00    +0.000 C 
ATOM     13  C   UNL     1       0.322  -0.746   0.000  0.00  0.00    +0.000 C 
ATOM     14  C   UNL     1       1.037   0.491   0.000  0.00  0.00    +0.000 C 
ATOM     15  C   UNL     1       1.821   0.746   0.000  0.00  0.00    +0.000 C 
ATOM     16  C   UNL     1      -2.536  -1.571   0.000  0.00  0.00    +0.000 C 
ATOM     17  O   UNL     1      -3.250  -1.984   0.000  0.00  0.00    +0.000 OA
ATOM     18  C   UNL     1      -0.392   0.491   0.000  0.00  0.00    +0.000 C 
ATOM     19  O   UNL     1      -1.107   0.904   0.000  0.00  0.00    +0.000 OA
ATOM     20  O   UNL     1       2.536   1.159   0.000  0.00  0.00    +0.000 OA
ATOM     21  C   UNL     1      -1.107   0.079   0.000  0.00  0.00    +0.000 C 
ATOM     22  C   UNL     1       1.037   1.316   0.000  0.00  0.00    +0.000 C 
ENDROOT
BRANCH  15  23
ATOM     23  C   UNL     1       1.821   1.571   0.000  0.00  0.00    +0.000 C 
ATOM     24  O   UNL     1       1.107   1.984   0.000  0.00  0.00    +0.000 OA
BRANCH  23  25
ATOM     25  C   UNL     1       2.536   1.984   0.000  0.00  0.00    +0.000 C 
ATOM     26  O   UNL     1       3.250   1.571   0.000  0.00  0.00    +0.000 OA
ENDBRANCH  23  25
ENDBRANCH  15  23
TORSDOF 2
