REMARK  Name = 
REMARK  8 active torsions:
REMARK  status: ('A' for Active; 'I' for Inactive)
REMARK    1  A    between atoms: C_2  and  O_3
REMARK    2  A    between atoms: O_3  and  C_4
REMARK    3  A    between atoms: C_9  and  N_12
REMARK    4  A    between atoms: C_24  and  C_25
REMARK    5  A    between atoms: N_42  and  C_43
REMARK    6  A    between atoms: N_48  and  O_49
REMARK    7  A    between atoms: O_49  and  C_50
REMARK    8  A    between atoms: C_50  and  C_51
REMARK                            x       y       z     vdW  Elec       q    Type
REMARK                         _______ _______ _______ _____ _____    ______ ____
ROOT
ATOM      1  C   UNL     1       3.357   0.255   0.000  0.00  0.00    +0.000 C 
ATOM      2  C   UNL     1       4.143  -0.099   0.000  0.00  0.00    +0.000 C 
ATOM      3  C   UNL     1       4.671   0.535   0.000  0.00  0.00    +0.000 C 
ATOM      4  C   UNL     1       4.620  -0.789   0.000  0.00  0.00    +0.000 C 
ATOM      5  O   UNL     1       5.442  -0.724   0.000  0.00  0.00    +0.000 OA
ATOM      6  C   UNL     1       4.254  -1.554   0.000  0.00  0.00    +0.000 C 
ATOM      7  C   UNL     1       4.778  -2.191   0.000  0.00  0.00    +0.000 C 
ATOM      8  C   UNL     1       3.424  -1.768   0.000  0.00  0.00    +0.000 C 
ATOM      9  O   UNL     1       3.439  -2.593   0.000  0.00  0.00    +0.000 OA
ATOM     10  O   UNL     1       2.514  -1.569   0.000  0.00  0.00    +0.000 OA
ATOM     11  C   UNL     1       1.557  -1.368   0.000  0.00  0.00    +0.000 C 
ATOM     12  C   UNL     1       0.998  -0.747   0.000  0.00  0.00    +0.000 C 
ATOM     13  C   UNL     1       0.372  -1.284   0.000  0.00  0.00    +0.000 C 
ATOM     14  O   UNL     1       0.475  -0.109   0.000  0.00  0.00    +0.000 OA
ATOM     15  C   UNL     1       1.666  -0.224   0.000  0.00  0.00    +0.000 C 
ATOM     16  O   UNL     1       2.557  -0.557   0.000  0.00  0.00    +0.000 OA
ATOM     17  C   UNL     1       3.048  -1.257   0.000  0.00  0.00    +0.000 C 
ATOM     18  C   UNL     1       2.843  -2.166   0.000  0.00  0.00    +0.000 C 
ATOM     19  C   UNL     1       2.016  -1.891   0.000  0.00  0.00    +0.000 C 
ATOM     20  O   UNL     1       2.118  -0.933   0.000  0.00  0.00    +0.000 OA
ATOM     21  C   UNL     1       2.514   0.034   0.000  0.00  0.00    +0.000 C 
ATOM     22  C   UNL     1       1.970   0.655   0.000  0.00  0.00    +0.000 C 
ATOM     23  C   UNL     1       2.346   0.897   0.000  0.00  0.00    +0.000 C 
ATOM     24  C   UNL     1       1.720   1.473   0.000  0.00  0.00    +0.000 C 
ATOM     25  C   UNL     1       1.882   2.282   0.000  0.00  0.00    +0.000 C 
ATOM     26  C   UNL     1       0.931   1.187   0.000  0.00  0.00    +0.000 C 
ATOM     27  N   UNL     1       0.218   1.602   0.000  0.00  0.00    +0.000 NA
ATOM     28  C   UNL     1       1.068   0.378   0.000  0.00  0.00    +0.000 C 
ATOM     29  C   UNL     1       0.253   0.246   0.000  0.00  0.00    +0.000 C 
ATOM     30  N   UNL     1       3.249  -2.885   0.000  0.00  0.00    +0.000 NA
ENDROOT
BRANCH  27  31
ATOM     31  C   UNL     1       0.221   2.427   0.000  0.00  0.00    +0.000 C 
ATOM     32  C   UNL     1      -0.492   2.842   0.000  0.00  0.00    +0.000 C 
ATOM     33  O   UNL     1       0.937   2.837   0.000  0.00  0.00    +0.000 OA
ENDBRANCH  27  31
BRANCH  11  34
ATOM     34  C   UNL     1       1.146  -2.083   0.000  0.00  0.00    +0.000 C 
ATOM     35  C   UNL     1       0.321  -2.084   0.000  0.00  0.00    +0.000 C 
ENDBRANCH  11  34
BRANCH   1  36
ATOM     36  O   UNL     1       3.426   1.077   0.000  0.00  0.00    +0.000 OA
BRANCH  36  37
ATOM     37  C   UNL     1       4.173   1.428   0.000  0.00  0.00    +0.000 C 
ATOM     38  O   UNL     1       4.851   0.957   0.000  0.00  0.00    +0.000 OA
ATOM     39  C   UNL     1       5.597   1.308   0.000  0.00  0.00    +0.000 C 
ATOM     40  C   UNL     1       6.274   0.838   0.000  0.00  0.00    +0.000 C 
ATOM     41  C   UNL     1       5.666   2.131   0.000  0.00  0.00    +0.000 C 
ATOM     42  C   UNL     1       4.989   2.602   0.000  0.00  0.00    +0.000 C 
ATOM     43  C   UNL     1       4.242   2.250   0.000  0.00  0.00    +0.000 C 
ATOM     44  O   UNL     1       3.565   2.721   0.000  0.00  0.00    +0.000 OA
BRANCH  42  45
ATOM     45  N   UNL     1       5.058   3.424   0.000  0.00  0.00    +0.000 NA
ATOM     46  C   UNL     1       4.380   3.894   0.000  0.00  0.00    +0.000 C 
ATOM     47  C   UNL     1       5.804   3.775   0.000  0.00  0.00    +0.000 C 
ENDBRANCH  42  45
ENDBRANCH  36  37
ENDBRANCH   1  36
BRANCH  30  48
ATOM     48  O   UNL     1       4.074  -2.892   0.000  0.00  0.00    +0.000 OA
BRANCH  48  49
ATOM     49  C   UNL     1       4.480  -3.610   0.000  0.00  0.00    +0.000 C 
BRANCH  49  50
ATOM     50  C   UNL     1       4.061  -4.321   0.000  0.00  0.00    +0.000 A 
ATOM     51  C   UNL     1       4.467  -5.039   0.000  0.00  0.00    +0.000 A 
ATOM     52  N   UNL     1       4.048  -5.750   0.000  0.00  0.00    +0.000 NA
ATOM     53  C   UNL     1       3.223  -5.742   0.000  0.00  0.00    +0.000 A 
ATOM     54  C   UNL     1       2.817  -5.024   0.000  0.00  0.00    +0.000 A 
ATOM     55  C   UNL     1       3.236  -4.314   0.000  0.00  0.00    +0.000 A 
ATOM     56  N   UNL     1       2.804  -6.453   0.000  0.00  0.00    +0.000 N 
ATOM     57  C   UNL     1       3.132  -7.210   0.000  0.00  0.00    +0.000 A 
ATOM     58  C   UNL     1       2.514  -7.756   0.000  0.00  0.00    +0.000 A 
ATOM     59  C   UNL     1       1.804  -7.337   0.000  0.00  0.00    +0.000 A 
ATOM     60  N   UNL     1       1.983  -6.532   0.000  0.00  0.00    +0.000 NA
ENDBRANCH  49  50
ENDBRANCH  48  49
ENDBRANCH  30  48
TORSDOF 8
