REMARK  Name = 
REMARK  7 active torsions:
REMARK  status: ('A' for Active; 'I' for Inactive)
REMARK    1  A    between atoms: C_3  and  C_9
REMARK    2  A    between atoms: C_6  and  C_11
REMARK    3  A    between atoms: C_9  and  C_13
REMARK    4  A    between atoms: C_13  and  C_16
REMARK    5  A    between atoms: C_15  and  C_17
REMARK    6  A    between atoms: C_16  and  C_18
REMARK    7  A    between atoms: C_18  and  C_21
REMARK                            x       y       z     vdW  Elec       q    Type
REMARK                         _______ _______ _______ _____ _____    ______ ____
ROOT
ATOM      1  C   UNL     1      -0.196  -1.147   0.000  0.00  0.00    +0.000 C 
ATOM      2  C   UNL     1      -0.199  -0.322   0.000  0.00  0.00    +0.000 C 
ATOM      3  C   UNL     1       0.519  -1.559   0.000  0.00  0.00    +0.000 C 
ATOM      4  C   UNL     1      -0.907  -1.563   0.000  0.00  0.00    +0.000 C 
ATOM      5  C   UNL     1      -0.210  -1.936   0.000  0.00  0.00    +0.000 C 
ATOM      6  C   UNL     1      -0.907   0.091   0.000  0.00  0.00    +0.000 C 
ATOM      7  C   UNL     1       1.230  -0.315   0.000  0.00  0.00    +0.000 C 
ATOM      8  C   UNL     1       1.234  -1.140   0.000  0.00  0.00    +0.000 C 
ATOM      9  C   UNL     1      -1.621  -1.147   0.000  0.00  0.00    +0.000 C 
ATOM     10  C   UNL     1      -1.621  -0.322   0.000  0.00  0.00    +0.000 C 
ENDROOT
BRANCH   6  11
ATOM     11  C   UNL     1      -0.907   0.919   0.000  0.00  0.00    +0.000 C 
ATOM     12  C   UNL     1      -1.614   1.331   0.000  0.00  0.00    +0.000 C 
BRANCH  12  13
ATOM     13  C   UNL     1      -2.441   1.337   0.000  0.00  0.00    +0.000 C 
ATOM     14  C   UNL     1      -2.853   0.622   0.000  0.00  0.00    +0.000 C 
ATOM     15  C   UNL     1      -2.865   2.074   0.000  0.00  0.00    +0.000 C 
ATOM     16  C   UNL     1      -3.683   0.629   0.000  0.00  0.00    +0.000 C 
ATOM     17  C   UNL     1      -2.547  -0.016   0.000  0.00  0.00    +0.000 C 
ATOM     18  C   UNL     1      -3.678   2.059   0.000  0.00  0.00    +0.000 C 
ATOM     19  C   UNL     1      -4.096   1.343   0.000  0.00  0.00    +0.000 C 
ATOM     20  O   UNL     1      -4.096   2.793   0.000  0.00  0.00    +0.000 OA
ENDBRANCH  12  13
ENDBRANCH   6  11
BRANCH   3  21
ATOM     21  C   UNL     1       0.519  -2.388   0.000  0.00  0.00    +0.000 C 
ATOM     22  C   UNL     1      -0.192  -2.793   0.000  0.00  0.00    +0.000 C 
BRANCH  21  23
ATOM     23  C   UNL     1       1.237  -2.793   0.000  0.00  0.00    +0.000 C 
BRANCH  23  24
ATOM     24  C   UNL     1       1.948  -2.388   0.000  0.00  0.00    +0.000 C 
BRANCH  24  25
ATOM     25  C   UNL     1       2.667  -2.793   0.000  0.00  0.00    +0.000 C 
BRANCH  25  26
ATOM     26  C   UNL     1       3.385  -2.388   0.000  0.00  0.00    +0.000 C 
ATOM     27  C   UNL     1       4.096  -2.793   0.000  0.00  0.00    +0.000 C 
ATOM     28  C   UNL     1       3.385  -1.559   0.000  0.00  0.00    +0.000 C 
ENDBRANCH  25  26
ENDBRANCH  24  25
ENDBRANCH  23  24
ENDBRANCH  21  23
ENDBRANCH   3  21
TORSDOF 7
