REMARK  Name = 
REMARK  0 active torsions:
REMARK  status: ('A' for Active; 'I' for Inactive)
REMARK                            x       y       z     vdW  Elec       q    Type
REMARK                         _______ _______ _______ _____ _____    ______ ____
ROOT
ATOM      1  B   UNL     1       1.053   0.000   0.000  0.00  0.00    +0.000 B 
ATOM      2  B   UNL     1      -1.102   0.000   0.000  0.00  0.00    +0.000 B 
ATOM      3  B   UNL     1      -0.024  -1.078   0.000  0.00  0.00    +0.000 B 
ATOM      4  B   UNL     1      -0.024   1.078   0.000  0.00  0.00    +0.000 B 
ATOM      5  O   UNL     1       1.878   0.000   0.000  0.00  0.00    +0.000 OA
ATOM      6  O   UNL     1      -1.927   0.000   0.000  0.00  0.00    +0.000 OA
ATOM      7  O   UNL     1       0.738  -0.762   0.000  0.00  0.00    +0.000 OA
ATOM      8  O   UNL     1       0.738   0.762   0.000  0.00  0.00    +0.000 OA
ATOM      9  O   UNL     1      -0.787  -0.762   0.000  0.00  0.00    +0.000 OA
ATOM     10  O   UNL     1      -0.787   0.762   0.000  0.00  0.00    +0.000 OA
ATOM     11  O   UNL     1       0.245   0.000   0.000  0.00  0.00    +0.000 OA
ENDROOT
TORSDOF 0
REMARK  Name = 
REMARK  0 active torsions:
REMARK  status: ('A' for Active; 'I' for Inactive)
REMARK                            x       y       z     vdW  Elec       q    Type
REMARK                         _______ _______ _______ _____ _____    ______ ____
ROOT
ATOM      1 NA   UNL     1       4.118   0.000   0.000  0.00  0.00    +0.000 Na
ENDROOT
TORSDOF 0
REMARK  Name = 
REMARK  0 active torsions:
REMARK  status: ('A' for Active; 'I' for Inactive)
REMARK                            x       y       z     vdW  Elec       q    Type
REMARK                         _______ _______ _______ _____ _____    ______ ____
ROOT
ATOM      1 NA   UNL     1       0.000  -2.728   0.000  0.00  0.00    +0.000 Na
ENDROOT
TORSDOF 0
