REMARK  Name = 
REMARK  17 active torsions:
REMARK  status: ('A' for Active; 'I' for Inactive)
REMARK    1  A    between atoms: C_2  and  O_3
REMARK    2  A    between atoms: O_3  and  C_4
REMARK    3  A    between atoms: C_4  and  C_6
REMARK    4  A    between atoms: C_6  and  N_8
REMARK    5  A    between atoms: N_8  and  P_9
REMARK    6  A    between atoms: P_9  and  C_11
REMARK    7  A    between atoms: P_9  and  N_29
REMARK    8  A    between atoms: C_11  and  O_12
REMARK    9  A    between atoms: O_12  and  C_13
REMARK   10  A    between atoms: C_13  and  C_14
REMARK   11  A    between atoms: C_14  and  N_15
REMARK   12  A    between atoms: C_23  and  N_24
REMARK   13  A    between atoms: N_24  and  C_25
REMARK   14  A    between atoms: N_29  and  C_30
REMARK   15  A    between atoms: C_30  and  C_32
REMARK   16  A    between atoms: C_32  and  O_34
REMARK   17  A    between atoms: O_34  and  C_35
REMARK                            x       y       z     vdW  Elec       q    Type
REMARK                         _______ _______ _______ _____ _____    ______ ____
ROOT
ATOM      1  P   UNL     1      -2.522   2.666   0.000  0.00  0.00    +0.000 P 
ATOM      2  O   UNL     1      -3.307   2.412   0.000  0.00  0.00    +0.000 OA
ENDROOT
BRANCH   1   3
ATOM      3  N   UNL     1      -1.738   2.921   0.000  0.00  0.00    +0.000 NA
BRANCH   3   4
ATOM      4  C   UNL     1      -1.566   3.728   0.000  0.00  0.00    +0.000 C 
ATOM      5  C   UNL     1      -2.179   4.280   0.000  0.00  0.00    +0.000 C 
BRANCH   4   6
ATOM      6  C   UNL     1      -0.781   3.983   0.000  0.00  0.00    +0.000 C 
ATOM      7  O   UNL     1      -0.168   3.431   0.000  0.00  0.00    +0.000 OA
BRANCH   6   8
ATOM      8  O   UNL     1      -0.610   4.790   0.000  0.00  0.00    +0.000 OA
BRANCH   8   9
ATOM      9  C   UNL     1      -1.223   5.342   0.000  0.00  0.00    +0.000 C 
ATOM     10  C   UNL     1      -1.052   6.149   0.000  0.00  0.00    +0.000 C 
ENDBRANCH   8   9
ENDBRANCH   6   8
ENDBRANCH   4   6
ENDBRANCH   3   4
ENDBRANCH   1   3
BRANCH   1  11
ATOM     11  C   UNL     1      -2.267   1.882   0.000  0.00  0.00    +0.000 C 
BRANCH  11  12
ATOM     12  O   UNL     1      -1.460   1.710   0.000  0.00  0.00    +0.000 OA
BRANCH  12  13
ATOM     13  C   UNL     1      -1.205   0.926   0.000  0.00  0.00    +0.000 C 
BRANCH  13  14
ATOM     14  C   UNL     1      -0.398   0.754   0.000  0.00  0.00    +0.000 C 
BRANCH  14  15
ATOM     15  N   UNL     1      -0.143  -0.030   0.000  0.00  0.00    +0.000 N 
ATOM     16  C   UNL     1      -0.628  -0.698   0.000  0.00  0.00    +0.000 A 
ATOM     17  N   UNL     1      -0.143  -1.365   0.000  0.00  0.00    +0.000 NA
ATOM     18  C   UNL     1       0.641  -1.110   0.000  0.00  0.00    +0.000 A 
ATOM     19  C   UNL     1       0.641  -0.285   0.000  0.00  0.00    +0.000 A 
ATOM     20  N   UNL     1       1.356   0.127   0.000  0.00  0.00    +0.000 NA
ATOM     21  C   UNL     1       2.070  -0.285   0.000  0.00  0.00    +0.000 A 
ATOM     22  N   UNL     1       2.070  -1.110   0.000  0.00  0.00    +0.000 NA
ATOM     23  C   UNL     1       1.356  -1.523   0.000  0.00  0.00    +0.000 A 
ATOM     24  N   UNL     1       2.784   0.127   0.000  0.00  0.00    +0.000 NA
BRANCH  23  25
ATOM     25  N   UNL     1       1.356  -2.348   0.000  0.00  0.00    +0.000 NA
BRANCH  25  26
ATOM     26  C   UNL     1       0.641  -2.760   0.000  0.00  0.00    +0.000 C 
ATOM     27  C   UNL     1       0.229  -3.475   0.000  0.00  0.00    +0.000 C 
ATOM     28  C   UNL     1      -0.184  -2.760   0.000  0.00  0.00    +0.000 C 
ENDBRANCH  25  26
ENDBRANCH  23  25
ENDBRANCH  14  15
ENDBRANCH  13  14
ENDBRANCH  12  13
ENDBRANCH  11  12
ENDBRANCH   1  11
BRANCH   1  29
ATOM     29  N   UNL     1      -2.777   3.451   0.000  0.00  0.00    +0.000 NA
BRANCH  29  30
ATOM     30  C   UNL     1      -3.584   3.623   0.000  0.00  0.00    +0.000 C 
ATOM     31  C   UNL     1      -4.136   3.010   0.000  0.00  0.00    +0.000 C 
BRANCH  30  32
ATOM     32  C   UNL     1      -3.839   4.407   0.000  0.00  0.00    +0.000 C 
ATOM     33  O   UNL     1      -3.287   5.020   0.000  0.00  0.00    +0.000 OA
BRANCH  32  34
ATOM     34  O   UNL     1      -4.646   4.579   0.000  0.00  0.00    +0.000 OA
BRANCH  34  36
ATOM     35  C   UNL     1      -5.708   5.535   0.000  0.00  0.00    +0.000 C 
ATOM     36  C   UNL     1      -4.901   5.363   0.000  0.00  0.00    +0.000 C 
ENDBRANCH  34  36
ENDBRANCH  32  34
ENDBRANCH  30  32
ENDBRANCH  29  30
ENDBRANCH   1  29
TORSDOF 17
