REMARK  Name = 
REMARK  5 active torsions:
REMARK  status: ('A' for Active; 'I' for Inactive)
REMARK    1  A    between atoms: C_4  and  C_32
REMARK    2  A    between atoms: C_16  and  N_27
REMARK    3  A    between atoms: C_18  and  C_23
REMARK    4  A    between atoms: C_32  and  N_33
REMARK    5  A    between atoms: N_33  and  O_34
REMARK                            x       y       z     vdW  Elec       q    Type
REMARK                         _______ _______ _______ _____ _____    ______ ____
ROOT
ATOM      1  C   UNL     1      -2.143   1.429   0.000  0.00  0.00    +0.000 A 
ATOM      2  C   UNL     1      -2.858   1.016   0.000  0.00  0.00    +0.000 A 
ATOM      3  C   UNL     1      -2.858   0.192   0.000  0.00  0.00    +0.000 A 
ATOM      4  C   UNL     1      -2.143  -0.221   0.000  0.00  0.00    +0.000 A 
ATOM      5  C   UNL     1      -1.429   0.192   0.000  0.00  0.00    +0.000 A 
ATOM      6  C   UNL     1      -1.429   1.016   0.000  0.00  0.00    +0.000 A 
ATOM      7  C   UNL     1      -0.714   1.429   0.000  0.00  0.00    +0.000 C 
ATOM      8  C   UNL     1      -0.714  -0.221   0.000  0.00  0.00    +0.000 C 
ATOM      9  C   UNL     1       0.000   0.191   0.000  0.00  0.00    +0.000 C 
ATOM     10  C   UNL     1       0.000   1.016   0.000  0.00  0.00    +0.000 C 
ATOM     11  C   UNL     1       0.715   1.429   0.000  0.00  0.00    +0.000 C 
ATOM     12  C   UNL     1       0.714  -0.221   0.000  0.00  0.00    +0.000 C 
ATOM     13  C   UNL     1       1.429   0.221   0.000  0.00  0.00    +0.000 C 
ATOM     14  C   UNL     1       1.429   1.046   0.000  0.00  0.00    +0.000 C 
ATOM     15  C   UNL     1       2.143   1.458   0.000  0.00  0.00    +0.000 C 
ATOM     16  C   UNL     1       2.143  -0.192   0.000  0.00  0.00    +0.000 C 
ATOM     17  C   UNL     1       2.858   0.221   0.000  0.00  0.00    +0.000 C 
ATOM     18  C   UNL     1       2.858   1.046   0.000  0.00  0.00    +0.000 C 
ATOM     19  O   UNL     1      -2.143   2.254   0.000  0.00  0.00    +0.000 OA
ATOM     20  O   UNL     1      -0.714   2.254   0.000  0.00  0.00    +0.000 OA
ATOM     21  O   UNL     1       0.715   2.254   0.000  0.00  0.00    +0.000 OA
ATOM     22  O   UNL     1       2.143   2.283   0.000  0.00  0.00    +0.000 OA
ATOM     23  O   UNL     1       3.572  -0.192   0.000  0.00  0.00    +0.000 OA
ATOM     24  O   UNL     1       1.429   1.871   0.000  0.00  0.00    +0.000 OA
ENDROOT
BRANCH  18  25
ATOM     25  C   UNL     1       3.572   1.458   0.000  0.00  0.00    +0.000 C 
ATOM     26  O   UNL     1       3.572   2.283   0.000  0.00  0.00    +0.000 OA
ATOM     27  N   UNL     1       4.287   1.046   0.000  0.00  0.00    +0.000 NA
ENDBRANCH  18  25
BRANCH  16  28
ATOM     28  N   UNL     1       2.143  -1.017   0.000  0.00  0.00    +0.000 NA
ATOM     29  C   UNL     1       2.858  -1.429   0.000  0.00  0.00    +0.000 C 
ATOM     30  C   UNL     1       1.429  -1.429   0.000  0.00  0.00    +0.000 C 
ENDBRANCH  16  28
BRANCH   4  31
ATOM     31  C   UNL     1      -2.143  -1.046   0.000  0.00  0.00    +0.000 C 
BRANCH  31  32
ATOM     32  N   UNL     1      -2.858  -1.458   0.000  0.00  0.00    +0.000 NA
ATOM     33  C   UNL     1      -2.858  -2.283   0.000  0.00  0.00    +0.000 C 
BRANCH  32  34
ATOM     34  O   UNL     1      -3.572  -1.046   0.000  0.00  0.00    +0.000 OA
ATOM     35  C   UNL     1      -4.287  -1.458   0.000  0.00  0.00    +0.000 C 
ENDBRANCH  32  34
ENDBRANCH  31  32
ENDBRANCH   4  31
TORSDOF 5
