REMARK  Name = 
REMARK  11 active torsions:
REMARK  status: ('A' for Active; 'I' for Inactive)
REMARK    1  A    between atoms: C_2  and  O_3
REMARK    2  A    between atoms: O_3  and  C_4
REMARK    3  A    between atoms: C_5  and  N_6
REMARK    4  A    between atoms: C_7  and  C_9
REMARK    5  A    between atoms: C_10  and  C_11
REMARK    6  A    between atoms: C_23  and  C_24
REMARK    7  A    between atoms: C_26  and  N_27
REMARK    8  A    between atoms: N_27  and  C_28
REMARK    9  A    between atoms: C_31  and  O_32
REMARK   10  A    between atoms: O_32  and  C_33
REMARK   11  A    between atoms: C_33  and  C_34
REMARK                            x       y       z     vdW  Elec       q    Type
REMARK                         _______ _______ _______ _____ _____    ______ ____
ROOT
ATOM      1  C   UNL     1      -0.715  -0.412   0.000  0.00  0.00    +0.000 A 
ATOM      2  C   UNL     1      -0.715  -1.238   0.000  0.00  0.00    +0.000 A 
ATOM      3  C   UNL     1       0.000  -1.650   0.000  0.00  0.00    +0.000 A 
ATOM      4  C   UNL     1       0.715  -1.238   0.000  0.00  0.00    +0.000 A 
ATOM      5  C   UNL     1       0.715  -0.412   0.000  0.00  0.00    +0.000 A 
ATOM      6  C   UNL     1       0.000   0.000   0.000  0.00  0.00    +0.000 A 
ATOM      7  N   UNL     1       1.429   0.000   0.000  0.00  0.00    +0.000 NA
ATOM      8  C   UNL     1       2.143  -0.412   0.000  0.00  0.00    +0.000 A 
ATOM      9  C   UNL     1       2.143  -1.238   0.000  0.00  0.00    +0.000 A 
ATOM     10  C   UNL     1       1.429  -1.650   0.000  0.00  0.00    +0.000 A 
ENDROOT
BRANCH   2  11
ATOM     11  N   UNL     1      -1.429  -1.650   0.000  0.00  0.00    +0.000 NA
ATOM     12  C   UNL     1      -2.143  -1.238   0.000  0.00  0.00    +0.000 C 
ATOM     13  O   UNL     1      -2.143  -0.412   0.000  0.00  0.00    +0.000 OA
BRANCH  12  14
ATOM     14  C   UNL     1      -2.858  -1.650   0.000  0.00  0.00    +0.000 C 
ATOM     15  C   UNL     1      -2.858  -2.475   0.000  0.00  0.00    +0.000 C 
BRANCH  15  16
ATOM     16  C   UNL     1      -3.572  -2.888   0.000  0.00  0.00    +0.000 C 
ATOM     17  C   UNL     1      -3.659  -3.708   0.000  0.00  0.00    +0.000 C 
ATOM     18  C   UNL     1      -4.466  -3.880   0.000  0.00  0.00    +0.000 C 
ATOM     19  C   UNL     1      -4.878  -3.165   0.000  0.00  0.00    +0.000 C 
ATOM     20  N   UNL     1      -4.326  -2.552   0.000  0.00  0.00    +0.000 NA
ATOM     21  C   UNL     1      -4.498  -1.745   0.000  0.00  0.00    +0.000 C 
ENDBRANCH  15  16
ENDBRANCH  12  14
ENDBRANCH   2  11
BRANCH   9  22
ATOM     22  C   UNL     1       2.858  -1.650   0.000  0.00  0.00    +0.000 C 
ATOM     23  N   UNL     1       3.572  -2.062   0.000  0.00  0.00    +0.000 NA
ENDBRANCH   9  22
BRANCH  10  24
ATOM     24  N   UNL     1       1.429  -2.475   0.000  0.00  0.00    +0.000 NA
BRANCH  24  25
ATOM     25  C   UNL     1       0.715  -2.888   0.000  0.00  0.00    +0.000 A 
ATOM     26  C   UNL     1       0.000  -2.475   0.000  0.00  0.00    +0.000 A 
ATOM     27  C   UNL     1      -0.715  -2.888   0.000  0.00  0.00    +0.000 A 
ATOM     28  C   UNL     1      -0.715  -3.712   0.000  0.00  0.00    +0.000 A 
ATOM     29  C   UNL     1       0.000  -4.125   0.000  0.00  0.00    +0.000 A 
ATOM     30 CL   UNL     1       0.000  -4.950   0.000  0.00  0.00    +0.000 Cl
ATOM     31  C   UNL     1       0.715  -3.712   0.000  0.00  0.00    +0.000 A 
BRANCH  28  32
ATOM     32  O   UNL     1      -1.429  -4.125   0.000  0.00  0.00    +0.000 OA
BRANCH  32  33
ATOM     33  C   UNL     1      -1.429  -4.950   0.000  0.00  0.00    +0.000 C 
BRANCH  33  34
ATOM     34  C   UNL     1      -2.143  -5.362   0.000  0.00  0.00    +0.000 A 
ATOM     35  N   UNL     1      -2.858  -4.950   0.000  0.00  0.00    +0.000 NA
ATOM     36  C   UNL     1      -3.572  -5.362   0.000  0.00  0.00    +0.000 A 
ATOM     37  C   UNL     1      -3.572  -6.188   0.000  0.00  0.00    +0.000 A 
ATOM     38  C   UNL     1      -2.858  -6.600   0.000  0.00  0.00    +0.000 A 
ATOM     39  C   UNL     1      -2.143  -6.188   0.000  0.00  0.00    +0.000 A 
ENDBRANCH  33  34
ENDBRANCH  32  33
ENDBRANCH  28  32
ENDBRANCH  24  25
ENDBRANCH  10  24
BRANCH   1  40
ATOM     40  O   UNL     1      -1.429   0.000   0.000  0.00  0.00    +0.000 OA
BRANCH  40  42
ATOM     41  C   UNL     1      -0.715   1.238   0.000  0.00  0.00    +0.000 C 
ATOM     42  C   UNL     1      -1.429   0.825   0.000  0.00  0.00    +0.000 C 
ENDBRANCH  40  42
ENDBRANCH   1  40
TORSDOF 11
