REMARK  Name = 
REMARK  127 active torsions:
REMARK  status: ('A' for Active; 'I' for Inactive)
REMARK    1  A    between atoms: O_5  and  C_111
REMARK    2  A    between atoms: O_8  and  C_117
REMARK    3  A    between atoms: O_9  and  C_118
REMARK    4  A    between atoms: O_10  and  C_124
REMARK    5  A    between atoms: O_17  and  C_143
REMARK    6  A    between atoms: OG1_30  and  CB_201
REMARK    7  A    between atoms: O_35  and  C_222
REMARK    8  A    between atoms: O_39  and  C_225
REMARK    9  A    between atoms: OG_43  and  CB_226
REMARK   10  A    between atoms: N_49  and  C_97
REMARK   11  A    between atoms: N_50  and  C_96
REMARK   12  A    between atoms: N_52  and  C_112
REMARK   13  A    between atoms: N_53  and  C_108
REMARK   14  A    between atoms: N_54  and  C_110
REMARK   15  A    between atoms: N_55  and  C_115
REMARK   16  A    between atoms: N_57  and  C_129
REMARK   17  A    between atoms: N_58  and  C_125
REMARK   18  A    between atoms: N_60  and  C_133
REMARK   19  A    between atoms: N_61  and  C_140
REMARK   20  A    between atoms: N_63  and  C_135
REMARK   21  A    between atoms: N_65  and  C_147
REMARK   22  A    between atoms: N_66  and  C_155
REMARK   23  A    between atoms: N_67  and  C_151
REMARK   24  A    between atoms: N_68  and  C_160
REMARK   25  A    between atoms: N_69  and  C_161
REMARK   26  A    between atoms: N_70  and  C_163
REMARK   27  A    between atoms: N_72  and  CA_168
REMARK   28  A    between atoms: N_73  and  CA_177
REMARK   29  A    between atoms: N_76  and  C_174
REMARK   30  A    between atoms: N_77  and  CA_209
REMARK   31  A    between atoms: N_78  and  CA_193
REMARK   32  A    between atoms: N_80  and  C_192
REMARK   33  A    between atoms: N_81  and  CA_199
REMARK   34  A    between atoms: N_82  and  C_207
REMARK   35  A    between atoms: NZ_86  and  CE_227
REMARK   36  A    between atoms: N_88  and  C_234
REMARK   37  A    between atoms: C_90  and  C_95
REMARK   38  A    between atoms: C_94  and  C_96
REMARK   39  A    between atoms: C_96  and  C_98
REMARK   40  A    between atoms: C_97  and  C_99
REMARK   41  A    between atoms: C_97  and  C_102
REMARK   42  A    between atoms: C_98  and  C_100
REMARK   43  A    between atoms: C_99  and  C_104
REMARK   44  A    between atoms: C_101  and  C_116
REMARK   45  A    between atoms: C_104  and  C_110
REMARK   46  A    between atoms: C_107  and  C_108
REMARK   47  A    between atoms: C_108  and  C_111
REMARK   48  A    between atoms: C_109  and  C_115
REMARK   49  A    between atoms: C_111  and  C_121
REMARK   50  A    between atoms: C_112  and  C_117
REMARK   51  A    between atoms: C_112  and  C_122
REMARK   52  A    between atoms: C_115  and  C_118
REMARK   53  A    between atoms: C_117  and  C_126
REMARK   54  A    between atoms: C_118  and  C_127
REMARK   55  A    between atoms: C_123  and  C_125
REMARK   56  A    between atoms: C_125  and  C_128
REMARK   57  A    between atoms: C_128  and  C_132
REMARK   58  A    between atoms: C_129  and  C_136
REMARK   59  A    between atoms: C_129  and  C_138
REMARK   60  A    between atoms: C_130  and  C_135
REMARK   61  A    between atoms: C_132  and  C_141
REMARK   62  A    between atoms: C_133  and  C_134
REMARK   63  A    between atoms: C_133  and  C_137
REMARK   64  A    between atoms: C_136  and  C_143
REMARK   65  A    between atoms: C_137  and  C_139
REMARK   66  A    between atoms: C_139  and  C_145
REMARK   67  A    between atoms: C_139  and  C_146
REMARK   68  A    between atoms: C_140  and  C_142
REMARK   69  A    between atoms: C_140  and  C_149
REMARK   70  A    between atoms: C_142  and  C_152
REMARK   71  A    between atoms: C_142  and  C_153
REMARK   72  A    between atoms: C_144  and  C_147
REMARK   73  A    between atoms: C_147  and  C_150
REMARK   74  A    between atoms: C_148  and  C_151
REMARK   75  A    between atoms: C_150  and  C_154
REMARK   76  A    between atoms: C_151  and  C_156
REMARK   77  A    between atoms: C_154  and  C_157
REMARK   78  A    between atoms: C_155  and  C_159
REMARK   79  A    between atoms: C_157  and  C_161
REMARK   80  A    between atoms: C_158  and  C_160
REMARK   81  A    between atoms: C_160  and  C_162
REMARK   82  A    between atoms: C_162  and  C_166
REMARK   83  A    between atoms: C_163  and  C_164
REMARK   84  A    between atoms: C_163  and  C_165
REMARK   85  A    between atoms: C_165  and  C_167
REMARK   86  A    between atoms: C_167  and  C_172
REMARK   87  A    between atoms: C_167  and  C_173
REMARK   88  A    between atoms: CA_168  and  CB_169
REMARK   89  A    between atoms: CA_168  and  C_181
REMARK   90  A    between atoms: CB_169  and  CG1_186
REMARK   91  A    between atoms: CB_169  and  CG2_187
REMARK   92  A    between atoms: C_170  and  C_182
REMARK   93  A    between atoms: C_174  and  C_175
REMARK   94  A    between atoms: C_174  and  C_183
REMARK   95  A    between atoms: CA_177  and  CB_178
REMARK   96  A    between atoms: CA_177  and  C_190
REMARK   97  A    between atoms: CB_178  and  CG_180
REMARK   98  A    between atoms: CG_180  and  CD1_194
REMARK   99  A    between atoms: CG_180  and  CD2_195
REMARK  100  A    between atoms: C_183  and  C_196
REMARK  101  A    between atoms: CA_188  and  CB_201
REMARK  102  A    between atoms: C_192  and  C_198
REMARK  103  A    between atoms: C_192  and  C_204
REMARK  104  A    between atoms: CA_193  and  CB_197
REMARK  105  A    between atoms: CA_193  and  C_206
REMARK  106  A    between atoms: C_196  and  C_222
REMARK  107  A    between atoms: CB_197  and  CG_200
REMARK  108  A    between atoms: CA_199  and  CB_202
REMARK  109  A    between atoms: CA_199  and  C_205
REMARK  110  A    between atoms: CG_200  and  CD1_216
REMARK  111  A    between atoms: CG_200  and  CD2_217
REMARK  112  A    between atoms: CB_201  and  CG2_218
REMARK  113  A    between atoms: CB_202  and  CG_208
REMARK  114  A    between atoms: C_204  and  C_219
REMARK  115  A    between atoms: C_207  and  C_213
REMARK  116  A    between atoms: C_207  and  C_225
REMARK  117  A    between atoms: CG_208  and  CD_221
REMARK  118  A    between atoms: CA_209  and  C_215
REMARK  119  A    between atoms: CA_210  and  CB_212
REMARK  120  A    between atoms: CA_211  and  CB_226
REMARK  121  A    between atoms: CB_212  and  CG_220
REMARK  122  A    between atoms: C_219  and  C_232
REMARK  123  A    between atoms: CG_220  and  CD1_228
REMARK  124  A    between atoms: CG_220  and  CD2_229
REMARK  125  A    between atoms: CD_221  and  CE_227
REMARK  126  A    between atoms: CA_230  and  CB_235
REMARK  127  A    between atoms: CB_235  and  CG_237
REMARK                            x       y       z     vdW  Elec       q    Type
REMARK                         _______ _______ _______ _____ _____    ______ ____
ROOT
ATOM      1  C   UNK A  12       3.151   5.085   0.000  0.00  0.00    +0.000 C 
ENDROOT
BRANCH   1   4
ATOM      2  O   UNK A  12       2.903   6.492   0.000  0.00  0.00    +0.000 OA
ATOM      3  N   UNK A  12       1.809   5.574   0.000  0.00  0.00    +0.000 N 
ATOM      4  C   UNK A  12       2.621   5.717   0.000  0.00  0.00    +0.000 C 
ATOM      5  H   UNK A  12       1.634   5.093   0.000  0.00  0.00    +0.000 HD
BRANCH   3   6
ATOM      6  C   UNK A  12       1.278   6.205   0.000  0.00  0.00    +0.000 C 
BRANCH   6   9
ATOM      7  O   UNK A  12       0.184   5.287   0.000  0.00  0.00    +0.000 OA
ATOM      8  N   UNK A  12      -0.064   6.694   0.000  0.00  0.00    +0.000 N 
ATOM      9  C   UNK A  12       0.466   6.062   0.000  0.00  0.00    +0.000 C 
ATOM     10  H   UNK A  12       0.111   7.175   0.000  0.00  0.00    +0.000 HD
BRANCH   8  11
ATOM     11  C   UNK A  12      -0.877   6.551   0.000  0.00  0.00    +0.000 C 
BRANCH  11  14
ATOM     12  O   UNK A  12      -1.125   7.958   0.000  0.00  0.00    +0.000 OA
ATOM     13  N   UNK A  12      -2.220   7.040   0.000  0.00  0.00    +0.000 N 
ATOM     14  C   UNK A  12      -1.407   7.183   0.000  0.00  0.00    +0.000 C 
ATOM     15  H   UNK A  12      -2.395   6.559   0.000  0.00  0.00    +0.000 HD
BRANCH  13  16
ATOM     16  C   UNK A  12      -2.750   7.672   0.000  0.00  0.00    +0.000 C 
BRANCH  16  19
ATOM     17  O   UNK A  12      -3.845   6.753   0.000  0.00  0.00    +0.000 OA
ATOM     18  N   UNK A  12      -4.093   8.160   0.000  0.00  0.00    +0.000 N 
ATOM     19  C   UNK A  12      -3.562   7.528   0.000  0.00  0.00    +0.000 C 
ATOM     20  H   UNK A  12      -3.918   8.641   0.000  0.00  0.00    +0.000 HD
BRANCH  18  21
ATOM     21  C   UNK A  12      -4.905   8.017   0.000  0.00  0.00    +0.000 C 
BRANCH  21  24
ATOM     22  O   UNK A  12      -5.153   9.424   0.000  0.00  0.00    +0.000 OA
ATOM     23  N   UNK A  12      -6.248   8.506   0.000  0.00  0.00    +0.000 N 
ATOM     24  C   UNK A  12      -5.436   8.649   0.000  0.00  0.00    +0.000 C 
ATOM     25  H   UNK A  12      -6.423   8.025   0.000  0.00  0.00    +0.000 HD
BRANCH  23  26
ATOM     26  C   UNK A  12      -6.778   9.138   0.000  0.00  0.00    +0.000 C 
BRANCH  26  33
ATOM     27  O   UNK A  12      -8.121   9.627   0.000  0.00  0.00    +0.000 OA
ATOM     28  N   UNK A  12      -7.873   8.219   0.000  0.00  0.00    +0.000 N 
ATOM     29  C   UNK A  12      -8.666   7.992   0.000  0.00  0.00    +0.000 C 
ATOM     30  C   UNK A  12      -8.695   7.168   0.000  0.00  0.00    +0.000 C 
ATOM     31  C   UNK A  12      -7.920   6.885   0.000  0.00  0.00    +0.000 C 
ATOM     32  C   UNK A  12      -7.412   7.535   0.000  0.00  0.00    +0.000 C 
ATOM     33  C   UNK A  12      -7.591   8.995   0.000  0.00  0.00    +0.000 C 
BRANCH  29  36
ATOM     34  O   UNK A  12      -9.201   9.317   0.000  0.00  0.00    +0.000 OA
ATOM     35  N   UNK A  12     -10.081   8.191   0.000  0.00  0.00    +0.000 N 
ATOM     36  C   UNK A  12      -9.316   8.500   0.000  0.00  0.00    +0.000 C 
ATOM     37  H   UNK A  12     -10.152   7.684   0.000  0.00  0.00    +0.000 HD
BRANCH  35  38
ATOM     38  C   UNK A  12     -10.731   8.699   0.000  0.00  0.00    +0.000 C 
BRANCH  38  41
ATOM     39  O   UNK A  12     -11.611   7.573   0.000  0.00  0.00    +0.000 OA
ATOM     40  N   UNK A  12     -12.146   8.898   0.000  0.00  0.00    +0.000 N 
ATOM     41  C   UNK A  12     -11.496   8.390   0.000  0.00  0.00    +0.000 C 
ATOM     42  H   UNK A  12     -12.075   9.404   0.000  0.00  0.00    +0.000 HD
BRANCH  40  43
ATOM     43  C   UNK A  12     -12.911   8.589   0.000  0.00  0.00    +0.000 C 
BRANCH  43  46
ATOM     44  O   UNK A  12     -13.447   9.914   0.000  0.00  0.00    +0.000 OA
ATOM     45  N   UNK A  12     -14.326   8.788   0.000  0.00  0.00    +0.000 N 
ATOM     46  C   UNK A  12     -13.561   9.097   0.000  0.00  0.00    +0.000 C 
ATOM     47  H   UNK A  12     -14.398   8.281   0.000  0.00  0.00    +0.000 HD
BRANCH  45  48
ATOM     48  C   UNK A  12     -14.976   9.296   0.000  0.00  0.00    +0.000 C 
BRANCH  48  51
ATOM     49  O   UNK A  12     -16.391   9.494   0.000  0.00  0.00    +0.000 OA
ATOM     50  N   UNK A  12     -15.856   8.169   0.000  0.00  0.00    +0.000 N 
ATOM     51  C   UNK A  12     -15.741   8.986   0.000  0.00  0.00    +0.000 C 
ATOM     52  H   UNK A  12     -15.453   7.854   0.000  0.00  0.00    +0.000 HD
BRANCH  50  53
ATOM     53  C   UNK A  12     -16.621   7.860   0.000  0.00  0.00    +0.000 C 
BRANCH  53  56
ATOM     54  O   UNK A  12     -16.086   6.535   0.000  0.00  0.00    +0.000 OA
ATOM     55  N   UNK A  12     -17.501   6.734   0.000  0.00  0.00    +0.000 N 
ATOM     56  C   UNK A  12     -16.736   7.043   0.000  0.00  0.00    +0.000 C 
ATOM     57  H   UNK A  12     -17.904   7.049   0.000  0.00  0.00    +0.000 HD
BRANCH  55  58
ATOM     58  C   UNK A  12     -17.616   5.917   0.000  0.00  0.00    +0.000 C 
BRANCH  58  61
ATOM     59  O   UNK A  12     -19.031   6.116   0.000  0.00  0.00    +0.000 OA
ATOM     60  N   UNK A  12     -18.495   4.791   0.000  0.00  0.00    +0.000 N 
ATOM     61  C   UNK A  12     -18.381   5.608   0.000  0.00  0.00    +0.000 C 
ATOM     62  H   UNK A  12     -18.092   4.476   0.000  0.00  0.00    +0.000 HD
BRANCH  60  63
ATOM     63  C   UNK A  12     -19.260   4.482   0.000  0.00  0.00    +0.000 C 
ATOM     64  C   UNK A  12     -19.910   4.990   0.000  0.00  0.00    +0.000 C 
BRANCH  63  67
ATOM     65  O   UNK A  12     -18.725   3.157   0.000  0.00  0.00    +0.000 OA
ATOM     66  N   UNK A  12     -20.140   3.356   0.000  0.00  0.00    +0.000 N 
ATOM     67  C   UNK A  12     -19.375   3.665   0.000  0.00  0.00    +0.000 C 
ATOM     68  H   UNK A  12     -20.543   3.671   0.000  0.00  0.00    +0.000 HD
BRANCH  66  69
ATOM     69  C   UNK A  12     -20.255   2.539   0.000  0.00  0.00    +0.000 C 
BRANCH  69  72
ATOM     70  O   UNK A  12     -21.670   2.738   0.000  0.00  0.00    +0.000 OA
ATOM     71  N   UNK A  12     -21.135   1.413   0.000  0.00  0.00    +0.000 N 
ATOM     72  C   UNK A  12     -21.020   2.230   0.000  0.00  0.00    +0.000 C 
ATOM     73  H   UNK A  12     -20.732   1.098   0.000  0.00  0.00    +0.000 HD
BRANCH  71  74
ATOM     74  C   UNK A  12     -21.900   1.104   0.000  0.00  0.00    +0.000 C 
BRANCH  74  81
ATOM     75  O   UNK A  12     -21.364  -0.221   0.000  0.00  0.00    +0.000 OA
ATOM     76  N   UNK A  12     -22.779  -0.022   0.000  0.00  0.00    +0.000 N 
ATOM     77  C   UNK A  12     -22.979  -0.823   0.000  0.00  0.00    +0.000 C 
ATOM     78  C   UNK A  12     -23.802  -0.880   0.000  0.00  0.00    +0.000 C 
ATOM     79  C   UNK A  12     -24.111  -0.115   0.000  0.00  0.00    +0.000 C 
ATOM     80  C   UNK A  12     -23.479   0.415   0.000  0.00  0.00    +0.000 C 
ATOM     81  C   UNK A  12     -22.015   0.287   0.000  0.00  0.00    +0.000 C 
BRANCH  77  84
ATOM     82  O   UNK A  12     -21.636  -1.311   0.000  0.00  0.00    +0.000 OA
ATOM     83  N   UNK A  12     -22.731  -2.230   0.000  0.00  0.00    +0.000 N 
ATOM     84  C   UNK A  12     -22.449  -1.454   0.000  0.00  0.00    +0.000 C 
ATOM     85  H   UNK A  12     -23.235  -2.318   0.000  0.00  0.00    +0.000 HD
ATOM     86  H   UNK A  12     -22.402  -2.622   0.000  0.00  0.00    +0.000 HD
ENDBRANCH  77  84
ENDBRANCH  74  81
BRANCH  74  87
ATOM     87  C   UNK A  12     -22.550   1.612   0.000  0.00  0.00    +0.000 C 
ATOM     88  C   UNK A  12     -22.435   2.429   0.000  0.00  0.00    +0.000 C 
BRANCH  87  89
ATOM     89  O   UNK A  12     -23.315   1.303   0.000  0.00  0.00    +0.000 OA
ATOM     90  H   UNK A  12     -23.718   1.618   0.000  0.00  0.00    +0.000 HD
ENDBRANCH  87  89
ENDBRANCH  74  87
ENDBRANCH  71  74
ENDBRANCH  69  72
ENDBRANCH  66  69
ENDBRANCH  63  67
ENDBRANCH  60  63
ENDBRANCH  58  61
ENDBRANCH  55  58
ENDBRANCH  53  56
BRANCH  53  91
ATOM     91  C   UNK A  12     -17.271   8.368   0.000  0.00  0.00    +0.000 C 
ATOM     92  C   UNK A  12     -18.036   8.059   0.000  0.00  0.00    +0.000 C 
ATOM     93  C   UNK A  12     -17.156   9.185   0.000  0.00  0.00    +0.000 C 
ENDBRANCH  53  91
ENDBRANCH  50  53
ENDBRANCH  48  51
BRANCH  48  94
ATOM     94  C   UNK A  12     -14.862  10.113   0.000  0.00  0.00    +0.000 C 
BRANCH  94  96
ATOM     95  O   UNK A  12     -16.277  10.311   0.000  0.00  0.00    +0.000 OA
ATOM     96  C   UNK A  12     -15.512  10.620   0.000  0.00  0.00    +0.000 C 
BRANCH  96  97
ATOM     97  O   UNK A  12     -15.397  11.437   0.000  0.00  0.00    +0.000 OA
ATOM     98  H   UNK A  12     -15.800  11.752   0.000  0.00  0.00    +0.000 HD
ENDBRANCH  96  97
ENDBRANCH  94  96
ENDBRANCH  48  94
ENDBRANCH  45  48
ENDBRANCH  43  46
BRANCH  43  99
ATOM     99  C   UNK A  12     -13.026   7.772   0.000  0.00  0.00    +0.000 C 
ATOM    100  C   UNK A  12     -12.376   7.264   0.000  0.00  0.00    +0.000 C 
BRANCH  99 101
ATOM    101  O   UNK A  12     -13.791   7.463   0.000  0.00  0.00    +0.000 OA
ATOM    102  H   UNK A  12     -13.862   6.956   0.000  0.00  0.00    +0.000 HD
ENDBRANCH  99 101
ENDBRANCH  43  99
ENDBRANCH  40  43
ENDBRANCH  38  41
BRANCH  38 103
ATOM    103  C   UNK A  12     -10.616   9.516   0.000  0.00  0.00    +0.000 C 
BRANCH 103 104
ATOM    104  C   UNK A  12     -11.267  10.024   0.000  0.00  0.00    +0.000 C 
BRANCH 104 105
ATOM    105  C   UNK A  12     -11.152  10.841   0.000  0.00  0.00    +0.000 C 
BRANCH 105 106
ATOM    106  N   UNK A  12     -11.802  11.349   0.000  0.00  0.00    +0.000 N 
ATOM    107  N   UNK A  12     -13.217  11.547   0.000  0.00  0.00    +0.000 N 
ATOM    108  N   UNK A  12     -12.682  10.223   0.000  0.00  0.00    +0.000 NA
ATOM    109  C   UNK A  12     -12.567  11.040   0.000  0.00  0.00    +0.000 C 
ATOM    110  H   UNK A  12     -11.731  11.855   0.000  0.00  0.00    +0.000 HD
ATOM    111  H   UNK A  12     -13.691  11.356   0.000  0.00  0.00    +0.000 HD
ATOM    112  H   UNK A  12     -13.146  12.054   0.000  0.00  0.00    +0.000 HD
ATOM    113  H   UNK A  12     -12.278   9.908   0.000  0.00  0.00    +0.000 HD
ENDBRANCH 105 106
ENDBRANCH 104 105
ENDBRANCH 103 104
ENDBRANCH  38 103
ENDBRANCH  35  38
ENDBRANCH  29  36
ENDBRANCH  26  33
BRANCH  26 114
ATOM    114  C   UNK A  12      -6.496   9.913   0.000  0.00  0.00    +0.000 C 
BRANCH 114 115
ATOM    115  C   UNK A  12      -7.027  10.545   0.000  0.00  0.00    +0.000 A 
ATOM    116  C   UNK A  12      -7.839  10.402   0.000  0.00  0.00    +0.000 A 
ATOM    117  C   UNK A  12      -6.744  11.320   0.000  0.00  0.00    +0.000 A 
ATOM    118  C   UNK A  12      -8.369  11.034   0.000  0.00  0.00    +0.000 A 
ATOM    119  C   UNK A  12      -7.275  11.952   0.000  0.00  0.00    +0.000 A 
ATOM    120  C   UNK A  12      -8.087  11.809   0.000  0.00  0.00    +0.000 A 
BRANCH 120 121
ATOM    121  O   UNK A  12      -8.617  12.441   0.000  0.00  0.00    +0.000 OA
ATOM    122  H   UNK A  12      -8.442  12.922   0.000  0.00  0.00    +0.000 HD
ENDBRANCH 120 121
ENDBRANCH 114 115
ENDBRANCH  26 114
ENDBRANCH  23  26
ENDBRANCH  21  24
BRANCH  21 123
ATOM    123  C   UNK A  12      -5.187   7.242   0.000  0.00  0.00    +0.000 C 
ATOM    124  C   UNK A  12      -4.657   6.610   0.000  0.00  0.00    +0.000 C 
BRANCH 123 125
ATOM    125  O   UNK A  12      -6.000   7.099   0.000  0.00  0.00    +0.000 OA
ATOM    126  H   UNK A  12      -6.175   6.618   0.000  0.00  0.00    +0.000 HD
ENDBRANCH 123 125
ENDBRANCH  21 123
ENDBRANCH  18  21
ENDBRANCH  16  19
BRANCH  16 127
ATOM    127  C   UNK A  12      -2.468   8.447   0.000  0.00  0.00    +0.000 C 
BRANCH 127 128
ATOM    128  C   UNK A  12      -2.998   9.079   0.000  0.00  0.00    +0.000 C 
BRANCH 128 131
ATOM    129  O   UNK A  12      -1.903   9.997   0.000  0.00  0.00    +0.000 OA
ATOM    130  N   UNK A  12      -3.246  10.486   0.000  0.00  0.00    +0.000 N 
ATOM    131  C   UNK A  12      -2.716   9.854   0.000  0.00  0.00    +0.000 C 
ATOM    132  H   UNK A  12      -3.071  10.967   0.000  0.00  0.00    +0.000 HD
ATOM    133  H   UNK A  12      -3.750  10.397   0.000  0.00  0.00    +0.000 HD
ENDBRANCH 128 131
ENDBRANCH 127 128
ENDBRANCH  16 127
ENDBRANCH  13  16
ENDBRANCH  11  14
BRANCH  11 134
ATOM    134  C   UNK A  12      -1.159   5.776   0.000  0.00  0.00    +0.000 C 
BRANCH 134 135
ATOM    135  C   UNK A  12      -1.791   5.245   0.000  0.00  0.00    +0.000 C 
ATOM    136  C   UNK A  12      -1.648   4.433   0.000  0.00  0.00    +0.000 C 
ATOM    137  C   UNK A  12      -2.566   5.528   0.000  0.00  0.00    +0.000 C 
ENDBRANCH 134 135
ENDBRANCH  11 134
ENDBRANCH   8  11
ENDBRANCH   6   9
BRANCH   6 138
ATOM    138  C   UNK A  12       1.561   6.981   0.000  0.00  0.00    +0.000 C 
BRANCH 138 139
ATOM    139  C   UNK A  12       1.030   7.613   0.000  0.00  0.00    +0.000 C 
BRANCH 139 140
ATOM    140  C   UNK A  12       1.312   8.388   0.000  0.00  0.00    +0.000 C 
BRANCH 140 141
ATOM    141  C   UNK A  12       0.782   9.020   0.000  0.00  0.00    +0.000 C 
BRANCH 141 142
ATOM    142  N   UNK A  12       1.064   9.795   0.000  0.00  0.00    +0.000 NA
ATOM    143  H   UNK A  12       0.736  10.187   0.000  0.00  0.00    +0.000 HD
ATOM    144  H   UNK A  12       1.568   9.884   0.000  0.00  0.00    +0.000 HD
ENDBRANCH 141 142
ENDBRANCH 140 141
ENDBRANCH 139 140
ENDBRANCH 138 139
ENDBRANCH   6 138
ENDBRANCH   3   6
ENDBRANCH   1   4
BRANCH   1 146
ATOM    145  O   UNK A  12       4.114   4.090   0.000  0.00  0.00    +0.000 OA
ATOM    146  N   UNK A  12       2.869   4.309   0.000  0.00  0.00    +0.000 N 
ATOM    147  C   UNK A  12       3.400   3.678   0.000  0.00  0.00    +0.000 C 
ATOM    148  H   UNK A  12       2.366   4.221   0.000  0.00  0.00    +0.000 HD
BRANCH 147 149
ATOM    149  C   UNK A  12       3.400   2.853   0.000  0.00  0.00    +0.000 C 
BRANCH 149 151
ATOM    150  O   UNK A  12       3.400   1.202   0.000  0.00  0.00    +0.000 OA
ATOM    151  N   UNK A  12       4.114   2.440   0.000  0.00  0.00    +0.000 N 
ATOM    152  C   UNK A  12       4.114   1.615   0.000  0.00  0.00    +0.000 C 
ATOM    153  H   UNK A  12       4.557   2.696   0.000  0.00  0.00    +0.000 HD
BRANCH 152 154
ATOM    154  C   UNK A  12       4.829   1.202   0.000  0.00  0.00    +0.000 C 
BRANCH 154 156
ATOM    155  O   UNK A  12       6.258   0.377   0.000  0.00  0.00    +0.000 OA
ATOM    156  N   UNK A  12       4.829   0.377   0.000  0.00  0.00    +0.000 N 
ATOM    157  C   UNK A  12       5.543  -0.035   0.000  0.00  0.00    +0.000 C 
ATOM    158  H   UNK A  12       4.386   0.122   0.000  0.00  0.00    +0.000 HD
BRANCH 157 159
ATOM    159  C   UNK A  12       5.543  -0.860   0.000  0.00  0.00    +0.000 C 
BRANCH 159 161
ATOM    160  O   UNK A  12       5.543  -2.510   0.000  0.00  0.00    +0.000 OA
ATOM    161  N   UNK A  12       6.258  -1.272   0.000  0.00  0.00    +0.000 N 
ATOM    162  C   UNK A  12       6.258  -2.098   0.000  0.00  0.00    +0.000 C 
ATOM    163  H   UNK A  12       6.701  -1.017   0.000  0.00  0.00    +0.000 HD
BRANCH 162 164
ATOM    164  C   UNK A  12       6.972  -2.510   0.000  0.00  0.00    +0.000 C 
BRANCH 164 166
ATOM    165  O   LEU A  11       8.401  -3.335   0.000  0.00  0.00    +0.000 OA
ATOM    166  N   UNK A  12       6.972  -3.335   0.000  0.00  0.00    +0.000 N 
ATOM    167  C   LEU A  11       7.687  -3.748   0.000  0.00  0.00    +0.000 C 
ATOM    168  H   UNK A  12       6.529  -3.591   0.000  0.00  0.00    +0.000 HD
BRANCH 167 169
ATOM    169  CA  LEU A  11       7.687  -4.573   0.000  0.00  0.00    +0.000 C 
BRANCH 169 171
ATOM    170  O   LYS A  10       7.687  -6.223   0.000  0.00  0.00    +0.000 OA
ATOM    171  N   LEU A  11       8.401  -4.985   0.000  0.00  0.00    +0.000 N 
ATOM    172  C   LYS A  10       8.401  -5.810   0.000  0.00  0.00    +0.000 C 
ATOM    173  H   LEU A  11       8.844  -4.729   0.000  0.00  0.00    +0.000 HD
BRANCH 172 174
ATOM    174  CA  LYS A  10       9.116  -6.223   0.000  0.00  0.00    +0.000 C 
BRANCH 174 176
ATOM    175  O   GLY A   9      10.544  -7.048   0.000  0.00  0.00    +0.000 OA
ATOM    176  N   LYS A  10       9.116  -7.048   0.000  0.00  0.00    +0.000 N 
ATOM    177  C   GLY A   9       9.830  -7.460   0.000  0.00  0.00    +0.000 C 
ATOM    178  H   LYS A  10       8.673  -7.303   0.000  0.00  0.00    +0.000 HD
BRANCH 177 179
ATOM    179  CA  GLY A   9       9.830  -8.285   0.000  0.00  0.00    +0.000 C 
BRANCH 179 181
ATOM    180  O   LEU A   8       9.830  -9.935   0.000  0.00  0.00    +0.000 OA
ATOM    181  N   GLY A   9      10.544  -8.698   0.000  0.00  0.00    +0.000 N 
ATOM    182  C   LEU A   8      10.544  -9.523   0.000  0.00  0.00    +0.000 C 
ATOM    183  H   GLY A   9      10.988  -8.442   0.000  0.00  0.00    +0.000 HD
BRANCH 182 184
ATOM    184  CA  LEU A   8      11.259  -9.935   0.000  0.00  0.00    +0.000 C 
BRANCH 184 186
ATOM    185  O   VAL A   7      12.688 -10.760   0.000  0.00  0.00    +0.000 OA
ATOM    186  N   LEU A   8      11.973  -9.523   0.000  0.00  0.00    +0.000 N 
ATOM    187  C   VAL A   7      12.688  -9.935   0.000  0.00  0.00    +0.000 C 
ATOM    188  H   LEU A   8      11.973  -9.011   0.000  0.00  0.00    +0.000 HD
BRANCH 187 189
ATOM    189  CA  VAL A   7      13.402  -9.523   0.000  0.00  0.00    +0.000 C 
BRANCH 189 191
ATOM    190  O   UNK A   6      14.831  -8.698   0.000  0.00  0.00    +0.000 OA
ATOM    191  N   VAL A   7      14.117  -9.935   0.000  0.00  0.00    +0.000 N 
ATOM    192  C   UNK A   6      14.831  -9.523   0.000  0.00  0.00    +0.000 C 
ATOM    193  H   VAL A   7      14.117 -10.447   0.000  0.00  0.00    +0.000 HD
BRANCH 192 206
ATOM    194  O   THR A   5      16.260 -11.998   0.000  0.00  0.00    +0.000 OA
ATOM    195  O   UNK A   1      19.118  -7.048   0.000  0.00  0.00    +0.000 OA
ATOM    196  O   SER A   4      18.404  -9.935   0.000  0.00  0.00    +0.000 OA
ATOM    197  O   UNK A   6      18.404  -8.285   0.000  0.00  0.00    +0.000 OA
ATOM    198  O   LEU A   3      20.547 -11.998   0.000  0.00  0.00    +0.000 OA
ATOM    199  O   ASN A   2      22.691  -9.935   0.000  0.00  0.00    +0.000 OA
ATOM    200  O   UNK A   1      21.976  -7.048   0.000  0.00  0.00    +0.000 OA
ATOM    201  N   UNK A   6      15.546 -10.760   0.000  0.00  0.00    +0.000 N 
ATOM    202  N   THR A   5      17.689 -11.173   0.000  0.00  0.00    +0.000 N 
ATOM    203  N   SER A   4      19.833 -10.760   0.000  0.00  0.00    +0.000 N 
ATOM    204  N   LEU A   3      21.262  -9.935   0.000  0.00  0.00    +0.000 N 
ATOM    205  N   ASN A   2      21.262  -8.285   0.000  0.00  0.00    +0.000 N 
ATOM    206  C   UNK A   6      15.546  -9.935   0.000  0.00  0.00    +0.000 C 
ATOM    207  C   UNK A   6      16.260  -9.523   0.000  0.00  0.00    +0.000 C 
ATOM    208  C   UNK A   6      16.260  -8.698   0.000  0.00  0.00    +0.000 C 
ATOM    209  C   UNK A   6      16.975  -8.285   0.000  0.00  0.00    +0.000 C 
ATOM    210  CA  THR A   5      16.975 -10.760   0.000  0.00  0.00    +0.000 C 
ATOM    211  C   UNK A   6      16.975  -7.460   0.000  0.00  0.00    +0.000 C 
ATOM    212  C   THR A   5      16.260 -11.173   0.000  0.00  0.00    +0.000 C 
ATOM    213  C   UNK A   6      17.689  -7.048   0.000  0.00  0.00    +0.000 C 
ATOM    214  CA  LEU A   3      21.262 -10.760   0.000  0.00  0.00    +0.000 C 
ATOM    215  CA  SER A   4      19.118 -11.173   0.000  0.00  0.00    +0.000 C 
ATOM    216  C   SER A   4      18.404 -10.760   0.000  0.00  0.00    +0.000 C 
ATOM    217  C   UNK A   6      18.404  -7.460   0.000  0.00  0.00    +0.000 C 
ATOM    218  C   LEU A   3      20.547 -11.173   0.000  0.00  0.00    +0.000 C 
ATOM    219  CA  ASN A   2      21.976  -8.698   0.000  0.00  0.00    +0.000 C 
ATOM    220  C   ASN A   2      21.976  -9.523   0.000  0.00  0.00    +0.000 C 
ATOM    221  C   UNK A   1      19.833  -7.460   0.000  0.00  0.00    +0.000 C 
ATOM    222  C   UNK A   1      20.547  -7.048   0.000  0.00  0.00    +0.000 C 
ATOM    223  C   UNK A   1      21.262  -7.460   0.000  0.00  0.00    +0.000 C 
ATOM    224  H   UNK A   6      15.103 -11.016   0.000  0.00  0.00    +0.000 HD
ATOM    225  H   THR A   5      17.689 -11.684   0.000  0.00  0.00    +0.000 HD
ATOM    226  H   SER A   4      19.833 -10.249   0.000  0.00  0.00    +0.000 HD
ATOM    227  H   LEU A   3      20.819  -9.680   0.000  0.00  0.00    +0.000 HD
ATOM    228  H   ASN A   2      20.819  -8.541   0.000  0.00  0.00    +0.000 HD
BRANCH 222 229
ATOM    229  N   UNK A   1      20.547  -6.223   0.000  0.00  0.00    +0.000 NA
ATOM    230  H   UNK A   1      20.990  -5.967   0.000  0.00  0.00    +0.000 HD
ATOM    231  H   UNK A   1      20.104  -5.967   0.000  0.00  0.00    +0.000 HD
ENDBRANCH 222 229
BRANCH 210 232
ATOM    232  CB  THR A   5      16.975  -9.935   0.000  0.00  0.00    +0.000 C 
ATOM    233  CG2 THR A   5      16.260 -10.348   0.000  0.00  0.00    +0.000 C 
BRANCH 232 234
ATOM    234  OG1 THR A   5      17.689  -9.523   0.000  0.00  0.00    +0.000 OA
ATOM    235  HG1 THR A   5      17.689  -9.011   0.000  0.00  0.00    +0.000 HD
ENDBRANCH 232 234
ENDBRANCH 210 232
BRANCH 214 236
ATOM    236  CB  LEU A   3      21.976 -11.173   0.000  0.00  0.00    +0.000 C 
BRANCH 236 237
ATOM    237  CG  LEU A   3      21.976 -11.998   0.000  0.00  0.00    +0.000 C 
ATOM    238  CD1 LEU A   3      22.691 -12.410   0.000  0.00  0.00    +0.000 C 
ATOM    239  CD2 LEU A   3      21.262 -12.410   0.000  0.00  0.00    +0.000 C 
ENDBRANCH 236 237
ENDBRANCH 214 236
BRANCH 215 240
ATOM    240  CB  SER A   4      19.118 -11.998   0.000  0.00  0.00    +0.000 C 
BRANCH 240 241
ATOM    241  OG  SER A   4      18.404 -12.410   0.000  0.00  0.00    +0.000 OA
ATOM    242  H   SER A   4      18.404 -12.922   0.000  0.00  0.00    +0.000 HD
ENDBRANCH 240 241
ENDBRANCH 215 240
BRANCH 219 243
ATOM    243  CB  ASN A   2      22.691  -8.285   0.000  0.00  0.00    +0.000 C 
BRANCH 243 246
ATOM    244  OD1 ASN A   2      23.405  -9.523   0.000  0.00  0.00    +0.000 OA
ATOM    245  ND2 ASN A   2      24.120  -8.285   0.000  0.00  0.00    +0.000 N 
ATOM    246  CG  ASN A   2      23.405  -8.698   0.000  0.00  0.00    +0.000 C 
ATOM    247 HD21 ASN A   2      24.563  -8.541   0.000  0.00  0.00    +0.000 HD
ATOM    248 HD22 ASN A   2      24.120  -7.774   0.000  0.00  0.00    +0.000 HD
ENDBRANCH 243 246
ENDBRANCH 219 243
ENDBRANCH 192 206
ENDBRANCH 189 191
BRANCH 189 249
ATOM    249  CB  VAL A   7      13.402  -8.698   0.000  0.00  0.00    +0.000 C 
ATOM    250  CG1 VAL A   7      12.688  -8.285   0.000  0.00  0.00    +0.000 C 
ATOM    251  CG2 VAL A   7      14.117  -8.285   0.000  0.00  0.00    +0.000 C 
ENDBRANCH 189 249
ENDBRANCH 187 189
ENDBRANCH 184 186
BRANCH 184 252
ATOM    252  CB  LEU A   8      11.259 -10.760   0.000  0.00  0.00    +0.000 C 
BRANCH 252 253
ATOM    253  CG  LEU A   8      10.544 -11.173   0.000  0.00  0.00    +0.000 C 
ATOM    254  CD1 LEU A   8      10.544 -11.998   0.000  0.00  0.00    +0.000 C 
ATOM    255  CD2 LEU A   8       9.830 -10.760   0.000  0.00  0.00    +0.000 C 
ENDBRANCH 252 253
ENDBRANCH 184 252
ENDBRANCH 182 184
ENDBRANCH 179 181
ENDBRANCH 177 179
ENDBRANCH 174 176
BRANCH 174 256
ATOM    256  CB  LYS A  10       9.830  -5.810   0.000  0.00  0.00    +0.000 C 
BRANCH 256 257
ATOM    257  CG  LYS A  10       9.830  -4.985   0.000  0.00  0.00    +0.000 C 
BRANCH 257 258
ATOM    258  CD  LYS A  10      10.544  -4.573   0.000  0.00  0.00    +0.000 C 
BRANCH 258 259
ATOM    259  CE  LYS A  10      10.544  -3.748   0.000  0.00  0.00    +0.000 C 
BRANCH 259 260
ATOM    260  NZ  LYS A  10      11.259  -3.335   0.000  0.00  0.00    +0.000 NA
ATOM    261  HZ1 LYS A  10      11.259  -2.824   0.000  0.00  0.00    +0.000 HD
ATOM    262  HZ2 LYS A  10      11.702  -3.591   0.000  0.00  0.00    +0.000 HD
ENDBRANCH 259 260
ENDBRANCH 258 259
ENDBRANCH 257 258
ENDBRANCH 256 257
ENDBRANCH 174 256
ENDBRANCH 172 174
ENDBRANCH 169 171
BRANCH 169 263
ATOM    263  CB  LEU A  11       6.972  -4.985   0.000  0.00  0.00    +0.000 C 
BRANCH 263 264
ATOM    264  CG  LEU A  11       6.147  -4.985   0.000  0.00  0.00    +0.000 C 
ATOM    265  CD1 LEU A  11       5.734  -5.700   0.000  0.00  0.00    +0.000 C 
ATOM    266  CD2 LEU A  11       5.735  -4.271   0.000  0.00  0.00    +0.000 C 
ENDBRANCH 263 264
ENDBRANCH 169 263
ENDBRANCH 167 169
ENDBRANCH 164 166
BRANCH 164 267
ATOM    267  C   UNK A  12       7.687  -2.098   0.000  0.00  0.00    +0.000 C 
BRANCH 267 268
ATOM    268  O   UNK A  12       7.687  -1.272   0.000  0.00  0.00    +0.000 OA
ATOM    269  H   UNK A  12       8.130  -1.017   0.000  0.00  0.00    +0.000 HD
ENDBRANCH 267 268
ENDBRANCH 164 267
ENDBRANCH 162 164
ENDBRANCH 159 161
BRANCH 159 270
ATOM    270  C   UNK A  12       4.829  -1.272   0.000  0.00  0.00    +0.000 C 
BRANCH 270 271
ATOM    271  C   UNK A  12       4.114  -0.860   0.000  0.00  0.00    +0.000 C 
BRANCH 271 274
ATOM    272  O   UNK A  12       3.400  -2.098   0.000  0.00  0.00    +0.000 OA
ATOM    273  N   UNK A  12       2.685  -0.860   0.000  0.00  0.00    +0.000 N 
ATOM    274  C   UNK A  12       3.400  -1.272   0.000  0.00  0.00    +0.000 C 
ATOM    275  H   UNK A  12       2.242  -1.116   0.000  0.00  0.00    +0.000 HD
ATOM    276  H   UNK A  12       2.685  -0.349   0.000  0.00  0.00    +0.000 HD
ENDBRANCH 271 274
ENDBRANCH 270 271
ENDBRANCH 159 270
ENDBRANCH 157 159
ENDBRANCH 154 156
BRANCH 154 277
ATOM    277  C   UNK A  12       5.543   1.615   0.000  0.00  0.00    +0.000 C 
BRANCH 277 278
ATOM    278  C   UNK A  12       5.543   2.440   0.000  0.00  0.00    +0.000 C 
BRANCH 278 280
ATOM    279  O   UNK A  12       6.972   2.440   0.000  0.00  0.00    +0.000 OA
ATOM    280  C   UNK A  12       6.258   2.853   0.000  0.00  0.00    +0.000 C 
BRANCH 280 281
ATOM    281  O   UNK A  12       6.258   3.678   0.000  0.00  0.00    +0.000 OA
ATOM    282  H   UNK A  12       6.701   3.933   0.000  0.00  0.00    +0.000 HD
ENDBRANCH 280 281
ENDBRANCH 278 280
ENDBRANCH 277 278
ENDBRANCH 154 277
ENDBRANCH 152 154
ENDBRANCH 149 151
BRANCH 149 283
ATOM    283  C   UNK A  12       2.869   2.220   0.000  0.00  0.00    +0.000 C 
BRANCH 283 284
ATOM    284  C   UNK A  12       2.057   2.364   0.000  0.00  0.00    +0.000 C 
ATOM    285  C   UNK A  12       1.526   1.732   0.000  0.00  0.00    +0.000 C 
ATOM    286  C   UNK A  12       1.775   3.139   0.000  0.00  0.00    +0.000 C 
ENDBRANCH 283 284
ENDBRANCH 149 283
ENDBRANCH 147 149
ENDBRANCH   1 146
BRANCH   1 287
ATOM    287  C   UNK A  12       3.964   5.228   0.000  0.00  0.00    +0.000 C 
BRANCH 287 290
ATOM    288  N   UNK A  12       5.039   6.231   0.000  0.00  0.00    +0.000 N 
ATOM    289  N   UNK A  12       4.293   7.337   0.000  0.00  0.00    +0.000 NA
ATOM    290  C   UNK A  12       4.246   6.003   0.000  0.00  0.00    +0.000 A 
ATOM    291  C   UNK A  12       3.785   6.687   0.000  0.00  0.00    +0.000 A 
ATOM    292  C   UNK A  12       5.068   7.055   0.000  0.00  0.00    +0.000 A 
ATOM    293  H   UNK A  12       5.442   5.916   0.000  0.00  0.00    +0.000 HD
ENDBRANCH 287 290
ENDBRANCH   1 287
TORSDOF 108
