REMARK  Name = 
REMARK  2 active torsions:
REMARK  status: ('A' for Active; 'I' for Inactive)
REMARK    1  A    between atoms: C_4  and  N_7
REMARK    2  A    between atoms: C_10  and  C_14
REMARK                            x       y       z     vdW  Elec       q    Type
REMARK                         _______ _______ _______ _____ _____    ______ ____
ROOT
ATOM      1  N   UNL     1       0.195  -0.867   0.000  0.00  0.00    +0.000 NA
ATOM      2  C   UNL     1       0.280  -0.046   0.000  0.00  0.00    +0.000 C 
ATOM      3  S   UNL     1       0.991   0.365   0.000  0.00  0.00    +0.000 S 
ATOM      4  C   UNL     1       0.818   1.171   0.000  0.00  0.00    +0.000 C 
ATOM      5  C   UNL     1      -0.002   1.256   0.000  0.00  0.00    +0.000 C 
ATOM      6  N   UNL     1      -0.337   0.502   0.000  0.00  0.00    +0.000 NA
ATOM      7  O   UNL     1      -0.416   1.970   0.000  0.00  0.00    +0.000 OA
ENDROOT
BRANCH   1  11
ATOM      8  C   UNL     1      -2.067  -1.875   0.000  0.00  0.00    +0.000 A 
ATOM      9  C   UNL     1      -1.399  -2.362   0.000  0.00  0.00    +0.000 A 
ATOM     10  C   UNL     1      -0.644  -2.026   0.000  0.00  0.00    +0.000 A 
ATOM     11  C   UNL     1      -0.558  -1.204   0.000  0.00  0.00    +0.000 A 
ATOM     12  C   UNL     1      -1.231  -0.718   0.000  0.00  0.00    +0.000 A 
ATOM     13  C   UNL     1      -1.983  -1.056   0.000  0.00  0.00    +0.000 A 
ATOM     14  F   UNL     1       0.023  -2.511   0.000  0.00  0.00    +0.000 F 
ENDBRANCH   1  11
BRANCH   4  15
ATOM     15  C   UNL     1       1.369   1.785   0.000  0.00  0.00    +0.000 C 
ATOM     16  C   UNL     1       2.176   1.615   0.000  0.00  0.00    +0.000 C 
ATOM     17  C   UNL     1       1.113   2.570   0.000  0.00  0.00    +0.000 C 
ENDBRANCH   4  15
TORSDOF 2
