REMARK  Name = 
REMARK  52 active torsions:
REMARK  status: ('A' for Active; 'I' for Inactive)
REMARK    1  A    between atoms: C_2  and  C_3
REMARK    2  A    between atoms: C_5  and  C_46
REMARK    3  A    between atoms: C_7  and  O_8
REMARK    4  A    between atoms: O_8  and  C_9
REMARK    5  A    between atoms: C_11  and  C_12
REMARK    6  A    between atoms: C_16  and  O_17
REMARK    7  A    between atoms: O_17  and  C_18
REMARK    8  A    between atoms: C_18  and  C_19
REMARK    9  A    between atoms: C_18  and  C_26
REMARK   10  A    between atoms: C_19  and  C_20
REMARK   11  A    between atoms: C_29  and  N_30
REMARK   12  A    between atoms: C_34  and  O_35
REMARK   13  A    between atoms: O_35  and  C_36
REMARK   14  A    between atoms: N_48  and  C_49
REMARK   15  A    between atoms: C_49  and  C_50
REMARK   16  A    between atoms: C_50  and  N_51
REMARK   17  A    between atoms: C_52  and  C_54
REMARK   18  A    between atoms: C_54  and  C_55
REMARK   19  A    between atoms: C_55  and  O_56
REMARK   20  A    between atoms: O_56  and  C_57
REMARK   21  A    between atoms: C_57  and  C_58
REMARK   22  A    between atoms: C_58  and  O_59
REMARK   23  A    between atoms: O_59  and  C_60
REMARK   24  A    between atoms: C_60  and  C_61
REMARK   25  A    between atoms: C_61  and  O_62
REMARK   26  A    between atoms: O_62  and  C_63
REMARK   27  A    between atoms: C_63  and  C_64
REMARK   28  A    between atoms: C_64  and  O_65
REMARK   29  A    between atoms: O_65  and  C_66
REMARK   30  A    between atoms: C_66  and  C_67
REMARK   31  A    between atoms: C_67  and  O_68
REMARK   32  A    between atoms: O_68  and  C_69
REMARK   33  A    between atoms: C_69  and  C_70
REMARK   34  A    between atoms: C_70  and  O_71
REMARK   35  A    between atoms: O_71  and  C_72
REMARK   36  A    between atoms: C_72  and  C_73
REMARK   37  A    between atoms: C_73  and  O_74
REMARK   38  A    between atoms: O_74  and  C_75
REMARK   39  A    between atoms: C_75  and  C_76
REMARK   40  A    between atoms: C_76  and  O_77
REMARK   41  A    between atoms: O_77  and  C_78
REMARK   42  A    between atoms: C_78  and  C_79
REMARK   43  A    between atoms: C_79  and  O_80
REMARK   44  A    between atoms: O_80  and  C_81
REMARK   45  A    between atoms: C_81  and  C_82
REMARK   46  A    between atoms: C_82  and  O_83
REMARK   47  A    between atoms: O_83  and  C_84
REMARK   48  A    between atoms: C_84  and  C_85
REMARK   49  A    between atoms: C_85  and  O_86
REMARK   50  A    between atoms: O_86  and  C_87
REMARK   51  A    between atoms: C_87  and  C_88
REMARK   52  A    between atoms: C_88  and  O_89
REMARK                            x       y       z     vdW  Elec       q    Type
REMARK                         _______ _______ _______ _____ _____    ______ ____
ROOT
ATOM      1  C   UNL     1      -5.001  -3.712   0.000  0.00  0.00    +0.000 C 
ATOM      2  C   UNL     1      -4.287  -3.300   0.000  0.00  0.00    +0.000 C 
ATOM      3  C   UNL     1      -4.287  -2.475   0.000  0.00  0.00    +0.000 C 
ATOM      4  C   UNL     1      -5.001  -2.062   0.000  0.00  0.00    +0.000 C 
ATOM      5  C   UNL     1      -5.716  -2.475   0.000  0.00  0.00    +0.000 C 
ATOM      6  C   UNL     1      -5.716  -3.300   0.000  0.00  0.00    +0.000 C 
ENDROOT
BRANCH   3   7
ATOM      7  C   UNL     1      -3.572  -2.062   0.000  0.00  0.00    +0.000 C 
ATOM      8  O   UNL     1      -3.572  -1.238   0.000  0.00  0.00    +0.000 OA
ATOM      9  N   UNL     1      -2.858  -2.475   0.000  0.00  0.00    +0.000 NA
BRANCH   9  10
ATOM     10  C   UNL     1      -2.143  -2.062   0.000  0.00  0.00    +0.000 C 
BRANCH  10  11
ATOM     11  C   UNL     1      -1.429  -2.475   0.000  0.00  0.00    +0.000 C 
BRANCH  11  12
ATOM     12  N   UNL     1      -0.715  -2.062   0.000  0.00  0.00    +0.000 NA
ATOM     13  C   UNL     1       0.000  -2.475   0.000  0.00  0.00    +0.000 C 
ATOM     14  O   UNL     1       0.000  -3.300   0.000  0.00  0.00    +0.000 OA
BRANCH  13  15
ATOM     15  C   UNL     1       0.715  -2.062   0.000  0.00  0.00    +0.000 C 
BRANCH  15  16
ATOM     16  C   UNL     1       1.429  -2.475   0.000  0.00  0.00    +0.000 C 
BRANCH  16  17
ATOM     17  O   UNL     1       2.143  -2.062   0.000  0.00  0.00    +0.000 OA
BRANCH  17  18
ATOM     18  C   UNL     1       2.858  -2.475   0.000  0.00  0.00    +0.000 C 
BRANCH  18  19
ATOM     19  C   UNL     1       3.572  -2.062   0.000  0.00  0.00    +0.000 C 
BRANCH  19  20
ATOM     20  O   UNL     1       4.287  -2.475   0.000  0.00  0.00    +0.000 OA
BRANCH  20  21
ATOM     21  C   UNL     1       5.001  -2.062   0.000  0.00  0.00    +0.000 C 
BRANCH  21  22
ATOM     22  C   UNL     1       5.716  -2.475   0.000  0.00  0.00    +0.000 C 
BRANCH  22  23
ATOM     23  O   UNL     1       6.430  -2.062   0.000  0.00  0.00    +0.000 OA
BRANCH  23  24
ATOM     24  C   UNL     1       7.145  -2.475   0.000  0.00  0.00    +0.000 C 
BRANCH  24  25
ATOM     25  C   UNL     1       7.859  -2.062   0.000  0.00  0.00    +0.000 C 
BRANCH  25  26
ATOM     26  O   UNL     1       8.574  -2.475   0.000  0.00  0.00    +0.000 OA
BRANCH  26  27
ATOM     27  C   UNL     1       9.288  -2.062   0.000  0.00  0.00    +0.000 C 
BRANCH  27  28
ATOM     28  C   UNL     1      10.003  -2.475   0.000  0.00  0.00    +0.000 C 
BRANCH  28  29
ATOM     29  O   UNL     1      10.717  -2.062   0.000  0.00  0.00    +0.000 OA
BRANCH  29  30
ATOM     30  C   UNL     1      11.431  -2.475   0.000  0.00  0.00    +0.000 C 
BRANCH  30  31
ATOM     31  C   UNL     1      12.146  -2.062   0.000  0.00  0.00    +0.000 C 
BRANCH  31  32
ATOM     32  O   UNL     1      12.861  -2.475   0.000  0.00  0.00    +0.000 OA
BRANCH  32  33
ATOM     33  C   UNL     1      13.575  -2.062   0.000  0.00  0.00    +0.000 C 
BRANCH  33  34
ATOM     34  C   UNL     1      14.289  -2.475   0.000  0.00  0.00    +0.000 C 
BRANCH  34  35
ATOM     35  O   UNL     1      15.004  -2.062   0.000  0.00  0.00    +0.000 OA
BRANCH  35  36
ATOM     36  C   UNL     1      15.718  -2.475   0.000  0.00  0.00    +0.000 C 
BRANCH  36  37
ATOM     37  C   UNL     1      16.433  -2.062   0.000  0.00  0.00    +0.000 C 
BRANCH  37  38
ATOM     38  O   UNL     1      17.147  -2.475   0.000  0.00  0.00    +0.000 OA
BRANCH  38  39
ATOM     39  C   UNL     1      17.862  -2.062   0.000  0.00  0.00    +0.000 C 
BRANCH  39  40
ATOM     40  C   UNL     1      18.576  -2.475   0.000  0.00  0.00    +0.000 C 
BRANCH  40  41
ATOM     41  O   UNL     1      19.291  -2.062   0.000  0.00  0.00    +0.000 OA
BRANCH  41  42
ATOM     42  C   UNL     1      20.005  -2.475   0.000  0.00  0.00    +0.000 C 
BRANCH  42  43
ATOM     43  C   UNL     1      20.720  -2.062   0.000  0.00  0.00    +0.000 C 
BRANCH  43  44
ATOM     44  O   UNL     1      21.434  -2.475   0.000  0.00  0.00    +0.000 OA
BRANCH  44  45
ATOM     45  C   UNL     1      22.149  -2.062   0.000  0.00  0.00    +0.000 C 
BRANCH  45  46
ATOM     46  C   UNL     1      22.863  -2.475   0.000  0.00  0.00    +0.000 C 
BRANCH  46  47
ATOM     47  O   UNL     1      23.578  -2.062   0.000  0.00  0.00    +0.000 OA
BRANCH  47  48
ATOM     48  C   UNL     1      24.292  -2.475   0.000  0.00  0.00    +0.000 C 
BRANCH  48  49
ATOM     49  C   UNL     1      25.006  -2.062   0.000  0.00  0.00    +0.000 C 
BRANCH  49  50
ATOM     50  O   UNL     1      25.721  -2.475   0.000  0.00  0.00    +0.000 OA
ATOM     51  C   UNL     1      26.435  -2.062   0.000  0.00  0.00    +0.000 C 
ENDBRANCH  49  50
ENDBRANCH  48  49
ENDBRANCH  47  48
ENDBRANCH  46  47
ENDBRANCH  45  46
ENDBRANCH  44  45
ENDBRANCH  43  44
ENDBRANCH  42  43
ENDBRANCH  41  42
ENDBRANCH  40  41
ENDBRANCH  39  40
ENDBRANCH  38  39
ENDBRANCH  37  38
ENDBRANCH  36  37
ENDBRANCH  35  36
ENDBRANCH  34  35
ENDBRANCH  33  34
ENDBRANCH  32  33
ENDBRANCH  31  32
ENDBRANCH  30  31
ENDBRANCH  29  30
ENDBRANCH  28  29
ENDBRANCH  27  28
ENDBRANCH  26  27
ENDBRANCH  25  26
ENDBRANCH  24  25
ENDBRANCH  23  24
ENDBRANCH  22  23
ENDBRANCH  21  22
ENDBRANCH  20  21
ENDBRANCH  19  20
ENDBRANCH  18  19
ENDBRANCH  17  18
ENDBRANCH  16  17
ENDBRANCH  15  16
ENDBRANCH  13  15
ENDBRANCH  11  12
ENDBRANCH  10  11
ENDBRANCH   9  10
ENDBRANCH   3   7
BRANCH   1  53
ATOM     52  C   UNL     1      -4.287  -4.950   0.000  0.00  0.00    +0.000 C 
ATOM     53  C   UNL     1      -5.001  -4.537   0.000  0.00  0.00    +0.000 C 
ENDBRANCH   1  53
BRANCH   6  54
ATOM     54  O   UNL     1      -6.430  -3.712   0.000  0.00  0.00    +0.000 OA
BRANCH  54  55
ATOM     55  C   UNL     1      -6.430  -4.537   0.000  0.00  0.00    +0.000 C 
ATOM     56  O   UNL     1      -5.716  -4.950   0.000  0.00  0.00    +0.000 OA
ATOM     57  C   UNL     1      -5.716  -5.775   0.000  0.00  0.00    +0.000 C 
ATOM     58  C   UNL     1      -5.001  -6.188   0.000  0.00  0.00    +0.000 C 
ATOM     59  C   UNL     1      -6.430  -6.188   0.000  0.00  0.00    +0.000 C 
ATOM     60  O   UNL     1      -6.430  -7.013   0.000  0.00  0.00    +0.000 OA
ATOM     61  C   UNL     1      -7.145  -5.775   0.000  0.00  0.00    +0.000 C 
ATOM     62  O   UNL     1      -7.859  -6.188   0.000  0.00  0.00    +0.000 OA
ATOM     63  C   UNL     1      -7.145  -4.950   0.000  0.00  0.00    +0.000 C 
ATOM     64  O   UNL     1      -7.859  -4.537   0.000  0.00  0.00    +0.000 OA
ENDBRANCH  54  55
ENDBRANCH   6  54
BRANCH   5  65
ATOM     65  O   UNL     1      -6.430  -2.062   0.000  0.00  0.00    +0.000 OA
BRANCH  65  66
ATOM     66  C   UNL     1      -6.430  -1.238   0.000  0.00  0.00    +0.000 C 
ATOM     67  O   UNL     1      -5.716  -0.825   0.000  0.00  0.00    +0.000 OA
ATOM     68  C   UNL     1      -5.716   0.000   0.000  0.00  0.00    +0.000 C 
ATOM     69  C   UNL     1      -6.430   0.412   0.000  0.00  0.00    +0.000 C 
ATOM     70  O   UNL     1      -6.430   1.238   0.000  0.00  0.00    +0.000 OA
ATOM     71  C   UNL     1      -7.145   0.000   0.000  0.00  0.00    +0.000 C 
ATOM     72  C   UNL     1      -7.145  -0.825   0.000  0.00  0.00    +0.000 C 
BRANCH  72  73
ATOM     73  N   UNL     1      -7.859  -1.238   0.000  0.00  0.00    +0.000 NA
ATOM     74  C   UNL     1      -8.574  -0.825   0.000  0.00  0.00    +0.000 C 
ATOM     75  C   UNL     1      -9.288  -1.238   0.000  0.00  0.00    +0.000 C 
ATOM     76  O   UNL     1      -8.574   0.000   0.000  0.00  0.00    +0.000 OA
ENDBRANCH  72  73
BRANCH  68  77
ATOM     77  C   UNL     1      -5.001   0.412   0.000  0.00  0.00    +0.000 C 
ATOM     78  O   UNL     1      -5.001   1.238   0.000  0.00  0.00    +0.000 OA
ENDBRANCH  68  77
BRANCH  71  79
ATOM     79  O   UNL     1      -7.859   0.412   0.000  0.00  0.00    +0.000 OA
BRANCH  79  80
ATOM     80  C   UNL     1      -7.859   1.238   0.000  0.00  0.00    +0.000 C 
BRANCH  80  81
ATOM     81  C   UNL     1      -8.574   1.650   0.000  0.00  0.00    +0.000 C 
ATOM     82  O   UNL     1      -8.574   2.475   0.000  0.00  0.00    +0.000 OA
ATOM     83  O   UNL     1      -9.288   1.238   0.000  0.00  0.00    +0.000 OA
ENDBRANCH  80  81
BRANCH  80  84
ATOM     84  C   UNL     1      -7.145   1.650   0.000  0.00  0.00    +0.000 C 
BRANCH  84  85
ATOM     85  C   UNL     1      -7.145   2.475   0.000  0.00  0.00    +0.000 C 
ATOM     86  C   UNL     1      -7.859   2.888   0.000  0.00  0.00    +0.000 C 
ATOM     87  C   UNL     1      -7.859   3.712   0.000  0.00  0.00    +0.000 C 
ATOM     88  C   UNL     1      -7.145   4.125   0.000  0.00  0.00    +0.000 C 
ATOM     89  C   UNL     1      -6.430   3.712   0.000  0.00  0.00    +0.000 C 
ATOM     90  C   UNL     1      -6.430   2.888   0.000  0.00  0.00    +0.000 C 
ENDBRANCH  84  85
ENDBRANCH  80  84
ENDBRANCH  79  80
ENDBRANCH  71  79
ENDBRANCH  65  66
ENDBRANCH   5  65
TORSDOF 52
