REMARK  Name = 
REMARK  5 active torsions:
REMARK  status: ('A' for Active; 'I' for Inactive)
REMARK    1  A    between atoms: C_2  and  C_10
REMARK    2  A    between atoms: N_12  and  C_13
REMARK    3  A    between atoms: C_13  and  C_14
REMARK    4  A    between atoms: C_13  and  C_23
REMARK    5  A    between atoms: C_23  and  C_24
REMARK                            x       y       z     vdW  Elec       q    Type
REMARK                         _______ _______ _______ _____ _____    ______ ____
ROOT
ATOM      1  C   UNL     1       0.881   1.016   0.000  0.00  0.00    +0.000 C 
ENDROOT
BRANCH   1   2
ATOM      2  C   UNL     1       1.294   1.731   0.000  0.00  0.00    +0.000 C 
ATOM      3  O   UNL     1       0.881   2.445   0.000  0.00  0.00    +0.000 OA
ATOM      4  N   UNL     1       2.119   1.731   0.000  0.00  0.00    +0.000 N 
ATOM      5  C   UNL     1       2.531   2.445   0.000  0.00  0.00    +0.000 C 
ATOM      6  C   UNL     1       3.356   2.445   0.000  0.00  0.00    +0.000 C 
ATOM      7  C   UNL     1       3.769   1.731   0.000  0.00  0.00    +0.000 C 
ATOM      8  C   UNL     1       3.356   1.016   0.000  0.00  0.00    +0.000 C 
ATOM      9  C   UNL     1       2.531   1.016   0.000  0.00  0.00    +0.000 C 
ATOM     10  O   UNL     1       4.594   1.731   0.000  0.00  0.00    +0.000 OA
ENDBRANCH   1   2
BRANCH   1  13
ATOM     11  C   UNL     1      -0.356   1.731   0.000  0.00  0.00    +0.000 C 
ATOM     12  O   UNL     1       0.056   2.445   0.000  0.00  0.00    +0.000 OA
ATOM     13  N   UNL     1       0.056   1.016   0.000  0.00  0.00    +0.000 NA
BRANCH  11  15
ATOM     14  N   UNL     1      -1.666   2.398   0.000  0.00  0.00    +0.000 NA
ATOM     15  C   UNL     1      -1.181   1.731   0.000  0.00  0.00    +0.000 A 
ATOM     16  C   UNL     1      -1.666   1.063   0.000  0.00  0.00    +0.000 A 
ATOM     17  C   UNL     1      -2.451   1.318   0.000  0.00  0.00    +0.000 A 
ATOM     18  C   UNL     1      -3.165   0.906   0.000  0.00  0.00    +0.000 A 
ATOM     19  C   UNL     1      -3.880   1.318   0.000  0.00  0.00    +0.000 A 
ATOM     20  C   UNL     1      -3.880   2.143   0.000  0.00  0.00    +0.000 A 
ATOM     21  C   UNL     1      -3.165   2.556   0.000  0.00  0.00    +0.000 A 
ATOM     22  C   UNL     1      -2.451   2.143   0.000  0.00  0.00    +0.000 A 
ATOM     23 CL   UNL     1      -4.594   0.906   0.000  0.00  0.00    +0.000 Cl
ENDBRANCH  11  15
ENDBRANCH   1  13
BRANCH   1  24
ATOM     24  C   UNL     1       1.294   0.302   0.000  0.00  0.00    +0.000 C 
BRANCH  24  25
ATOM     25  C   UNL     1       0.881  -0.412   0.000  0.00  0.00    +0.000 A 
ATOM     26  C   UNL     1       1.294  -1.127   0.000  0.00  0.00    +0.000 A 
ATOM     27  C   UNL     1       0.881  -1.841   0.000  0.00  0.00    +0.000 A 
ATOM     28  C   UNL     1       0.056  -1.841   0.000  0.00  0.00    +0.000 A 
ATOM     29  C   UNL     1      -0.356  -1.127   0.000  0.00  0.00    +0.000 A 
ATOM     30  C   UNL     1       0.056  -0.412   0.000  0.00  0.00    +0.000 A 
ATOM     31  F   UNL     1      -0.356  -2.556   0.000  0.00  0.00    +0.000 F 
ENDBRANCH  24  25
ENDBRANCH   1  24
TORSDOF 5
