REMARK  Name = 
REMARK  5 active torsions:
REMARK  status: ('A' for Active; 'I' for Inactive)
REMARK    1  A    between atoms: P_1  and  O_3
REMARK    2  A    between atoms: P_1  and  O_4
REMARK    3  A    between atoms: P_2  and  O_4
REMARK    4  A    between atoms: O_3  and  C_17
REMARK    5  A    between atoms: C_16  and  C_17
REMARK                            x       y       z     vdW  Elec       q    Type
REMARK                         _______ _______ _______ _____ _____    ______ ____
ROOT
ATOM      1  O   UNL     1      -2.307   1.493   0.000  0.00  0.00    +0.000 OA
ATOM      2  N   UNL     1      -0.855   0.697   0.000  0.00  0.00    +0.000 NA
ATOM      3  N   UNL     1      -2.307  -0.982   0.000  0.00  0.00    +0.000 N 
ATOM      4  N   UNL     1      -0.855  -1.010   0.000  0.00  0.00    +0.000 NA
ATOM      5  N   UNL     1      -3.022   0.256   0.000  0.00  0.00    +0.000 NA
ATOM      6  N   UNL     1      -3.736  -0.982   0.000  0.00  0.00    +0.000 N 
ATOM      7  C   UNL     1      -0.108   0.273   0.000  0.00  0.00    +0.000 A 
ATOM      8  C   UNL     1      -1.593   0.256   0.000  0.00  0.00    +0.000 A 
ATOM      9  C   UNL     1      -1.593  -0.569   0.000  0.00  0.00    +0.000 A 
ATOM     10  C   UNL     1      -0.108  -0.586   0.000  0.00  0.00    +0.000 A 
ATOM     11  C   UNL     1      -2.307   0.668   0.000  0.00  0.00    +0.000 A 
ATOM     12  C   UNL     1      -3.022  -0.569   0.000  0.00  0.00    +0.000 A 
ATOM     13  H   UNL     1      -2.307  -1.493   0.000  0.00  0.00    +0.000 HD
ATOM     14  H   UNL     1      -4.179  -0.726   0.000  0.00  0.00    +0.000 HD
ATOM     15  H   UNL     1      -3.736  -1.493   0.000  0.00  0.00    +0.000 HD
ENDROOT
BRANCH   7  16
ATOM     16  C   UNL     1       0.605   0.688   0.000  0.00  0.00    +0.000 C 
BRANCH  16  17
ATOM     17  O   UNL     1       1.321   0.278   0.000  0.00  0.00    +0.000 OA
BRANCH  17  18
ATOM     18  P   UNL     1       2.034   0.694   0.000  0.00  0.00    +0.000 P 
ATOM     19  O   UNL     1       2.449  -0.019   0.000  0.00  0.00    +0.000 OA
ATOM     20  O   UNL     1       1.619   1.407   0.000  0.00  0.00    +0.000 OA
BRANCH  18  21
ATOM     21  O   UNL     1       2.747   1.109   0.000  0.00  0.00    +0.000 OA
BRANCH  21  22
ATOM     22  P   UNL     1       3.463   0.699   0.000  0.00  0.00    +0.000 P 
ATOM     23  O   UNL     1       4.179   0.289   0.000  0.00  0.00    +0.000 OA
ATOM     24  O   UNL     1       3.873   1.415   0.000  0.00  0.00    +0.000 OA
ATOM     25  O   UNL     1       3.053  -0.017   0.000  0.00  0.00    +0.000 OA
ENDBRANCH  21  22
ENDBRANCH  18  21
ENDBRANCH  17  18
ENDBRANCH  16  17
ENDBRANCH   7  16
TORSDOF 5
