REMARK  Name = 
REMARK  17 active torsions:
REMARK  status: ('A' for Active; 'I' for Inactive)
REMARK    1  A    between atoms: CA_2  and  C_6
REMARK    2  A    between atoms: C_9  and  CA_10
REMARK    3  A    between atoms: CA_10  and  CB_11
REMARK    4  A    between atoms: CA_10  and  N_14
REMARK    5  A    between atoms: C_15  and  C_16
REMARK    6  A    between atoms: C_16  and  C_17
REMARK    7  A    between atoms: C_16  and  N_22
REMARK    8  A    between atoms: C_17  and  S_18
REMARK    9  A    between atoms: C_23  and  CA_24
REMARK   10  A    between atoms: CA_24  and  N_25
REMARK   11  A    between atoms: C_26  and  CA_27
REMARK   12  A    between atoms: CA_27  and  CB_28
REMARK   13  A    between atoms: CA_27  and  N_35
REMARK   14  A    between atoms: CB_28  and  CG_29
REMARK   15  A    between atoms: CG_29  and  CD_30
REMARK   16  A    between atoms: CD_30  and  NE_31
REMARK   17  A    between atoms: C_36  and  CA_37
REMARK                            x       y       z     vdW  Elec       q    Type
REMARK                         _______ _______ _______ _____ _____    ______ ____
ROOT
ATOM      1  C   UNK A   4       0.931  -1.030   0.000  0.00  0.00    +0.000 C 
ENDROOT
BRANCH   1   3
ATOM      2  N   THR A   5       2.357  -1.030   0.000  0.00  0.00    +0.000 NA
ATOM      3  C   UNK A   4       1.646  -1.442   0.000  0.00  0.00    +0.000 C 
ATOM      4  O   UNK A   4       1.646  -2.270   0.000  0.00  0.00    +0.000 OA
BRANCH   2   5
ATOM      5  CA  THR A   5       3.071  -1.442   0.000  0.00  0.00    +0.000 C 
BRANCH   5  11
ATOM      6  N   PRO A   6       4.501  -1.442   0.000  0.00  0.00    +0.000 N 
ATOM      7  CA  PRO A   6       5.255  -1.110   0.000  0.00  0.00    +0.000 C 
ATOM      8  CB  PRO A   6       5.808  -1.722   0.000  0.00  0.00    +0.000 C 
ATOM      9  CG  PRO A   6       5.396  -2.437   0.000  0.00  0.00    +0.000 C 
ATOM     10  CD  PRO A   6       4.588  -2.265   0.000  0.00  0.00    +0.000 C 
ATOM     11  C   THR A   5       3.786  -1.030   0.000  0.00  0.00    +0.000 C 
ATOM     12  O   THR A   5       3.786  -0.206   0.000  0.00  0.00    +0.000 OA
BRANCH   7  13
ATOM     13  C   PRO A   6       5.427  -0.302   0.000  0.00  0.00    +0.000 C 
ATOM     14  O   PRO A   6       6.210  -0.047   0.000  0.00  0.00    +0.000 OA
ATOM     15  OXT PRO A   6       4.815   0.251   0.000  0.00  0.00    +0.000 OA
ENDBRANCH   7  13
ENDBRANCH   5  11
BRANCH   5  16
ATOM     16  CB  THR A   5       3.071  -2.270   0.000  0.00  0.00    +0.000 C 
ATOM     17  CG2 THR A   5       3.786  -2.682   0.000  0.00  0.00    +0.000 C 
ATOM     18  OG1 THR A   5       2.357  -2.682   0.000  0.00  0.00    +0.000 OA
ENDBRANCH   5  16
ENDBRANCH   2   5
ENDBRANCH   1   3
BRANCH   1  19
ATOM     19  N   UNK A   4       0.217  -1.442   0.000  0.00  0.00    +0.000 NA
ATOM     20  C   GLY A   3      -0.498  -1.030   0.000  0.00  0.00    +0.000 C 
ATOM     21  O   GLY A   3      -0.498  -0.206   0.000  0.00  0.00    +0.000 OA
BRANCH  20  22
ATOM     22  CA  GLY A   3      -1.213  -1.442   0.000  0.00  0.00    +0.000 C 
BRANCH  22  23
ATOM     23  N   GLY A   3      -1.928  -1.030   0.000  0.00  0.00    +0.000 NA
ATOM     24  C   ARG A   2      -2.643  -1.442   0.000  0.00  0.00    +0.000 C 
ATOM     25  O   ARG A   2      -2.643  -2.270   0.000  0.00  0.00    +0.000 OA
BRANCH  24  26
ATOM     26  CA  ARG A   2      -3.353  -1.030   0.000  0.00  0.00    +0.000 C 
BRANCH  26  27
ATOM     27  N   ARG A   2      -4.068  -1.442   0.000  0.00  0.00    +0.000 NA
ATOM     28  C   GLY A   1      -4.783  -1.030   0.000  0.00  0.00    +0.000 C 
ATOM     29  O   GLY A   1      -4.783  -0.206   0.000  0.00  0.00    +0.000 OA
BRANCH  28  30
ATOM     30  CA  GLY A   1      -5.498  -1.442   0.000  0.00  0.00    +0.000 C 
ATOM     31  N   GLY A   1      -6.210  -1.030   0.000  0.00  0.00    +0.000 NA
ENDBRANCH  28  30
ENDBRANCH  26  27
BRANCH  26  32
ATOM     32  CB  ARG A   2      -3.353  -0.206   0.000  0.00  0.00    +0.000 C 
BRANCH  32  33
ATOM     33  CG  ARG A   2      -4.068   0.206   0.000  0.00  0.00    +0.000 C 
BRANCH  33  34
ATOM     34  CD  ARG A   2      -4.068   1.030   0.000  0.00  0.00    +0.000 C 
BRANCH  34  35
ATOM     35  NE  ARG A   2      -4.783   1.442   0.000  0.00  0.00    +0.000 NA
ATOM     36  CZ  ARG A   2      -4.783   2.270   0.000  0.00  0.00    +0.000 C 
ATOM     37  NH1 ARG A   2      -5.498   2.682   0.000  0.00  0.00    +0.000 NA
ATOM     38  NH2 ARG A   2      -4.068   2.682   0.000  0.00  0.00    +0.000 NA
ENDBRANCH  34  35
ENDBRANCH  33  34
ENDBRANCH  32  33
ENDBRANCH  26  32
ENDBRANCH  24  26
ENDBRANCH  22  23
ENDBRANCH  20  22
ENDBRANCH   1  19
BRANCH   1  39
ATOM     39  C   UNK A   4       0.931  -0.206   0.000  0.00  0.00    +0.000 C 
BRANCH  39  40
ATOM     40  S   UNK A   4       1.646   0.206   0.000  0.00  0.00    +0.000 S 
ATOM     41  O   UNK A   4       1.234   0.921   0.000  0.00  0.00    +0.000 OA
ATOM     42  O   UNK A   4       2.058  -0.509   0.000  0.00  0.00    +0.000 OA
ATOM     43  O   UNK A   4       2.357   0.618   0.000  0.00  0.00    +0.000 OA
ENDBRANCH  39  40
ENDBRANCH   1  39
TORSDOF 17
