REMARK  Name = 
REMARK  4 active torsions:
REMARK  status: ('A' for Active; 'I' for Inactive)
REMARK    1  A    between atoms: C_2  and  C_6
REMARK    2  A    between atoms: C_4  and  C_6
REMARK    3  A    between atoms: C_4  and  N_10
REMARK    4  A    between atoms: C_7  and  N_11
REMARK                            x       y       z     vdW  Elec       q    Type
REMARK                         _______ _______ _______ _____ _____    ______ ____
ROOT
ATOM      1  C   UNL     1      -0.330  -0.823   0.000  0.00  0.00    +0.000 C 
ATOM      2  C   UNL     1       1.235   0.629   0.000  0.00  0.00    +0.000 A 
ATOM      3  C   UNL     1       0.155  -0.155   0.000  0.00  0.00    +0.000 A 
ATOM      4  C   UNL     1       0.568   1.114   0.000  0.00  0.00    +0.000 A 
ATOM      5  N   UNL     1       0.980  -0.155   0.000  0.00  0.00    +0.000 NA
ATOM      6  N   UNL     1      -0.100   0.629   0.000  0.00  0.00    +0.000 N 
ENDROOT
BRANCH   4   7
ATOM      7  N   UNL     1       0.568   1.939   0.000  0.00  0.00    +0.000 N 
ATOM      8  O   UNL     1      -0.147   2.352   0.000  0.00  0.00    +0.000 OA
ATOM      9  O   UNL     1       1.282   2.352   0.000  0.00  0.00    +0.000 OA
ENDBRANCH   4   7
BRANCH   6  10
ATOM     10  C   UNL     1      -0.884   0.884   0.000  0.00  0.00    +0.000 C 
BRANCH  10  11
ATOM     11  C   UNL     1      -1.497   0.332   0.000  0.00  0.00    +0.000 C 
ATOM     12  O   UNL     1      -1.326  -0.475   0.000  0.00  0.00    +0.000 OA
BRANCH  11  13
ATOM     13  C   UNL     1      -2.282   0.587   0.000  0.00  0.00    +0.000 C 
ATOM     14 CL   UNL     1      -2.895   0.035   0.000  0.00  0.00    +0.000 Cl
ENDBRANCH  11  13
ENDBRANCH  10  11
ENDBRANCH   6  10
TORSDOF 4
