REMARK  Name = 
REMARK  7 active torsions:
REMARK  status: ('A' for Active; 'I' for Inactive)
REMARK    1  A    between atoms: O_3  and  C_17
REMARK    2  A    between atoms: O_3  and  C_23
REMARK    3  A    between atoms: O_4  and  C_21
REMARK    4  A    between atoms: O_4  and  C_22
REMARK    5  A    between atoms: C_20  and  C_31
REMARK    6  A    between atoms: C_26  and  C_33
REMARK    7  A    between atoms: C_29  and  C_34
REMARK                            x       y       z     vdW  Elec       q    Type
REMARK                         _______ _______ _______ _____ _____    ______ ____
ROOT
ATOM      1  O   UNL     1      -0.412   0.357   0.000  0.00  0.00    +0.000 OA
ATOM      2  O   UNL     1       0.825   2.501   0.000  0.00  0.00    +0.000 OA
ATOM      3  O   UNL     1      -0.825   2.501   0.000  0.00  0.00    +0.000 OA
ATOM      4  C   UNL     1       0.825   1.072   0.000  0.00  0.00    +0.000 C 
ATOM      5  C   UNL     1       0.412   1.786   0.000  0.00  0.00    +0.000 C 
ATOM      6  C   UNL     1      -0.412   1.786   0.000  0.00  0.00    +0.000 C 
ATOM      7  C   UNL     1       0.412   0.357   0.000  0.00  0.00    +0.000 C 
ATOM      8  C   UNL     1      -0.825   1.072   0.000  0.00  0.00    +0.000 C 
ENDROOT
BRANCH   7  10
ATOM      9  O   UNL     1       0.412  -1.072   0.000  0.00  0.00    +0.000 OA
ATOM     10  C   UNL     1       0.825  -0.357   0.000  0.00  0.00    +0.000 C 
ENDBRANCH   7  10
BRANCH   4  11
ATOM     11  O   UNL     1       1.650   1.072   0.000  0.00  0.00    +0.000 OA
BRANCH  11  16
ATOM     12  O   UNL     1       1.650  -0.357   0.000  0.00  0.00    +0.000 OA
ATOM     13  O   UNL     1       3.300   1.072   0.000  0.00  0.00    +0.000 OA
ATOM     14  O   UNL     1       4.125  -0.357   0.000  0.00  0.00    +0.000 OA
ATOM     15  O   UNL     1       3.300  -1.786   0.000  0.00  0.00    +0.000 OA
ATOM     16  C   UNL     1       2.062   0.357   0.000  0.00  0.00    +0.000 C 
ATOM     17  C   UNL     1       2.888   0.357   0.000  0.00  0.00    +0.000 C 
ATOM     18  C   UNL     1       3.300  -0.357   0.000  0.00  0.00    +0.000 C 
ATOM     19  C   UNL     1       2.888  -1.072   0.000  0.00  0.00    +0.000 C 
ATOM     20  C   UNL     1       2.062  -1.072   0.000  0.00  0.00    +0.000 C 
BRANCH  20  22
ATOM     21  O   UNL     1       2.062  -2.501   0.000  0.00  0.00    +0.000 OA
ATOM     22  C   UNL     1       1.650  -1.786   0.000  0.00  0.00    +0.000 C 
ENDBRANCH  20  22
ENDBRANCH  11  16
ENDBRANCH   4  11
BRANCH   8  23
ATOM     23  O   UNL     1      -1.650   1.072   0.000  0.00  0.00    +0.000 OA
BRANCH  23  28
ATOM     24  F   UNL     1      -4.125  -0.357   0.000  0.00  0.00    +0.000 F 
ATOM     25  O   UNL     1      -2.062  -1.072   0.000  0.00  0.00    +0.000 OA
ATOM     26  O   UNL     1      -3.300   1.071   0.000  0.00  0.00    +0.000 OA
ATOM     27  O   UNL     1      -3.300  -1.786   0.000  0.00  0.00    +0.000 OA
ATOM     28  C   UNL     1      -2.062   0.357   0.000  0.00  0.00    +0.000 C 
ATOM     29  C   UNL     1      -2.888   0.357   0.000  0.00  0.00    +0.000 C 
ATOM     30  C   UNL     1      -1.650  -0.357   0.000  0.00  0.00    +0.000 C 
ATOM     31  C   UNL     1      -3.300  -0.357   0.000  0.00  0.00    +0.000 C 
ATOM     32  C   UNL     1      -2.888  -1.072   0.000  0.00  0.00    +0.000 C 
BRANCH  30  34
ATOM     33  O   UNL     1      -0.412  -1.072   0.000  0.00  0.00    +0.000 OA
ATOM     34  C   UNL     1      -0.825  -0.357   0.000  0.00  0.00    +0.000 C 
ENDBRANCH  30  34
ENDBRANCH  23  28
ENDBRANCH   8  23
TORSDOF 7
