REMARK  Name = 
REMARK  5 active torsions:
REMARK  status: ('A' for Active; 'I' for Inactive)
REMARK    1  A    between atoms: C_5  and  C_6
REMARK    2  A    between atoms: C_6  and  N_7
REMARK    3  A    between atoms: N_7  and  C_8
REMARK    4  A    between atoms: C_8  and  C_9
REMARK    5  A    between atoms: C_16  and  C_18
REMARK                            x       y       z     vdW  Elec       q    Type
REMARK                         _______ _______ _______ _____ _____    ______ ____
ROOT
ATOM      1  C   UNL     1       3.260  -9.222   0.000  0.00  0.00    +0.000 C 
ATOM      2  F   UNL     1       2.730  -9.853   0.000  0.00  0.00    +0.000 F 
ATOM      3  C   UNL     1       3.542  -8.446   0.000  0.00  0.00    +0.000 C 
ATOM      4  C   UNL     1       4.355  -8.303   0.000  0.00  0.00    +0.000 C 
ATOM      5  N   UNL     1       4.885  -8.935   0.000  0.00  0.00    +0.000 N 
ATOM      6  C   UNL     1       4.603  -9.710   0.000  0.00  0.00    +0.000 C 
ATOM      7  C   UNL     1       3.791  -9.853   0.000  0.00  0.00    +0.000 C 
ATOM      8  C   UNL     1       5.698  -8.792   0.000  0.00  0.00    +0.000 C 
ATOM      9  O   UNL     1       5.980  -8.016   0.000  0.00  0.00    +0.000 OA
ENDROOT
BRANCH   8  10
ATOM     10  C   UNL     1       6.228  -9.424   0.000  0.00  0.00    +0.000 A 
ATOM     11  C   UNL     1       7.040  -9.280   0.000  0.00  0.00    +0.000 A 
ATOM     12  C   UNL     1       7.571  -9.912   0.000  0.00  0.00    +0.000 A 
ATOM     13  C   UNL     1       7.289 -10.688   0.000  0.00  0.00    +0.000 A 
ATOM     14  F   UNL     1       7.819 -11.320   0.000  0.00  0.00    +0.000 F 
ATOM     15  C   UNL     1       6.476 -10.831   0.000  0.00  0.00    +0.000 A 
ATOM     16 CL   UNL     1       6.194 -11.606   0.000  0.00  0.00    +0.000 Cl
ATOM     17  C   UNL     1       5.946 -10.199   0.000  0.00  0.00    +0.000 A 
ENDBRANCH   8  10
BRANCH   1  18
ATOM     18  C   UNL     1       2.546  -8.809   0.000  0.00  0.00    +0.000 C 
BRANCH  18  19
ATOM     19  N   UNL     1       2.546  -7.984   0.000  0.00  0.00    +0.000 NA
BRANCH  19  20
ATOM     20  C   UNL     1       1.831  -7.572   0.000  0.00  0.00    +0.000 C 
BRANCH  20  25
ATOM     21  C   UNL     1       1.831  -4.271   0.000  0.00  0.00    +0.000 C 
ATOM     22  C   UNL     1       1.831  -5.096   0.000  0.00  0.00    +0.000 A 
ATOM     23  C   UNL     1       2.546  -5.509   0.000  0.00  0.00    +0.000 A 
ATOM     24  N   UNL     1       2.546  -6.334   0.000  0.00  0.00    +0.000 NA
ATOM     25  C   UNL     1       1.831  -6.747   0.000  0.00  0.00    +0.000 A 
ATOM     26  N   UNL     1       1.117  -6.334   0.000  0.00  0.00    +0.000 NA
ATOM     27  C   UNL     1       1.117  -5.509   0.000  0.00  0.00    +0.000 A 
ENDBRANCH  20  25
ENDBRANCH  19  20
ENDBRANCH  18  19
ENDBRANCH   1  18
TORSDOF 5
