REMARK  Name = 
REMARK  4 active torsions:
REMARK  status: ('A' for Active; 'I' for Inactive)
REMARK    1  A    between atoms: B_1  and  C_2
REMARK    2  A    between atoms: C_7  and  C_9
REMARK    3  A    between atoms: C_9  and  N_10
REMARK    4  A    between atoms: N_10  and  C_11
REMARK                            x       y       z     vdW  Elec       q    Type
REMARK                         _______ _______ _______ _____ _____    ______ ____
ROOT
ATOM      1  C   UNL     1      -0.279  -2.870   0.000  0.00  0.00    +0.000 C 
ATOM      2  C   UNL     1       0.388  -3.355   0.000  0.00  0.00    +0.000 C 
ATOM      3  C   UNL     1       0.133  -4.140   0.000  0.00  0.00    +0.000 C 
ATOM      4  C   UNL     1      -0.692  -4.140   0.000  0.00  0.00    +0.000 C 
ATOM      5  N   UNL     1      -0.947  -3.355   0.000  0.00  0.00    +0.000 N 
ATOM      6  C   UNL     1      -1.731  -3.100   0.000  0.00  0.00    +0.000 C 
ATOM      7  O   UNL     1      -1.903  -2.293   0.000  0.00  0.00    +0.000 OA
ENDROOT
BRANCH   1   8
ATOM      8  B   UNL     1      -0.279  -2.045   0.000  0.00  0.00    +0.000 B 
ATOM      9  O   UNL     1      -0.994  -1.633   0.000  0.00  0.00    +0.000 OA
ATOM     10  O   UNL     1       0.435  -1.633   0.000  0.00  0.00    +0.000 OA
ENDBRANCH   1   8
BRANCH   6  11
ATOM     11  C   UNL     1      -2.344  -3.652   0.000  0.00  0.00    +0.000 C 
BRANCH  11  12
ATOM     12  N   UNL     1      -3.129  -3.397   0.000  0.00  0.00    +0.000 NA
BRANCH  12  13
ATOM     13  C   UNL     1      -3.742  -3.949   0.000  0.00  0.00    +0.000 C 
ATOM     14  C   UNL     1      -3.656  -4.770   0.000  0.00  0.00    +0.000 C 
ATOM     15  C   UNL     1      -4.410  -5.105   0.000  0.00  0.00    +0.000 C 
ATOM     16  N   UNL     1      -4.962  -4.492   0.000  0.00  0.00    +0.000 NA
ATOM     17  C   UNL     1      -4.549  -3.778   0.000  0.00  0.00    +0.000 C 
ENDBRANCH  12  13
ENDBRANCH  11  12
ENDBRANCH   6  11
TORSDOF 4
