REMARK  Name = 
REMARK  12 active torsions:
REMARK  status: ('A' for Active; 'I' for Inactive)
REMARK    1  A    between atoms: C_2  and  O_3
REMARK    2  A    between atoms: O_3  and  C_4
REMARK    3  A    between atoms: C_9  and  N_10
REMARK    4  A    between atoms: C_11  and  C_13
REMARK    5  A    between atoms: C_14  and  C_15
REMARK    6  A    between atoms: C_15  and  N_16
REMARK    7  A    between atoms: C_19  and  N_25
REMARK    8  A    between atoms: C_20  and  C_23
REMARK    9  A    between atoms: N_25  and  C_26
REMARK   10  A    between atoms: C_29  and  O_33
REMARK   11  A    between atoms: O_33  and  C_34
REMARK   12  A    between atoms: C_34  and  C_35
REMARK                            x       y       z     vdW  Elec       q    Type
REMARK                         _______ _______ _______ _____ _____    ______ ____
ROOT
ATOM      1  C   UNL     1      -0.715  -1.238   0.000  0.00  0.00    +0.000 A 
ATOM      2  C   UNL     1       0.000  -1.650   0.000  0.00  0.00    +0.000 A 
ATOM      3  C   UNL     1       0.715  -1.238   0.000  0.00  0.00    +0.000 A 
ATOM      4  C   UNL     1       0.715  -0.412   0.000  0.00  0.00    +0.000 A 
ATOM      5  C   UNL     1       0.000   0.000   0.000  0.00  0.00    +0.000 A 
ATOM      6  C   UNL     1      -0.715  -0.412   0.000  0.00  0.00    +0.000 A 
ATOM      7  C   UNL     1       1.429   0.000   0.000  0.00  0.00    +0.000 A 
ATOM      8  C   UNL     1       2.143  -0.412   0.000  0.00  0.00    +0.000 A 
ATOM      9  C   UNL     1       2.143  -1.238   0.000  0.00  0.00    +0.000 A 
ATOM     10  N   UNL     1       1.429  -1.650   0.000  0.00  0.00    +0.000 NA
ENDROOT
BRANCH   6  11
ATOM     11  N   UNL     1      -1.429   0.000   0.000  0.00  0.00    +0.000 NA
ATOM     12  C   UNL     1      -2.143  -0.412   0.000  0.00  0.00    +0.000 C 
ATOM     13  O   UNL     1      -2.858   0.000   0.000  0.00  0.00    +0.000 OA
BRANCH  12  14
ATOM     14  C   UNL     1      -2.143  -1.238   0.000  0.00  0.00    +0.000 C 
ATOM     15  C   UNL     1      -2.858  -1.650   0.000  0.00  0.00    +0.000 C 
BRANCH  15  16
ATOM     16  C   UNL     1      -2.858  -2.475   0.000  0.00  0.00    +0.000 C 
BRANCH  16  17
ATOM     17  N   UNL     1      -3.572  -2.888   0.000  0.00  0.00    +0.000 NA
ATOM     18  C   UNL     1      -3.572  -3.712   0.000  0.00  0.00    +0.000 C 
ATOM     19  C   UNL     1      -4.287  -2.475   0.000  0.00  0.00    +0.000 C 
ENDBRANCH  16  17
ENDBRANCH  15  16
ENDBRANCH  12  14
ENDBRANCH   6  11
BRANCH   8  20
ATOM     20  C   UNL     1       2.858   0.000   0.000  0.00  0.00    +0.000 C 
ATOM     21  N   UNL     1       3.572   0.412   0.000  0.00  0.00    +0.000 NA
ENDBRANCH   8  20
BRANCH   1  22
ATOM     22  O   UNL     1      -1.429  -1.650   0.000  0.00  0.00    +0.000 OA
BRANCH  22  24
ATOM     23  C   UNL     1      -2.143  -2.888   0.000  0.00  0.00    +0.000 C 
ATOM     24  C   UNL     1      -1.429  -2.475   0.000  0.00  0.00    +0.000 C 
ENDBRANCH  22  24
ENDBRANCH   1  22
BRANCH   7  25
ATOM     25  N   UNL     1       1.429   0.825   0.000  0.00  0.00    +0.000 NA
BRANCH  25  26
ATOM     26  C   UNL     1       2.143   1.238   0.000  0.00  0.00    +0.000 A 
ATOM     27  C   UNL     1       2.143   2.062   0.000  0.00  0.00    +0.000 A 
ATOM     28  C   UNL     1       2.858   2.475   0.000  0.00  0.00    +0.000 A 
ATOM     29  C   UNL     1       3.572   2.062   0.000  0.00  0.00    +0.000 A 
ATOM     30  C   UNL     1       3.572   1.238   0.000  0.00  0.00    +0.000 A 
ATOM     31  C   UNL     1       2.858   0.825   0.000  0.00  0.00    +0.000 A 
ATOM     32 CL   UNL     1       4.287   0.825   0.000  0.00  0.00    +0.000 Cl
BRANCH  29  33
ATOM     33  O   UNL     1       4.287   2.475   0.000  0.00  0.00    +0.000 OA
BRANCH  33  34
ATOM     34  C   UNL     1       4.287   3.300   0.000  0.00  0.00    +0.000 C 
BRANCH  34  35
ATOM     35  C   UNL     1       5.001   3.712   0.000  0.00  0.00    +0.000 A 
ATOM     36  C   UNL     1       5.001   4.537   0.000  0.00  0.00    +0.000 A 
ATOM     37  C   UNL     1       5.716   4.950   0.000  0.00  0.00    +0.000 A 
ATOM     38  C   UNL     1       6.430   4.537   0.000  0.00  0.00    +0.000 A 
ATOM     39  C   UNL     1       6.430   3.712   0.000  0.00  0.00    +0.000 A 
ATOM     40  N   UNL     1       5.716   3.300   0.000  0.00  0.00    +0.000 NA
ENDBRANCH  34  35
ENDBRANCH  33  34
ENDBRANCH  29  33
ENDBRANCH  25  26
ENDBRANCH   7  25
TORSDOF 12
