REMARK  Name = 
REMARK  4 active torsions:
REMARK  status: ('A' for Active; 'I' for Inactive)
REMARK    1  A    between atoms: C_1  and  C_5
REMARK    2  A    between atoms: C_1  and  C_19
REMARK    3  A    between atoms: C_8  and  N_28
REMARK    4  A    between atoms: C_11  and  C_13
REMARK                            x       y       z     vdW  Elec       q    Type
REMARK                         _______ _______ _______ _____ _____    ______ ____
ROOT
ATOM      1  C   UNL     1       0.665  -0.830   0.000  0.00  0.00    +0.000 C 
ATOM      2  C   UNL     1       1.075  -1.546   0.000  0.00  0.00    +0.000 C 
ENDROOT
BRANCH   1   7
ATOM      3  C   UNL     1       2.091  -0.833   0.000  0.00  0.00    +0.000 A 
ATOM      4  C   UNL     1       2.807  -0.419   0.000  0.00  0.00    +0.000 A 
ATOM      5  C   UNL     1       2.804   0.411   0.000  0.00  0.00    +0.000 A 
ATOM      6  C   UNL     1       2.089   0.820   0.000  0.00  0.00    +0.000 A 
ATOM      7  C   UNL     1       1.376  -0.420   0.000  0.00  0.00    +0.000 A 
ATOM      8  C   UNL     1       1.380   0.403   0.000  0.00  0.00    +0.000 A 
ATOM      9  F   UNL     1       3.522  -0.831   0.000  0.00  0.00    +0.000 F 
BRANCH   5  10
ATOM     10  C   UNL     1       3.514   0.825   0.000  0.00  0.00    +0.000 A 
ATOM     11  C   UNL     1       4.231   0.413   0.000  0.00  0.00    +0.000 A 
ATOM     12  C   UNL     1       4.943   0.828   0.000  0.00  0.00    +0.000 A 
ATOM     13  C   UNL     1       4.941   1.654   0.000  0.00  0.00    +0.000 A 
ATOM     14  C   UNL     1       4.219   2.064   0.000  0.00  0.00    +0.000 A 
ATOM     15  C   UNL     1       3.510   1.647   0.000  0.00  0.00    +0.000 A 
ENDBRANCH   5  10
ENDBRANCH   1   7
BRANCH   1  17
ATOM     16  C   UNL     1      -0.716  -0.895   0.000  0.00  0.00    +0.000 A 
ATOM     17  C   UNL     1      -0.046  -0.413   0.000  0.00  0.00    +0.000 A 
ATOM     18  N   UNL     1      -0.303   0.376   0.000  0.00  0.00    +0.000 NA
ATOM     19  O   UNL     1      -1.128   0.376   0.000  0.00  0.00    +0.000 OA
ATOM     20  C   UNL     1      -1.385  -0.413   0.000  0.00  0.00    +0.000 A 
BRANCH  20  28
ATOM     21  C   UNL     1      -4.943  -0.830   0.000  0.00  0.00    +0.000 C 
ATOM     22  O   UNL     1      -4.943  -1.655   0.000  0.00  0.00    +0.000 OA
ATOM     23  C   UNL     1      -4.231  -2.064   0.000  0.00  0.00    +0.000 C 
ATOM     24  C   UNL     1      -4.231  -0.413   0.000  0.00  0.00    +0.000 C 
ATOM     25  N   UNL     1      -3.519  -0.830   0.000  0.00  0.00    +0.000 N 
ATOM     26  C   UNL     1      -3.518  -1.655   0.000  0.00  0.00    +0.000 C 
ATOM     27  C   UNL     1      -2.809  -0.414   0.000  0.00  0.00    +0.000 C 
ATOM     28  N   UNL     1      -2.093  -0.828   0.000  0.00  0.00    +0.000 NA
ATOM     29  N   UNL     1      -2.811   0.410   0.000  0.00  0.00    +0.000 NA
ENDBRANCH  20  28
ENDBRANCH   1  17
TORSDOF 4
