REMARK  Name = 
REMARK  5 active torsions:
REMARK  status: ('A' for Active; 'I' for Inactive)
REMARK    1  A    between atoms: C_1  and  C_4
REMARK    2  A    between atoms: C_4  and  C_7
REMARK    3  A    between atoms: C_7  and  C_8
REMARK    4  A    between atoms: C_8  and  C_9
REMARK    5  A    between atoms: C_9  and  C_10
REMARK                            x       y       z     vdW  Elec       q    Type
REMARK                         _______ _______ _______ _____ _____    ______ ____
ROOT
ATOM      1  C   UNL     1      -0.782   0.179   0.000  0.00  0.00    +0.000 C 
ENDROOT
BRANCH   1   2
ATOM      2  C   UNL     1      -1.509  -0.212   0.000  0.00  0.00    +0.000 C 
ATOM      3  C   UNL     1      -1.662  -0.989   0.000  0.00  0.00    +0.000 C 
ATOM      4  S   UNL     1      -2.187   0.241   0.000  0.00  0.00    +0.000 S 
ATOM      5  C   UNL     1      -2.540  -0.989   0.000  0.00  0.00    +0.000 C 
ATOM      6  S   UNL     1      -2.791  -0.300   0.000  0.00  0.00    +0.000 S 
ENDBRANCH   1   2
BRANCH   1   7
ATOM      7  C   UNL     1      -0.062  -0.224   0.000  0.00  0.00    +0.000 C 
BRANCH   7   8
ATOM      8  C   UNL     1       0.617   0.167   0.000  0.00  0.00    +0.000 C 
BRANCH   8   9
ATOM      9  C   UNL     1       1.335  -0.243   0.000  0.00  0.00    +0.000 C 
BRANCH   9  10
ATOM     10  C   UNL     1       2.071   0.116   0.000  0.00  0.00    +0.000 C 
ATOM     11  N   UNL     1       2.791  -0.274   0.000  0.00  0.00    +0.000 NA
ATOM     12  O   UNL     1       2.064   0.989   0.000  0.00  0.00    +0.000 OA
ENDBRANCH   9  10
ENDBRANCH   8   9
ENDBRANCH   7   8
ENDBRANCH   1   7
TORSDOF 5
