REMARK  Name = 
REMARK  1 active torsions:
REMARK  status: ('A' for Active; 'I' for Inactive)
REMARK    1  A    between atoms: C_2  and  N_8
REMARK                            x       y       z     vdW  Elec       q    Type
REMARK                         _______ _______ _______ _____ _____    ______ ____
ROOT
ATOM      1  C   UNL     1       0.715  -2.888   0.000  0.00  0.00    +0.000 A 
ATOM      2  C   UNL     1       0.000  -2.475   0.000  0.00  0.00    +0.000 A 
ATOM      3  N   UNL     1       0.000  -1.650   0.000  0.00  0.00    +0.000 NA
ATOM      4  C   UNL     1       0.715  -1.238   0.000  0.00  0.00    +0.000 A 
ATOM      5  C   UNL     1       1.429  -1.650   0.000  0.00  0.00    +0.000 A 
ATOM      6  N   UNL     1       1.429  -2.475   0.000  0.00  0.00    +0.000 NA
ATOM      7 CL   UNL     1       0.715  -0.412   0.000  0.00  0.00    +0.000 Cl
ENDROOT
BRANCH   2   8
ATOM      8  N   UNL     1      -0.715  -2.888   0.000  0.00  0.00    +0.000 N 
ATOM      9  C   UNL     1      -0.715  -3.712   0.000  0.00  0.00    +0.000 C 
ATOM     10  C   UNL     1      -1.429  -4.125   0.000  0.00  0.00    +0.000 C 
ATOM     11  N   UNL     1      -2.143  -3.712   0.000  0.00  0.00    +0.000 NA
ATOM     12  C   UNL     1      -2.143  -2.888   0.000  0.00  0.00    +0.000 C 
ATOM     13  C   UNL     1      -1.429  -2.475   0.000  0.00  0.00    +0.000 C 
ENDBRANCH   2   8
TORSDOF 1
