REMARK  Name = 
REMARK  2 active torsions:
REMARK  status: ('A' for Active; 'I' for Inactive)
REMARK    1  A    between atoms: N_10  and  C_11
REMARK    2  A    between atoms: C_13  and  C_14
REMARK                            x       y       z     vdW  Elec       q    Type
REMARK                         _______ _______ _______ _____ _____    ______ ____
ROOT
ATOM      1  N   UNL     1       0.937  -0.227   0.000  0.00  0.00    +0.000 NA
ATOM      2  C   UNL     1       0.937  -1.052   0.000  0.00  0.00    +0.000 A 
ATOM      3  N   UNL     1       0.223  -1.464   0.000  0.00  0.00    +0.000 NA
ATOM      4  C   UNL     1       0.223  -2.289   0.000  0.00  0.00    +0.000 A 
ATOM      5  N   UNL     1       0.937  -2.702   0.000  0.00  0.00    +0.000 NA
ATOM      6  C   UNL     1       1.652  -2.289   0.000  0.00  0.00    +0.000 A 
ATOM      7  C   UNL     1       1.652  -1.464   0.000  0.00  0.00    +0.000 A 
ATOM      8  N   UNL     1       2.436  -1.209   0.000  0.00  0.00    +0.000 NA
ATOM      9  C   UNL     1       2.921  -1.877   0.000  0.00  0.00    +0.000 A 
ATOM     10  N   UNL     1       2.436  -2.544   0.000  0.00  0.00    +0.000 N 
ENDROOT
BRANCH  10  11
ATOM     11  C   UNL     1       2.691  -3.329   0.000  0.00  0.00    +0.000 C 
ATOM     12  O   UNL     1       2.206  -3.996   0.000  0.00  0.00    +0.000 OA
ATOM     13  C   UNL     1       2.691  -4.664   0.000  0.00  0.00    +0.000 C 
ATOM     14  C   UNL     1       3.476  -4.409   0.000  0.00  0.00    +0.000 C 
ATOM     15  O   UNL     1       4.143  -4.894   0.000  0.00  0.00    +0.000 OA
ATOM     16  C   UNL     1       3.476  -3.584   0.000  0.00  0.00    +0.000 C 
ATOM     17  O   UNL     1       4.143  -3.099   0.000  0.00  0.00    +0.000 OA
BRANCH  13  18
ATOM     18  C   UNL     1       2.436  -5.449   0.000  0.00  0.00    +0.000 C 
ATOM     19  F   UNL     1       2.988  -6.062   0.000  0.00  0.00    +0.000 F 
ENDBRANCH  13  18
ENDBRANCH  10  11
TORSDOF 2
