REMARK  Name = 
REMARK  2 active torsions:
REMARK  status: ('A' for Active; 'I' for Inactive)
REMARK    1  A    between atoms: C_5  and  C_12
REMARK    2  A    between atoms: C_6  and  C_12
REMARK                            x       y       z     vdW  Elec       q    Type
REMARK                         _______ _______ _______ _____ _____    ______ ____
ROOT
ATOM      1  C   UNL     1      -0.590   1.117   0.000  0.00  0.00    +0.000 C 
ATOM      2  C   UNL     1      -0.007   0.533   0.000  0.00  0.00    +0.000 C 
ATOM      3  C   UNL     1       0.576   1.117   0.000  0.00  0.00    +0.000 C 
ENDROOT
BRANCH   2   8
ATOM      4  C   UNL     1      -1.436   0.533   0.000  0.00  0.00    +0.000 A 
ATOM      5  C   UNL     1      -2.150   0.121   0.000  0.00  0.00    +0.000 A 
ATOM      6  C   UNL     1      -1.436  -1.117   0.000  0.00  0.00    +0.000 A 
ATOM      7  C   UNL     1      -0.721  -0.704   0.000  0.00  0.00    +0.000 A 
ATOM      8  C   UNL     1      -0.721   0.121   0.000  0.00  0.00    +0.000 A 
ATOM      9  C   UNL     1      -2.150  -0.704   0.000  0.00  0.00    +0.000 A 
ATOM     10  O   UNL     1      -2.865  -1.117   0.000  0.00  0.00    +0.000 OA
ENDBRANCH   2   8
BRANCH   2  11
ATOM     11  C   UNL     1       0.707   0.121   0.000  0.00  0.00    +0.000 A 
ATOM     12  C   UNL     1       1.415   0.545   0.000  0.00  0.00    +0.000 A 
ATOM     13  C   UNL     1       0.722  -0.704   0.000  0.00  0.00    +0.000 A 
ATOM     14  C   UNL     1       1.443  -1.104   0.000  0.00  0.00    +0.000 A 
ATOM     15  C   UNL     1       2.136   0.145   0.000  0.00  0.00    +0.000 A 
ATOM     16  C   UNL     1       2.150  -0.679   0.000  0.00  0.00    +0.000 A 
ATOM     17  O   UNL     1       2.865  -1.092   0.000  0.00  0.00    +0.000 OA
ENDBRANCH   2  11
TORSDOF 2
