REMARK  Name = 
REMARK  6 active torsions:
REMARK  status: ('A' for Active; 'I' for Inactive)
REMARK    1  A    between atoms: C_2  and  N_5
REMARK    2  A    between atoms: N_5  and  C_6
REMARK    3  A    between atoms: C_6  and  C_7
REMARK    4  A    between atoms: C_7  and  C_8
REMARK    5  A    between atoms: C_8  and  O_9
REMARK    6  A    between atoms: O_9  and  C_10
REMARK                            x       y       z     vdW  Elec       q    Type
REMARK                         _______ _______ _______ _____ _____    ______ ____
ROOT
ATOM      1  C   UNL     1       0.000   2.475   0.000  0.00  0.00    +0.000 C 
ENDROOT
BRANCH   1   2
ATOM      2  C   UNL     1       0.000   3.300   0.000  0.00  0.00    +0.000 C 
ATOM      3  O   UNL     1       0.715   3.712   0.000  0.00  0.00    +0.000 OA
BRANCH   2   4
ATOM      4  C   UNL     1      -0.715   3.712   0.000  0.00  0.00    +0.000 C 
BRANCH   4   5
ATOM      5  N   UNL     1      -0.715   4.537   0.000  0.00  0.00    +0.000 NA
BRANCH   5   7
ATOM      6  C   UNL     1      -2.143   5.362   0.000  0.00  0.00    +0.000 C 
ATOM      7  C   UNL     1      -1.429   4.950   0.000  0.00  0.00    +0.000 C 
ATOM      8  C   UNL     1      -1.841   4.236   0.000  0.00  0.00    +0.000 C 
ATOM      9  C   UNL     1      -1.016   5.665   0.000  0.00  0.00    +0.000 C 
ENDBRANCH   5   7
ENDBRANCH   4   5
ENDBRANCH   2   4
ENDBRANCH   1   2
BRANCH   1  10
ATOM     10  O   UNL     1       0.715   2.062   0.000  0.00  0.00    +0.000 OA
BRANCH  10  11
ATOM     11  C   UNL     1       0.715   1.238   0.000  0.00  0.00    +0.000 A 
ATOM     12  C   UNL     1       1.429   0.825   0.000  0.00  0.00    +0.000 A 
ATOM     13  C   UNL     1       1.429   0.000   0.000  0.00  0.00    +0.000 A 
ATOM     14  C   UNL     1       0.715  -0.412   0.000  0.00  0.00    +0.000 A 
ATOM     15  C   UNL     1       0.000   0.000   0.000  0.00  0.00    +0.000 A 
ATOM     16  C   UNL     1       0.000   0.825   0.000  0.00  0.00    +0.000 A 
ATOM     17 CL   UNL     1      -0.715   1.238   0.000  0.00  0.00    +0.000 Cl
ATOM     18 CL   UNL     1       2.143  -0.412   0.000  0.00  0.00    +0.000 Cl
ENDBRANCH  10  11
ENDBRANCH   1  10
TORSDOF 6
