REMARK  Name = 
REMARK  19 active torsions:
REMARK  status: ('A' for Active; 'I' for Inactive)
REMARK    1  A    between atoms: C_5  and  C_8
REMARK    2  A    between atoms: C_8  and  N_9
REMARK    3  A    between atoms: N_9  and  C_10
REMARK    4  A    between atoms: C_11  and  S_12
REMARK    5  A    between atoms: C_11  and  C_37
REMARK    6  A    between atoms: S_12  and  S_13
REMARK    7  A    between atoms: S_13  and  C_14
REMARK    8  A    between atoms: C_14  and  C_29
REMARK    9  A    between atoms: C_15  and  N_16
REMARK   10  A    between atoms: N_16  and  C_19
REMARK   11  A    between atoms: C_19  and  C_20
REMARK   12  A    between atoms: C_29  and  C_30
REMARK   13  A    between atoms: C_30  and  O_31
REMARK   14  A    between atoms: O_31  and  C_32
REMARK   15  A    between atoms: C_32  and  C_34
REMARK   16  A    between atoms: C_37  and  C_38
REMARK   17  A    between atoms: C_38  and  O_39
REMARK   18  A    between atoms: O_39  and  C_40
REMARK   19  A    between atoms: C_40  and  C_42
REMARK                            x       y       z     vdW  Elec       q    Type
REMARK                         _______ _______ _______ _____ _____    ______ ____
ROOT
ATOM      1  S   UNL     1       0.000  -6.600   0.000  0.00  0.00    +0.000 S 
ENDROOT
BRANCH   1   3
ATOM      2  C   UNL     1      -0.715  -5.362   0.000  0.00  0.00    +0.000 C 
ATOM      3  C   UNL     1       0.000  -5.775   0.000  0.00  0.00    +0.000 C 
ATOM      4  C   UNL     1      -1.429  -5.775   0.000  0.00  0.00    +0.000 C 
BRANCH   2   5
ATOM      5  N   UNL     1      -0.715  -4.537   0.000  0.00  0.00    +0.000 N 
ATOM      6  C   UNL     1      -1.429  -4.125   0.000  0.00  0.00    +0.000 C 
ATOM      7  O   UNL     1      -2.143  -4.537   0.000  0.00  0.00    +0.000 OA
BRANCH   5   8
ATOM      8  C   UNL     1       0.000  -4.125   0.000  0.00  0.00    +0.000 C 
BRANCH   8  13
ATOM      9  C   UNL     1       0.000  -0.825   0.000  0.00  0.00    +0.000 C 
ATOM     10  C   UNL     1       0.000  -1.650   0.000  0.00  0.00    +0.000 A 
ATOM     11  N   UNL     1       0.715  -2.062   0.000  0.00  0.00    +0.000 NA
ATOM     12  C   UNL     1       0.715  -2.888   0.000  0.00  0.00    +0.000 A 
ATOM     13  C   UNL     1       0.000  -3.300   0.000  0.00  0.00    +0.000 A 
ATOM     14  C   UNL     1      -0.715  -2.888   0.000  0.00  0.00    +0.000 A 
ATOM     15  N   UNL     1      -0.715  -2.062   0.000  0.00  0.00    +0.000 NA
ATOM     16  N   UNL     1       1.429  -3.300   0.000  0.00  0.00    +0.000 NA
ENDBRANCH   8  13
ENDBRANCH   5   8
ENDBRANCH   2   5
BRANCH   3  17
ATOM     17  C   UNL     1       0.715  -5.362   0.000  0.00  0.00    +0.000 C 
BRANCH  17  18
ATOM     18  C   UNL     1       1.429  -5.775   0.000  0.00  0.00    +0.000 C 
BRANCH  18  19
ATOM     19  O   UNL     1       2.143  -5.362   0.000  0.00  0.00    +0.000 OA
BRANCH  19  20
ATOM     20  C   UNL     1       2.858  -5.775   0.000  0.00  0.00    +0.000 C 
ATOM     21  O   UNL     1       2.858  -6.600   0.000  0.00  0.00    +0.000 OA
BRANCH  20  22
ATOM     22  C   UNL     1       3.572  -5.362   0.000  0.00  0.00    +0.000 C 
ATOM     23  C   UNL     1       3.572  -4.537   0.000  0.00  0.00    +0.000 C 
ATOM     24  C   UNL     1       4.287  -5.775   0.000  0.00  0.00    +0.000 C 
ENDBRANCH  20  22
ENDBRANCH  19  20
ENDBRANCH  18  19
ENDBRANCH  17  18
ENDBRANCH   3  17
ENDBRANCH   1   3
BRANCH   1  25
ATOM     25  S   UNL     1      -0.715  -7.013   0.000  0.00  0.00    +0.000 S 
BRANCH  25  26
ATOM     26  C   UNL     1      -0.715  -7.838   0.000  0.00  0.00    +0.000 C 
ATOM     27  C   UNL     1       0.000  -8.250   0.000  0.00  0.00    +0.000 C 
ATOM     28  C   UNL     1       0.715  -7.838   0.000  0.00  0.00    +0.000 C 
BRANCH  27  29
ATOM     29  N   UNL     1       0.000  -9.075   0.000  0.00  0.00    +0.000 N 
ATOM     30  C   UNL     1      -0.715  -9.488   0.000  0.00  0.00    +0.000 C 
ATOM     31  O   UNL     1      -0.715 -10.312   0.000  0.00  0.00    +0.000 OA
BRANCH  29  32
ATOM     32  C   UNL     1       0.715  -9.488   0.000  0.00  0.00    +0.000 C 
BRANCH  32  33
ATOM     33  C   UNL     1       0.715 -10.312   0.000  0.00  0.00    +0.000 A 
ATOM     34  C   UNL     1       1.429 -10.725   0.000  0.00  0.00    +0.000 A 
ATOM     35  N   UNL     1       1.429 -11.550   0.000  0.00  0.00    +0.000 NA
ATOM     36  C   UNL     1       0.715 -11.963   0.000  0.00  0.00    +0.000 A 
ATOM     37  N   UNL     1       0.000 -11.550   0.000  0.00  0.00    +0.000 NA
ATOM     38  C   UNL     1       0.000 -10.725   0.000  0.00  0.00    +0.000 A 
ATOM     39  C   UNL     1       0.715 -12.787   0.000  0.00  0.00    +0.000 C 
ATOM     40  N   UNL     1       2.143 -10.312   0.000  0.00  0.00    +0.000 NA
ENDBRANCH  32  33
ENDBRANCH  29  32
ENDBRANCH  27  29
BRANCH  26  41
ATOM     41  C   UNL     1      -1.429  -8.250   0.000  0.00  0.00    +0.000 C 
BRANCH  41  42
ATOM     42  C   UNL     1      -2.143  -7.838   0.000  0.00  0.00    +0.000 C 
BRANCH  42  43
ATOM     43  O   UNL     1      -2.858  -8.250   0.000  0.00  0.00    +0.000 OA
BRANCH  43  44
ATOM     44  C   UNL     1      -3.572  -7.838   0.000  0.00  0.00    +0.000 C 
ATOM     45  O   UNL     1      -3.572  -7.013   0.000  0.00  0.00    +0.000 OA
BRANCH  44  46
ATOM     46  C   UNL     1      -4.287  -8.250   0.000  0.00  0.00    +0.000 C 
ATOM     47  C   UNL     1      -4.287  -9.075   0.000  0.00  0.00    +0.000 C 
ATOM     48  C   UNL     1      -5.001  -7.838   0.000  0.00  0.00    +0.000 C 
ENDBRANCH  44  46
ENDBRANCH  43  44
ENDBRANCH  42  43
ENDBRANCH  41  42
ENDBRANCH  26  41
ENDBRANCH  25  26
ENDBRANCH   1  25
TORSDOF 19
