REMARK  Name = 
REMARK  6 active torsions:
REMARK  status: ('A' for Active; 'I' for Inactive)
REMARK    1  A    between atoms: C_3  and  N_15
REMARK    2  A    between atoms: C_7  and  C_9
REMARK    3  A    between atoms: C_7  and  N_15
REMARK    4  A    between atoms: C_8  and  N_16
REMARK    5  A    between atoms: C_11  and  N_13
REMARK    6  A    between atoms: C_11  and  N_15
REMARK                            x       y       z     vdW  Elec       q    Type
REMARK                         _______ _______ _______ _____ _____    ______ ____
ROOT
ATOM      1  N   UNL     1       0.000  -1.650   0.000  0.00  0.00    +0.000 N 
ENDROOT
BRANCH   1   3
ATOM      2  C   UNL     1      -0.715  -2.888   0.000  0.00  0.00    +0.000 C 
ATOM      3  C   UNL     1       0.000  -2.475   0.000  0.00  0.00    +0.000 C 
ENDBRANCH   1   3
BRANCH   1   5
ATOM      4  C   UNL     1      -0.715  -0.412   0.000  0.00  0.00    +0.000 C 
ATOM      5  C   UNL     1      -0.715  -1.238   0.000  0.00  0.00    +0.000 C 
BRANCH   4   6
ATOM      6  N   UNL     1      -1.429   0.000   0.000  0.00  0.00    +0.000 N 
ATOM      7  O   UNL     1      -2.143  -0.412   0.000  0.00  0.00    +0.000 OA
ATOM      8  O   UNL     1      -1.429   0.825   0.000  0.00  0.00    +0.000 OA
ENDBRANCH   4   6
BRANCH   5  10
ATOM      9  C   UNL     1      -1.429  -2.475   0.000  0.00  0.00    +0.000 C 
ATOM     10  N   UNL     1      -1.429  -1.650   0.000  0.00  0.00    +0.000 NA
ENDBRANCH   5  10
ENDBRANCH   1   5
BRANCH   1  11
ATOM     11  C   UNL     1       0.715  -1.238   0.000  0.00  0.00    +0.000 C 
BRANCH  11  15
ATOM     12  C   UNL     1       1.429   0.000   0.000  0.00  0.00    +0.000 A 
ATOM     13  C   UNL     1       1.429   0.825   0.000  0.00  0.00    +0.000 A 
ATOM     14  C   UNL     1       0.000   0.000   0.000  0.00  0.00    +0.000 A 
ATOM     15  C   UNL     1       0.715  -0.412   0.000  0.00  0.00    +0.000 A 
ATOM     16  C   UNL     1       0.715   1.238   0.000  0.00  0.00    +0.000 A 
ATOM     17 CL   UNL     1       0.715   2.062   0.000  0.00  0.00    +0.000 Cl
ATOM     18  N   UNL     1       0.000   0.825   0.000  0.00  0.00    +0.000 NA
ENDBRANCH  11  15
ENDBRANCH   1  11
TORSDOF 6
