REMARK  Name = 
REMARK  9 active torsions:
REMARK  status: ('A' for Active; 'I' for Inactive)
REMARK    1  A    between atoms: S_1  and  O_6
REMARK    2  A    between atoms: S_1  and  N_15
REMARK    3  A    between atoms: S_2  and  C_30
REMARK    4  A    between atoms: O_6  and  C_22
REMARK    5  A    between atoms: N_10  and  C_17
REMARK    6  A    between atoms: C_20  and  C_22
REMARK    7  A    between atoms: C_27  and  C_28
REMARK    8  A    between atoms: C_27  and  C_29
REMARK    9  A    between atoms: C_29  and  C_30
REMARK                            x       y       z     vdW  Elec       q    Type
REMARK                         _______ _______ _______ _____ _____    ______ ____
ROOT
ATOM      1  O   UNL     1      -1.082  -1.062   0.000  0.00  0.00    +0.000 OA
ATOM      2  O   UNL     1      -0.457  -3.103   0.000  0.00  0.00    +0.000 OA
ATOM      3  O   UNL     1       0.879  -1.905   0.000  0.00  0.00    +0.000 OA
ATOM      4  C   UNL     1      -1.255  -1.869   0.000  0.00  0.00    +0.000 C 
ATOM      5  C   UNL     1      -0.542  -2.283   0.000  0.00  0.00    +0.000 C 
ATOM      6  C   UNL     1       0.072  -1.732   0.000  0.00  0.00    +0.000 C 
ATOM      7  C   UNL     1      -0.262  -0.977   0.000  0.00  0.00    +0.000 C 
ENDROOT
BRANCH   4   8
ATOM      8  N   UNL     1      -2.010  -2.203   0.000  0.00  0.00    +0.000 N 
ATOM      9  N   UNL     1      -2.996  -3.091   0.000  0.00  0.00    +0.000 NA
ATOM     10  N   UNL     1      -2.890  -0.984   0.000  0.00  0.00    +0.000 NA
ATOM     11  N   UNL     1      -4.288  -1.281   0.000  0.00  0.00    +0.000 NA
ATOM     12  N   UNL     1      -4.729  -2.640   0.000  0.00  0.00    +0.000 NA
ATOM     13  C   UNL     1      -2.719  -1.791   0.000  0.00  0.00    +0.000 C 
ATOM     14  C   UNL     1      -2.181  -3.005   0.000  0.00  0.00    +0.000 C 
ATOM     15  C   UNL     1      -3.332  -2.343   0.000  0.00  0.00    +0.000 C 
ATOM     16  C   UNL     1      -4.117  -2.088   0.000  0.00  0.00    +0.000 C 
ATOM     17  C   UNL     1      -3.675  -0.729   0.000  0.00  0.00    +0.000 C 
ENDBRANCH   4   8
BRANCH   7  18
ATOM     18  C   UNL     1       0.152  -0.264   0.000  0.00  0.00    +0.000 C 
BRANCH  18  19
ATOM     19  O   UNL     1       0.977  -0.265   0.000  0.00  0.00    +0.000 OA
BRANCH  19  20
ATOM     20  S   UNL     1       1.391   0.449   0.000  0.00  0.00    +0.000 S 
ATOM     21  O   UNL     1       2.104   0.035   0.000  0.00  0.00    +0.000 OA
ATOM     22  O   UNL     1       0.677   0.862   0.000  0.00  0.00    +0.000 OA
BRANCH  20  24
ATOM     23  O   UNL     1       3.041   0.446   0.000  0.00  0.00    +0.000 OA
ATOM     24  N   UNL     1       1.804   1.162   0.000  0.00  0.00    +0.000 NA
ATOM     25  C   UNL     1       2.629   1.161   0.000  0.00  0.00    +0.000 C 
BRANCH  25  27
ATOM     26  N   UNL     1       3.868   1.873   0.000  0.00  0.00    +0.000 NA
ATOM     27  C   UNL     1       3.043   1.875   0.000  0.00  0.00    +0.000 C 
BRANCH  27  28
ATOM     28  C   UNL     1       2.632   2.590   0.000  0.00  0.00    +0.000 C 
BRANCH  28  29
ATOM     29  C   UNL     1       3.046   3.304   0.000  0.00  0.00    +0.000 C 
BRANCH  29  30
ATOM     30  S   UNL     1       2.634   4.019   0.000  0.00  0.00    +0.000 S 
ATOM     31  C   UNL     1       3.048   4.733   0.000  0.00  0.00    +0.000 C 
ENDBRANCH  29  30
ENDBRANCH  28  29
ENDBRANCH  27  28
ENDBRANCH  25  27
ENDBRANCH  20  24
ENDBRANCH  19  20
ENDBRANCH  18  19
ENDBRANCH   7  18
TORSDOF 9
