REMARK  Name = 
REMARK  5 active torsions:
REMARK  status: ('A' for Active; 'I' for Inactive)
REMARK    1  A    between atoms: C_1  and  C_2
REMARK    2  A    between atoms: C_2  and  S_6
REMARK    3  A    between atoms: S_6  and  C_8
REMARK    4  A    between atoms: C_8  and  C_9
REMARK    5  A    between atoms: C_8  and  C_15
REMARK                            x       y       z     vdW  Elec       q    Type
REMARK                         _______ _______ _______ _____ _____    ______ ____
ROOT
ATOM      1  C   UNL     1       0.000  -0.412   0.000  0.00  0.00    +0.000 C 
ENDROOT
BRANCH   1   2
ATOM      2  C   UNL     1       0.714  -0.825   0.000  0.00  0.00    +0.000 A 
ATOM      3  C   UNL     1       1.429  -0.412   0.000  0.00  0.00    +0.000 A 
ATOM      4  C   UNL     1       2.143  -0.825   0.000  0.00  0.00    +0.000 A 
ATOM      5  C   UNL     1       2.143  -1.650   0.000  0.00  0.00    +0.000 A 
ATOM      6  C   UNL     1       1.429  -2.062   0.000  0.00  0.00    +0.000 A 
ATOM      7  C   UNL     1       0.714  -1.650   0.000  0.00  0.00    +0.000 A 
ENDBRANCH   1   2
BRANCH   1   8
ATOM      8  C   UNL     1      -0.715  -0.825   0.000  0.00  0.00    +0.000 A 
ATOM      9  C   UNL     1      -0.715  -1.650   0.000  0.00  0.00    +0.000 A 
ATOM     10  C   UNL     1      -1.429  -2.062   0.000  0.00  0.00    +0.000 A 
ATOM     11  C   UNL     1      -2.143  -1.650   0.000  0.00  0.00    +0.000 A 
ATOM     12  C   UNL     1      -2.143  -0.825   0.000  0.00  0.00    +0.000 A 
ATOM     13  C   UNL     1      -1.429  -0.412   0.000  0.00  0.00    +0.000 A 
ENDBRANCH   1   8
BRANCH   1  14
ATOM     14  S   UNL     1       0.000   0.412   0.000  0.00  0.00    +0.000 S 
ATOM     15  O   UNL     1       0.714   0.825   0.000  0.00  0.00    +0.000 OA
BRANCH  14  16
ATOM     16  C   UNL     1      -0.715   0.825   0.000  0.00  0.00    +0.000 C 
BRANCH  16  17
ATOM     17  C   UNL     1      -0.715   1.650   0.000  0.00  0.00    +0.000 C 
ATOM     18  O   UNL     1       0.000   2.062   0.000  0.00  0.00    +0.000 OA
ATOM     19  N   UNL     1      -1.429   2.062   0.000  0.00  0.00    +0.000 NA
ATOM     20  O   UNL     1      -2.143   1.650   0.000  0.00  0.00    +0.000 OA
ENDBRANCH  16  17
ENDBRANCH  14  16
ENDBRANCH   1  14
TORSDOF 5
