REMARK  Name = 
REMARK  4 active torsions:
REMARK  status: ('A' for Active; 'I' for Inactive)
REMARK    1  A    between atoms: C_3  and  C_23
REMARK    2  A    between atoms: C_11  and  C_12
REMARK    3  A    between atoms: C_15  and  S_18
REMARK    4  A    between atoms: C_23  and  C_24
REMARK                            x       y       z     vdW  Elec       q    Type
REMARK                         _______ _______ _______ _____ _____    ______ ____
ROOT
ATOM      1  C   UNL     1      -0.171  -0.698   0.000  0.00  0.00    +0.000 C 
ATOM      2  C   UNL     1       0.654  -0.698   0.000  0.00  0.00    +0.000 C 
ATOM      3  C   UNL     1       1.139  -0.030   0.000  0.00  0.00    +0.000 C 
ATOM      4  C   UNL     1       1.923  -0.285   0.000  0.00  0.00    +0.000 A 
ATOM      5  C   UNL     1       2.638   0.127   0.000  0.00  0.00    +0.000 A 
ATOM      6  C   UNL     1       3.352  -0.285   0.000  0.00  0.00    +0.000 A 
ATOM      7  C   UNL     1       3.352  -1.110   0.000  0.00  0.00    +0.000 A 
ATOM      8  C   UNL     1       2.638  -1.523   0.000  0.00  0.00    +0.000 A 
ATOM      9  C   UNL     1       1.923  -1.110   0.000  0.00  0.00    +0.000 A 
ATOM     10  C   UNL     1       1.139  -1.365   0.000  0.00  0.00    +0.000 C 
ATOM     11  C   UNL     1       0.884  -2.150   0.000  0.00  0.00    +0.000 C 
ATOM     12  F   UNL     1       4.067   0.127   0.000  0.00  0.00    +0.000 F 
ENDROOT
BRANCH  11  13
ATOM     13  C   UNL     1       1.436  -2.763   0.000  0.00  0.00    +0.000 A 
ATOM     14  C   UNL     1       2.243  -2.592   0.000  0.00  0.00    +0.000 A 
ATOM     15  C   UNL     1       2.795  -3.205   0.000  0.00  0.00    +0.000 A 
ATOM     16  C   UNL     1       2.540  -3.989   0.000  0.00  0.00    +0.000 A 
ATOM     17  C   UNL     1       1.733  -4.161   0.000  0.00  0.00    +0.000 A 
ATOM     18  C   UNL     1       1.181  -3.548   0.000  0.00  0.00    +0.000 A 
BRANCH  16  19
ATOM     19  S   UNL     1       3.092  -4.602   0.000  0.00  0.00    +0.000 S 
ATOM     20  O   UNL     1       3.644  -5.215   0.000  0.00  0.00    +0.000 OA
ATOM     21  O   UNL     1       3.705  -4.050   0.000  0.00  0.00    +0.000 OA
ATOM     22  C   UNL     1       2.479  -5.154   0.000  0.00  0.00    +0.000 C 
ENDBRANCH  16  19
ENDBRANCH  11  13
BRANCH   3  23
ATOM     23  C   UNL     1       0.884   0.754   0.000  0.00  0.00    +0.000 C 
BRANCH  23  24
ATOM     24  C   UNL     1       0.077   0.926   0.000  0.00  0.00    +0.000 C 
ATOM     25  O   UNL     1      -0.475   0.313   0.000  0.00  0.00    +0.000 OA
ATOM     26  O   UNL     1      -0.178   1.710   0.000  0.00  0.00    +0.000 OA
ENDBRANCH  23  24
ENDBRANCH   3  23
TORSDOF 4
