REMARK  Name = 
REMARK  6 active torsions:
REMARK  status: ('A' for Active; 'I' for Inactive)
REMARK    1  A    between atoms: C_2  and  C_3
REMARK    2  A    between atoms: C_3  and  C_4
REMARK    3  A    between atoms: C_3  and  N_10
REMARK    4  A    between atoms: N_10  and  C_11
REMARK    5  A    between atoms: C_19  and  C_20
REMARK    6  A    between atoms: C_23  and  O_27
REMARK                            x       y       z     vdW  Elec       q    Type
REMARK                         _______ _______ _______ _____ _____    ______ ____
ROOT
ATOM      1  C   UNL     1       3.279   1.238   0.000  0.00  0.00    +0.000 A 
ATOM      2  C   UNL     1       3.993   0.825   0.000  0.00  0.00    +0.000 A 
ATOM      3  C   UNL     1       3.993   0.000   0.000  0.00  0.00    +0.000 A 
ATOM      4  N   UNL     1       3.279  -0.412   0.000  0.00  0.00    +0.000 NA
ATOM      5  C   UNL     1       2.564   0.000   0.000  0.00  0.00    +0.000 A 
ATOM      6  N   UNL     1       2.564   0.825   0.000  0.00  0.00    +0.000 N 
ATOM      7  N   UNL     1       1.780   1.080   0.000  0.00  0.00    +0.000 NA
ATOM      8  C   UNL     1       1.295   0.412   0.000  0.00  0.00    +0.000 A 
ATOM      9  C   UNL     1       1.780  -0.255   0.000  0.00  0.00    +0.000 A 
ATOM     10  C   UNL     1       0.470   0.412   0.000  0.00  0.00    +0.000 C 
ATOM     11  C   UNL     1       4.708  -0.412   0.000  0.00  0.00    +0.000 C 
ENDROOT
BRANCH   9  12
ATOM     12  C   UNL     1       1.525  -1.040   0.000  0.00  0.00    +0.000 A 
ATOM     13  C   UNL     1       2.077  -1.653   0.000  0.00  0.00    +0.000 A 
ATOM     14  C   UNL     1       1.822  -2.437   0.000  0.00  0.00    +0.000 A 
ATOM     15  C   UNL     1       1.015  -2.609   0.000  0.00  0.00    +0.000 A 
ATOM     16  C   UNL     1       0.463  -1.996   0.000  0.00  0.00    +0.000 A 
ATOM     17  C   UNL     1       0.718  -1.211   0.000  0.00  0.00    +0.000 A 
ATOM     18  C   UNL     1       0.166  -0.598   0.000  0.00  0.00    +0.000 C 
BRANCH  15  19
ATOM     19  O   UNL     1       0.760  -3.393   0.000  0.00  0.00    +0.000 OA
ATOM     20  C   UNL     1       1.312  -4.006   0.000  0.00  0.00    +0.000 C 
ENDBRANCH  15  19
ENDBRANCH   9  12
BRANCH   1  21
ATOM     21  N   UNL     1       3.279   2.062   0.000  0.00  0.00    +0.000 NA
BRANCH  21  22
ATOM     22  C   UNL     1       3.993   2.475   0.000  0.00  0.00    +0.000 C 
BRANCH  22  23
ATOM     23  C   UNL     1       3.993   3.300   0.000  0.00  0.00    +0.000 A 
ATOM     24  N   UNL     1       3.326   3.785   0.000  0.00  0.00    +0.000 NA
ATOM     25  C   UNL     1       3.581   4.569   0.000  0.00  0.00    +0.000 A 
ATOM     26  N   UNL     1       4.406   4.569   0.000  0.00  0.00    +0.000 NA
ATOM     27  O   UNL     1       4.661   3.785   0.000  0.00  0.00    +0.000 OA
ATOM     28  C   UNL     1       3.096   5.237   0.000  0.00  0.00    +0.000 C 
ENDBRANCH  22  23
BRANCH  22  30
ATOM     29  C   UNL     1       4.708   1.238   0.000  0.00  0.00    +0.000 C 
ATOM     30  C   UNL     1       4.708   2.062   0.000  0.00  0.00    +0.000 C 
ENDBRANCH  22  30
ENDBRANCH  21  22
ENDBRANCH   1  21
TORSDOF 6
