REMARK  Name = 
REMARK  4 active torsions:
REMARK  status: ('A' for Active; 'I' for Inactive)
REMARK    1  A    between atoms: CA_1  and  N_13
REMARK    2  A    between atoms: CA_5  and  C_10
REMARK    3  A    between atoms: C_14  and  C_21
REMARK    4  A    between atoms: C_20  and  C_23
REMARK                            x       y       z     vdW  Elec       q    Type
REMARK                         _______ _______ _______ _____ _____    ______ ____
ROOT
ATOM      1  N   UNL     1       0.119   0.743   0.000  0.00  0.00    +0.000 NA
ATOM      2  C   UNL     1      -0.595   0.331   0.000  0.00  0.00    +0.000 C 
ATOM      3  O   UNL     1      -0.595  -0.329   0.000  0.00  0.00    +0.000 OA
ENDROOT
BRANCH   1   4
ATOM      4  CA  UNL     1       0.834   0.331   0.000  0.00  0.00    +0.000 C 
ATOM      5  C   UNL     1       0.834  -0.494   0.000  0.00  0.00    +0.000 C 
ATOM      6  C   UNL     1       1.659   0.331   0.000  0.00  0.00    +0.000 C 
ATOM      7  N   UNL     1       1.659  -0.494   0.000  0.00  0.00    +0.000 N 
ATOM      8  CA  UNL     1       2.444  -0.749   0.000  0.00  0.00    +0.000 C 
ATOM      9  C   UNL     1       2.929  -0.082   0.000  0.00  0.00    +0.000 C 
ATOM     10  S   UNL     1       2.444   0.586   0.000  0.00  0.00    +0.000 S 
ATOM     11  C   UNL     1       3.647  -0.487   0.000  0.00  0.00    +0.000 C 
ATOM     12  C   UNL     1       3.647   0.323   0.000  0.00  0.00    +0.000 C 
ATOM     13  O   UNL     1       0.251  -1.078   0.000  0.00  0.00    +0.000 OA
BRANCH   8  14
ATOM     14  C   UNL     1       2.699  -1.534   0.000  0.00  0.00    +0.000 C 
ATOM     15  O   UNL     1       3.506  -1.705   0.000  0.00  0.00    +0.000 OA
ATOM     16  OXT UNL     1       2.147  -2.147   0.000  0.00  0.00    +0.000 OA
ENDBRANCH   8  14
ENDBRANCH   1   4
BRANCH   2  20
ATOM     17  O   UNL     1      -2.201   1.736   0.000  0.00  0.00    +0.000 OA
ATOM     18  N   UNL     1      -2.615   1.023   0.000  0.00  0.00    +0.000 NA
ATOM     19  C   UNL     1      -2.063   0.409   0.000  0.00  0.00    +0.000 A 
ATOM     20  C   UNL     1      -1.309   0.743   0.000  0.00  0.00    +0.000 A 
ATOM     21  C   UNL     1      -1.394   1.564   0.000  0.00  0.00    +0.000 A 
ATOM     22  C   UNL     1      -0.811   2.147   0.000  0.00  0.00    +0.000 C 
BRANCH  19  23
ATOM     23  C   UNL     1      -2.277  -0.388   0.000  0.00  0.00    +0.000 A 
ATOM     24  C   UNL     1      -3.064  -0.636   0.000  0.00  0.00    +0.000 A 
ATOM     25  C   UNL     1      -3.243  -1.441   0.000  0.00  0.00    +0.000 A 
ATOM     26  C   UNL     1      -2.635  -1.999   0.000  0.00  0.00    +0.000 A 
ATOM     27  C   UNL     1      -1.848  -1.751   0.000  0.00  0.00    +0.000 A 
ATOM     28  C   UNL     1      -1.669  -0.946   0.000  0.00  0.00    +0.000 A 
ATOM     29  F   UNL     1      -0.872  -0.732   0.000  0.00  0.00    +0.000 F 
ATOM     30 CL   UNL     1      -3.647  -0.052   0.000  0.00  0.00    +0.000 Cl
ENDBRANCH  19  23
ENDBRANCH   2  20
TORSDOF 4
