REMARK  Name = 
REMARK  5 active torsions:
REMARK  status: ('A' for Active; 'I' for Inactive)
REMARK    1  A    between atoms: C_1  and  C_2
REMARK    2  A    between atoms: C_2  and  C_3
REMARK    3  A    between atoms: C_3  and  C_4
REMARK    4  A    between atoms: C_4  and  C_5
REMARK    5  A    between atoms: C_5  and  C_6
REMARK                            x       y       z     vdW  Elec       q    Type
REMARK                         _______ _______ _______ _____ _____    ______ ____
ROOT
ATOM      1  C   UNL     1       5.856  -2.556   0.000  0.00  0.00    +0.000 C 
ATOM      2  O   UNL     1       5.856  -3.381   0.000  0.00  0.00    +0.000 OA
ENDROOT
BRANCH   1   3
ATOM      3  C   UNL     1       5.141  -2.143   0.000  0.00  0.00    +0.000 C 
ATOM      4  O   UNL     1       5.141  -1.318   0.000  0.00  0.00    +0.000 OA
BRANCH   3   5
ATOM      5  C   UNL     1       4.427  -2.556   0.000  0.00  0.00    +0.000 C 
ATOM      6  O   UNL     1       4.427  -3.381   0.000  0.00  0.00    +0.000 OA
BRANCH   5   7
ATOM      7  C   UNL     1       3.712  -2.143   0.000  0.00  0.00    +0.000 C 
ATOM      8  O   UNL     1       2.998  -2.556   0.000  0.00  0.00    +0.000 OA
ENDBRANCH   5   7
ENDBRANCH   3   5
ENDBRANCH   1   3
BRANCH   1   9
ATOM      9  C   UNL     1       6.570  -2.143   0.000  0.00  0.00    +0.000 C 
ATOM     10  O   UNL     1       6.570  -1.318   0.000  0.00  0.00    +0.000 OA
BRANCH   9  11
ATOM     11  C   UNL     1       7.285  -2.556   0.000  0.00  0.00    +0.000 C 
ATOM     12  O   UNL     1       7.285  -3.381   0.000  0.00  0.00    +0.000 OA
ATOM     13  O   UNL     1       7.999  -2.143   0.000  0.00  0.00    +0.000 OA
ENDBRANCH   9  11
ENDBRANCH   1   9
TORSDOF 5
REMARK  Name = 
REMARK  5 active torsions:
REMARK  status: ('A' for Active; 'I' for Inactive)
REMARK    1  A    between atoms: C_1  and  C_2
REMARK    2  A    between atoms: C_2  and  C_3
REMARK    3  A    between atoms: C_3  and  C_4
REMARK    4  A    between atoms: C_4  and  C_5
REMARK    5  A    between atoms: C_5  and  C_6
REMARK                            x       y       z     vdW  Elec       q    Type
REMARK                         _______ _______ _______ _____ _____    ______ ____
ROOT
ATOM      1  K   UNL     1       8.714  -1.731   0.000  0.00  0.00    +0.000 K 
ENDROOT
TORSDOF 0
