REMARK  Name = 
REMARK  2 active torsions:
REMARK  status: ('A' for Active; 'I' for Inactive)
REMARK    1  A    between atoms: C_13  and  C_15
REMARK    2  A    between atoms: C_14  and  C_15
REMARK                            x       y       z     vdW  Elec       q    Type
REMARK                         _______ _______ _______ _____ _____    ______ ____
ROOT
ATOM      1  C   UNL     1       0.715   2.062   0.000  0.00  0.00    +0.000 C 
ATOM      2  C   UNL     1       0.000   0.000   0.000  0.00  0.00    +0.000 C 
ATOM      3  C   UNL     1       0.715  -0.412   0.000  0.00  0.00    +0.000 C 
ATOM      4  C   UNL     1       0.000   0.825   0.000  0.00  0.00    +0.000 C 
ATOM      5  C   UNL     1       1.429   0.825   0.000  0.00  0.00    +0.000 C 
ATOM      6  C   UNL     1       1.429   0.000   0.000  0.00  0.00    +0.000 C 
ATOM      7  C   UNL     1       2.143  -0.412   0.000  0.00  0.00    +0.000 C 
ATOM      8  N   UNL     1       0.715   1.238   0.000  0.00  0.00    +0.000 NA
ENDROOT
BRANCH   7  12
ATOM      9  C   UNL     1       2.556  -2.507   0.000  0.00  0.00    +0.000 A 
ATOM     10  C   UNL     1       2.811  -1.722   0.000  0.00  0.00    +0.000 A 
ATOM     11  C   UNL     1       1.731  -2.507   0.000  0.00  0.00    +0.000 A 
ATOM     12  C   UNL     1       2.143  -1.238   0.000  0.00  0.00    +0.000 A 
ATOM     13  S   UNL     1       1.476  -1.722   0.000  0.00  0.00    +0.000 S 
ENDBRANCH   7  12
BRANCH   7  17
ATOM     14  C   UNL     1       3.751   0.992   0.000  0.00  0.00    +0.000 A 
ATOM     15  C   UNL     1       2.944   0.821   0.000  0.00  0.00    +0.000 A 
ATOM     16  C   UNL     1       4.164   0.278   0.000  0.00  0.00    +0.000 A 
ATOM     17  C   UNL     1       2.858   0.000   0.000  0.00  0.00    +0.000 A 
ATOM     18  S   UNL     1       3.612  -0.336   0.000  0.00  0.00    +0.000 S 
ENDBRANCH   7  17
TORSDOF 2
