REMARK  Name = 
REMARK  5 active torsions:
REMARK  status: ('A' for Active; 'I' for Inactive)
REMARK    1  A    between atoms: C_1  and  C_11
REMARK    2  A    between atoms: C_6  and  C_7
REMARK    3  A    between atoms: C_7  and  N_8
REMARK    4  A    between atoms: N_8  and  C_9
REMARK    5  A    between atoms: C_9  and  C_10
REMARK                            x       y       z     vdW  Elec       q    Type
REMARK                         _______ _______ _______ _____ _____    ______ ____
ROOT
ATOM      1  N   UNL     1      -0.377   0.870   0.000  0.00  0.00    +0.000 N 
ATOM      2  C   UNL     1      -0.380   1.692   0.000  0.00  0.00    +0.000 C 
ATOM      3  O   UNL     1       0.334   2.108   0.000  0.00  0.00    +0.000 OA
ENDROOT
BRANCH   2   4
ATOM      4  C   UNL     1      -1.095   2.103   0.000  0.00  0.00    +0.000 A 
ATOM      5  N   UNL     1      -1.097   2.929   0.000  0.00  0.00    +0.000 NA
ATOM      6  C   UNL     1      -1.884   3.181   0.000  0.00  0.00    +0.000 A 
ATOM      7  N   UNL     1      -2.367   2.511   0.000  0.00  0.00    +0.000 N 
ATOM      8  C   UNL     1      -1.879   1.845   0.000  0.00  0.00    +0.000 A 
ATOM      9  C   UNL     1      -3.193   2.508   0.000  0.00  0.00    +0.000 C 
ENDBRANCH   2   4
BRANCH   1  10
ATOM     10  C   UNL     1      -1.089   0.455   0.000  0.00  0.00    +0.000 C 
BRANCH  10  11
ATOM     11  C   UNL     1      -1.086  -0.368   0.000  0.00  0.00    +0.000 C 
ATOM     12  C   UNL     1      -1.748  -1.871   0.000  0.00  0.00    +0.000 C 
ATOM     13  N   UNL     1      -1.080  -2.357   0.000  0.00  0.00    +0.000 NA
ATOM     14  C   UNL     1      -0.412  -1.871   0.000  0.00  0.00    +0.000 C 
ATOM     15  C   UNL     1      -1.493  -1.086   0.000  0.00  0.00    +0.000 C 
ATOM     16  C   UNL     1      -0.669  -1.081   0.000  0.00  0.00    +0.000 C 
ATOM     17  C   UNL     1      -1.086  -3.181   0.000  0.00  0.00    +0.000 C 
ENDBRANCH  10  11
ENDBRANCH   1  10
BRANCH   1  18
ATOM     18  C   UNL     1       0.338   0.461   0.000  0.00  0.00    +0.000 C 
BRANCH  18  19
ATOM     19  C   UNL     1       1.050   0.875   0.000  0.00  0.00    +0.000 A 
ATOM     20  C   UNL     1       1.765   0.463   0.000  0.00  0.00    +0.000 A 
ATOM     21  C   UNL     1       2.476   0.877   0.000  0.00  0.00    +0.000 A 
ATOM     22  C   UNL     1       2.474   1.701   0.000  0.00  0.00    +0.000 A 
ATOM     23  C   UNL     1       1.754   2.111   0.000  0.00  0.00    +0.000 A 
ATOM     24  C   UNL     1       1.045   1.695   0.000  0.00  0.00    +0.000 A 
ATOM     25 CL   UNL     1       3.193   0.466   0.000  0.00  0.00    +0.000 Cl
ATOM     26  F   UNL     1       3.187   2.118   0.000  0.00  0.00    +0.000 F 
ENDBRANCH  18  19
ENDBRANCH   1  18
TORSDOF 5
