REMARK  Name = 
REMARK  5 active torsions:
REMARK  status: ('A' for Active; 'I' for Inactive)
REMARK    1  A    between atoms: C_1  and  C_2
REMARK    2  A    between atoms: C_1  and  N_3
REMARK    3  A    between atoms: C_1  and  C_6
REMARK    4  A    between atoms: N_3  and  C_4
REMARK    5  A    between atoms: C_5  and  C_8
REMARK                            x       y       z     vdW  Elec       q    Type
REMARK                         _______ _______ _______ _____ _____    ______ ____
ROOT
ATOM      1  C   UNL     1      -0.470  -0.097   0.000  0.00  0.00    +0.000 C 
ENDROOT
BRANCH   1   2
ATOM      2  C   UNL     1      -1.200  -0.509   0.000  0.00  0.00    +0.000 A 
ATOM      3  C   UNL     1      -1.200  -1.351   0.000  0.00  0.00    +0.000 A 
ATOM      4  C   UNL     1      -1.923  -0.097   0.000  0.00  0.00    +0.000 A 
ATOM      5 BR   UNL     1      -0.462  -1.755   0.000  0.00  0.00    +0.000 Br
ATOM      6 BR   UNL     1      -1.923   0.604   0.000  0.00  0.00    +0.000 Br
ATOM      7  C   UNL     1      -2.636  -1.351   0.000  0.00  0.00    +0.000 A 
ATOM      8  C   UNL     1      -1.923  -1.760   0.000  0.00  0.00    +0.000 A 
ATOM      9  C   UNL     1      -2.636  -0.509   0.000  0.00  0.00    +0.000 A 
ENDBRANCH   1   2
BRANCH   1  10
ATOM     10  C   UNL     1      -0.483   0.716   0.000  0.00  0.00    +0.000 C 
ATOM     11  O   UNL     1      -1.176   1.099   0.000  0.00  0.00    +0.000 OA
ATOM     12  N   UNL     1       0.181   1.116   0.000  0.00  0.00    +0.000 NA
ENDBRANCH   1  10
BRANCH   1  13
ATOM     13  N   UNL     1       0.359  -0.547   0.000  0.00  0.00    +0.000 NA
BRANCH  13  14
ATOM     14  C   UNL     1       1.114  -0.159   0.000  0.00  0.00    +0.000 A 
ATOM     15  C   UNL     1       1.832  -0.559   0.000  0.00  0.00    +0.000 A 
ATOM     16  C   UNL     1       2.550  -0.159   0.000  0.00  0.00    +0.000 A 
ATOM     17  C   UNL     1       1.114   0.666   0.000  0.00  0.00    +0.000 A 
ATOM     18  C   UNL     1       2.550   0.666   0.000  0.00  0.00    +0.000 A 
ATOM     19  C   UNL     1       1.832   1.087   0.000  0.00  0.00    +0.000 A 
ATOM     20  C   UNL     1       1.832   1.760   0.000  0.00  0.00    +0.000 C 
BRANCH  15  21
ATOM     21  C   UNL     1       1.832  -1.289   0.000  0.00  0.00    +0.000 C 
ATOM     22  O   UNL     1       2.636  -1.731   0.000  0.00  0.00    +0.000 OA
ATOM     23  C   UNL     1       1.159  -1.698   0.000  0.00  0.00    +0.000 C 
ENDBRANCH  15  21
ENDBRANCH  13  14
ENDBRANCH   1  13
TORSDOF 5
