REMARK  Name = 
REMARK  2 active torsions:
REMARK  status: ('A' for Active; 'I' for Inactive)
REMARK    1  A    between atoms: C_2  and  N_4
REMARK    2  A    between atoms: C_7  and  C_9
REMARK                            x       y       z     vdW  Elec       q    Type
REMARK                         _______ _______ _______ _____ _____    ______ ____
ROOT
ATOM      1  N   UNL     1       5.372   2.626   0.000  0.00  0.00    +0.000 N 
ATOM      2  C   UNL     1       4.960   3.340   0.000  0.00  0.00    +0.000 A 
ATOM      3  C   UNL     1       4.153   3.168   0.000  0.00  0.00    +0.000 A 
ATOM      4  C   UNL     1       4.067   2.348   0.000  0.00  0.00    +0.000 A 
ATOM      5  N   UNL     1       4.820   2.012   0.000  0.00  0.00    +0.000 NA
ATOM      6  C   UNL     1       3.601   3.781   0.000  0.00  0.00    +0.000 A 
ATOM      7  N   UNL     1       3.856   4.566   0.000  0.00  0.00    +0.000 NA
ATOM      8  C   UNL     1       4.663   4.738   0.000  0.00  0.00    +0.000 A 
ATOM      9  N   UNL     1       5.215   4.125   0.000  0.00  0.00    +0.000 NA
ATOM     10  N   UNL     1       2.794   3.610   0.000  0.00  0.00    +0.000 NA
ENDROOT
BRANCH   4  11
ATOM     11  C   UNL     1       3.352   1.935   0.000  0.00  0.00    +0.000 A 
ATOM     12  C   UNL     1       3.352   1.110   0.000  0.00  0.00    +0.000 A 
ATOM     13  C   UNL     1       2.638   0.698   0.000  0.00  0.00    +0.000 A 
ATOM     14  C   UNL     1       1.923   1.110   0.000  0.00  0.00    +0.000 A 
ATOM     15  C   UNL     1       1.923   1.935   0.000  0.00  0.00    +0.000 A 
ATOM     16  C   UNL     1       2.638   2.348   0.000  0.00  0.00    +0.000 A 
ATOM     17  N   UNL     1       1.139   2.190   0.000  0.00  0.00    +0.000 NA
ATOM     18  C   UNL     1       0.654   1.523   0.000  0.00  0.00    +0.000 A 
ATOM     19  O   UNL     1       1.139   0.856   0.000  0.00  0.00    +0.000 OA
ATOM     20  N   UNL     1      -0.171   1.523   0.000  0.00  0.00    +0.000 NA
ENDBRANCH   4  11
BRANCH   1  22
ATOM     21  C   UNL     1       6.678   3.207   0.000  0.00  0.00    +0.000 C 
ATOM     22  C   UNL     1       6.193   2.539   0.000  0.00  0.00    +0.000 C 
ATOM     23  C   UNL     1       6.529   1.786   0.000  0.00  0.00    +0.000 C 
ENDBRANCH   1  22
TORSDOF 2
