REMARK  Name = 
REMARK  7 active torsions:
REMARK  status: ('A' for Active; 'I' for Inactive)
REMARK    1  A    between atoms: O_2  and  C_3
REMARK    2  A    between atoms: C_9  and  N_10
REMARK    3  A    between atoms: N_10  and  S_11
REMARK    4  A    between atoms: C_15  and  C_16
REMARK    5  A    between atoms: C_16  and  O_17
REMARK    6  A    between atoms: O_17  and  C_18
REMARK    7  A    between atoms: C_21  and  C_24
REMARK                            x       y       z     vdW  Elec       q    Type
REMARK                         _______ _______ _______ _____ _____    ______ ____
ROOT
ATOM      1  C   UNL     1       1.429  -4.125   0.000  0.00  0.00    +0.000 C 
ATOM      2  O   UNL     1       2.143  -3.712   0.000  0.00  0.00    +0.000 OA
ATOM      3  N   UNL     1       1.429  -4.950   0.000  0.00  0.00    +0.000 N 
ATOM      4  C   UNL     1       2.143  -5.362   0.000  0.00  0.00    +0.000 C 
ATOM      5  C   UNL     1       2.143  -6.188   0.000  0.00  0.00    +0.000 C 
ATOM      6  C   UNL     1       1.429  -6.600   0.000  0.00  0.00    +0.000 C 
ATOM      7  C   UNL     1       0.715  -6.188   0.000  0.00  0.00    +0.000 C 
ATOM      8  C   UNL     1       0.715  -5.362   0.000  0.00  0.00    +0.000 C 
ENDROOT
BRANCH   1  10
ATOM      9  C   UNL     1       0.000  -4.125   0.000  0.00  0.00    +0.000 C 
ATOM     10  O   UNL     1       0.715  -3.712   0.000  0.00  0.00    +0.000 OA
ENDBRANCH   1  10
BRANCH   7  11
ATOM     11  N   UNL     1       0.000  -6.600   0.000  0.00  0.00    +0.000 NA
BRANCH  11  12
ATOM     12  S   UNL     1       0.000  -7.425   0.000  0.00  0.00    +0.000 S 
ATOM     13  C   UNL     1       0.000  -8.250   0.000  0.00  0.00    +0.000 C 
ATOM     14  O   UNL     1      -0.825  -7.425   0.000  0.00  0.00    +0.000 OA
ATOM     15  O   UNL     1       0.825  -7.425   0.000  0.00  0.00    +0.000 OA
ENDBRANCH  11  12
ENDBRANCH   7  11
BRANCH   8  16
ATOM     16  C   UNL     1       0.000  -4.950   0.000  0.00  0.00    +0.000 C 
BRANCH  16  17
ATOM     17  O   UNL     1      -0.715  -5.362   0.000  0.00  0.00    +0.000 OA
BRANCH  17  18
ATOM     18  C   UNL     1      -1.429  -4.950   0.000  0.00  0.00    +0.000 C 
ATOM     19  C   UNL     1      -2.143  -5.362   0.000  0.00  0.00    +0.000 C 
ATOM     20  C   UNL     1      -2.858  -4.950   0.000  0.00  0.00    +0.000 C 
ATOM     21  C   UNL     1      -2.858  -4.125   0.000  0.00  0.00    +0.000 C 
ATOM     22  C   UNL     1      -2.143  -3.712   0.000  0.00  0.00    +0.000 C 
ATOM     23  C   UNL     1      -1.429  -4.125   0.000  0.00  0.00    +0.000 C 
BRANCH  21  24
ATOM     24  C   UNL     1      -3.572  -3.712   0.000  0.00  0.00    +0.000 A 
ATOM     25  C   UNL     1      -4.287  -4.125   0.000  0.00  0.00    +0.000 A 
ATOM     26  C   UNL     1      -5.001  -3.712   0.000  0.00  0.00    +0.000 A 
ATOM     27  C   UNL     1      -5.001  -2.888   0.000  0.00  0.00    +0.000 A 
ATOM     28  C   UNL     1      -4.287  -2.475   0.000  0.00  0.00    +0.000 A 
ATOM     29  C   UNL     1      -3.572  -2.888   0.000  0.00  0.00    +0.000 A 
ENDBRANCH  21  24
ENDBRANCH  17  18
ENDBRANCH  16  17
ENDBRANCH   8  16
TORSDOF 7
