REMARK  Name = 
REMARK  7 active torsions:
REMARK  status: ('A' for Active; 'I' for Inactive)
REMARK    1  A    between atoms: O_2  and  C_3
REMARK    2  A    between atoms: C_3  and  C_4
REMARK    3  A    between atoms: C_3  and  C_17
REMARK    4  A    between atoms: C_3  and  C_23
REMARK    5  A    between atoms: C_4  and  O_5
REMARK    6  A    between atoms: C_4  and  C_14
REMARK    7  A    between atoms: O_5  and  C_6
REMARK                            x       y       z     vdW  Elec       q    Type
REMARK                         _______ _______ _______ _____ _____    ______ ____
ROOT
ATOM      1  C   UNL     1       0.714  -1.238   0.000  0.00  0.00    +0.000 C 
ENDROOT
BRANCH   1   2
ATOM      2  C   UNL     1       1.127  -0.523   0.000  0.00  0.00    +0.000 A 
ATOM      3  C   UNL     1       0.714   0.191   0.000  0.00  0.00    +0.000 A 
ATOM      4  C   UNL     1       1.127   0.906   0.000  0.00  0.00    +0.000 A 
ATOM      5  C   UNL     1       1.952   0.906   0.000  0.00  0.00    +0.000 A 
ATOM      6  C   UNL     1       2.364   0.191   0.000  0.00  0.00    +0.000 A 
ATOM      7  C   UNL     1       1.952  -0.523   0.000  0.00  0.00    +0.000 A 
ENDBRANCH   1   2
BRANCH   1   8
ATOM      8  C   UNL     1       0.000  -0.825   0.000  0.00  0.00    +0.000 A 
ATOM      9  C   UNL     1      -0.714  -1.238   0.000  0.00  0.00    +0.000 A 
ATOM     10  C   UNL     1      -1.429  -0.825   0.000  0.00  0.00    +0.000 A 
ATOM     11  C   UNL     1      -1.429   0.000   0.000  0.00  0.00    +0.000 A 
ATOM     12  C   UNL     1      -0.714   0.412   0.000  0.00  0.00    +0.000 A 
ATOM     13  C   UNL     1       0.000   0.000   0.000  0.00  0.00    +0.000 A 
ENDBRANCH   1   8
BRANCH   1  15
ATOM     14  C   UNL     1      -0.523  -1.952   0.000  0.00  0.00    +0.000 C 
ATOM     15  O   UNL     1       0.302  -1.952   0.000  0.00  0.00    +0.000 OA
ENDBRANCH   1  15
BRANCH   1  16
ATOM     16  C   UNL     1       1.429  -1.650   0.000  0.00  0.00    +0.000 C 
BRANCH  16  17
ATOM     17  C   UNL     1       1.429  -2.475   0.000  0.00  0.00    +0.000 C 
ATOM     18  O   UNL     1       2.143  -2.888   0.000  0.00  0.00    +0.000 OA
ATOM     19  O   UNL     1       0.714  -2.888   0.000  0.00  0.00    +0.000 OA
ENDBRANCH  16  17
BRANCH  16  20
ATOM     20  O   UNL     1       2.143  -1.238   0.000  0.00  0.00    +0.000 OA
BRANCH  20  21
ATOM     21  C   UNL     1       2.858  -1.650   0.000  0.00  0.00    +0.000 A 
ATOM     22  N   UNL     1       3.572  -1.238   0.000  0.00  0.00    +0.000 NA
ATOM     23  C   UNL     1       4.287  -1.650   0.000  0.00  0.00    +0.000 A 
ATOM     24  C   UNL     1       5.001  -1.238   0.000  0.00  0.00    +0.000 C 
ATOM     25  C   UNL     1       4.287  -2.475   0.000  0.00  0.00    +0.000 A 
ATOM     26  C   UNL     1       3.572  -2.888   0.000  0.00  0.00    +0.000 A 
ATOM     27  C   UNL     1       3.572  -3.712   0.000  0.00  0.00    +0.000 C 
ATOM     28  N   UNL     1       2.858  -2.475   0.000  0.00  0.00    +0.000 NA
ENDBRANCH  20  21
ENDBRANCH  16  20
ENDBRANCH   1  16
TORSDOF 7
