REMARK  Name = 
REMARK  1 active torsions:
REMARK  status: ('A' for Active; 'I' for Inactive)
REMARK    1  A    between atoms: C_3  and  C_4
REMARK                            x       y       z     vdW  Elec       q    Type
REMARK                         _______ _______ _______ _____ _____    ______ ____
ROOT
ATOM      1  C   UNL     1      -3.983  -2.277   0.000  0.00  0.00    +0.000 A 
ATOM      2  N   UNL     1      -3.498  -2.945   0.000  0.00  0.00    +0.000 NA
ATOM      3  C   UNL     1      -3.983  -3.612   0.000  0.00  0.00    +0.000 A 
ATOM      4  C   UNL     1      -4.767  -3.357   0.000  0.00  0.00    +0.000 A 
ATOM      5  N   UNL     1      -4.767  -2.532   0.000  0.00  0.00    +0.000 NA
ATOM      6  C   UNL     1      -5.380  -3.909   0.000  0.00  0.00    +0.000 A 
ATOM      7  C   UNL     1      -6.165  -3.654   0.000  0.00  0.00    +0.000 A 
ATOM      8  C   UNL     1      -6.778  -4.206   0.000  0.00  0.00    +0.000 A 
ATOM      9  C   UNL     1      -6.606  -5.013   0.000  0.00  0.00    +0.000 A 
ATOM     10  N   UNL     1      -5.822  -5.268   0.000  0.00  0.00    +0.000 NA
ATOM     11  C   UNL     1      -5.209  -4.716   0.000  0.00  0.00    +0.000 A 
ATOM     12  C   UNL     1      -4.424  -4.971   0.000  0.00  0.00    +0.000 A 
ATOM     13  C   UNL     1      -3.811  -4.419   0.000  0.00  0.00    +0.000 A 
ATOM     14  C   UNL     1      -3.026  -4.674   0.000  0.00  0.00    +0.000 A 
ATOM     15  C   UNL     1      -2.855  -5.481   0.000  0.00  0.00    +0.000 A 
ATOM     16  C   UNL     1      -3.468  -6.033   0.000  0.00  0.00    +0.000 A 
ATOM     17  N   UNL     1      -4.253  -5.778   0.000  0.00  0.00    +0.000 NA
ENDROOT
BRANCH   1  20
ATOM     18  C   UNL     1      -5.038  -0.825   0.000  0.00  0.00    +0.000 C 
ATOM     19  C   UNL     1      -4.213  -0.825   0.000  0.00  0.00    +0.000 A 
ATOM     20  C   UNL     1      -3.728  -1.492   0.000  0.00  0.00    +0.000 A 
ATOM     21  C   UNL     1      -2.943  -1.238   0.000  0.00  0.00    +0.000 A 
ATOM     22  C   UNL     1      -2.943  -0.412   0.000  0.00  0.00    +0.000 A 
ATOM     23  N   UNL     1      -3.728  -0.158   0.000  0.00  0.00    +0.000 NA
ATOM     24  C   UNL     1      -2.229   0.000   0.000  0.00  0.00    +0.000 A 
ATOM     25  C   UNL     1      -1.514  -0.412   0.000  0.00  0.00    +0.000 A 
ATOM     26  C   UNL     1      -1.514  -1.238   0.000  0.00  0.00    +0.000 A 
ATOM     27  F   UNL     1      -0.800  -1.650   0.000  0.00  0.00    +0.000 F 
ATOM     28  C   UNL     1      -2.229  -1.650   0.000  0.00  0.00    +0.000 A 
ENDBRANCH   1  20
TORSDOF 1
