REMARK  Name = 
REMARK  7 active torsions:
REMARK  status: ('A' for Active; 'I' for Inactive)
REMARK    1  A    between atoms: N_7  and  S_29
REMARK    2  A    between atoms: C_8  and  C_17
REMARK    3  A    between atoms: C_9  and  C_11
REMARK    4  A    between atoms: C_23  and  C_24
REMARK    5  A    between atoms: S_29  and  C_30
REMARK    6  A    between atoms: C_35  and  O_40
REMARK    7  A    between atoms: C_36  and  O_38
REMARK                            x       y       z     vdW  Elec       q    Type
REMARK                         _______ _______ _______ _____ _____    ______ ____
ROOT
ATOM      1  C   UNL     1      -2.708   1.844   0.000  0.00  0.00    +0.000 A 
ATOM      2  C   UNL     1      -2.709   1.017   0.000  0.00  0.00    +0.000 A 
ATOM      3  C   UNL     1      -1.994   0.604   0.000  0.00  0.00    +0.000 A 
ATOM      4  C   UNL     1      -1.996   2.257   0.000  0.00  0.00    +0.000 A 
ATOM      5  C   UNL     1      -1.281   1.848   0.000  0.00  0.00    +0.000 A 
ATOM      6  C   UNL     1      -1.276   1.017   0.000  0.00  0.00    +0.000 A 
ATOM      7  N   UNL     1      -0.484   0.765   0.000  0.00  0.00    +0.000 N 
ATOM      8  C   UNL     1       0.000   1.440   0.000  0.00  0.00    +0.000 C 
ATOM      9  C   UNL     1      -0.492   2.109   0.000  0.00  0.00    +0.000 C 
ATOM     10  O   UNL     1      -0.911   2.828   0.000  0.00  0.00    +0.000 OA
ATOM     11 CL   UNL     1      -3.423   2.257   0.000  0.00  0.00    +0.000 Cl
ENDROOT
BRANCH   9  12
ATOM     12  C   UNL     1       0.218   2.528   0.000  0.00  0.00    +0.000 A 
ATOM     13  C   UNL     1       0.935   2.119   0.000  0.00  0.00    +0.000 A 
ATOM     14  C   UNL     1       1.645   2.536   0.000  0.00  0.00    +0.000 A 
ATOM     15  C   UNL     1       1.638   3.361   0.000  0.00  0.00    +0.000 A 
ATOM     16  C   UNL     1       0.916   3.767   0.000  0.00  0.00    +0.000 A 
ATOM     17  C   UNL     1       0.209   3.347   0.000  0.00  0.00    +0.000 A 
ATOM     18 CL   UNL     1      -0.510   3.751   0.000  0.00  0.00    +0.000 Cl
ENDBRANCH   9  12
BRANCH   8  19
ATOM     19  C   UNL     1       0.825   1.445   0.000  0.00  0.00    +0.000 C 
ATOM     20  N   UNL     1       1.242   0.733   0.000  0.00  0.00    +0.000 N 
ATOM     21  O   UNL     1       1.534   1.865   0.000  0.00  0.00    +0.000 OA
ATOM     22  C   UNL     1       0.915  -0.021   0.000  0.00  0.00    +0.000 C 
ATOM     23  C   UNL     1       1.531  -0.569   0.000  0.00  0.00    +0.000 C 
ATOM     24  C   UNL     1       2.243  -0.152   0.000  0.00  0.00    +0.000 C 
ATOM     25  C   UNL     1       2.067   0.653   0.000  0.00  0.00    +0.000 C 
BRANCH  25  26
ATOM     26  C   UNL     1       2.615   1.270   0.000  0.00  0.00    +0.000 C 
ATOM     27  N   UNL     1       3.423   1.105   0.000  0.00  0.00    +0.000 NA
ATOM     28  O   UNL     1       2.354   2.053   0.000  0.00  0.00    +0.000 OA
ENDBRANCH  25  26
ENDBRANCH   8  19
BRANCH   7  29
ATOM     29  S   UNL     1      -0.490  -0.059   0.000  0.00  0.00    +0.000 S 
ATOM     30  O   UNL     1      -1.315  -0.054   0.000  0.00  0.00    +0.000 OA
ATOM     31  O   UNL     1       0.335  -0.064   0.000  0.00  0.00    +0.000 OA
BRANCH  29  32
ATOM     32  C   UNL     1      -0.494  -0.884   0.000  0.00  0.00    +0.000 A 
ATOM     33  C   UNL     1      -1.213  -1.291   0.000  0.00  0.00    +0.000 A 
ATOM     34  C   UNL     1      -1.218  -2.115   0.000  0.00  0.00    +0.000 A 
ATOM     35  C   UNL     1      -0.505  -2.532   0.000  0.00  0.00    +0.000 A 
ATOM     36  C   UNL     1       0.214  -2.119   0.000  0.00  0.00    +0.000 A 
ATOM     37  C   UNL     1       0.215  -1.296   0.000  0.00  0.00    +0.000 A 
BRANCH  36  38
ATOM     38  O   UNL     1       0.928  -2.533   0.000  0.00  0.00    +0.000 OA
ATOM     39  C   UNL     1       0.926  -3.358   0.000  0.00  0.00    +0.000 C 
ENDBRANCH  36  38
BRANCH  35  40
ATOM     40  O   UNL     1      -0.508  -3.357   0.000  0.00  0.00    +0.000 OA
ATOM     41  C   UNL     1      -1.224  -3.767   0.000  0.00  0.00    +0.000 C 
ENDBRANCH  35  40
ENDBRANCH  29  32
ENDBRANCH   7  29
TORSDOF 7
