REMARK  Name = 
REMARK  10 active torsions:
REMARK  status: ('A' for Active; 'I' for Inactive)
REMARK    1  A    between atoms: P_1  and  O_6
REMARK    2  A    between atoms: P_1  and  O_7
REMARK    3  A    between atoms: P_2  and  O_7
REMARK    4  A    between atoms: P_2  and  O_11
REMARK    5  A    between atoms: O_6  and  C_23
REMARK    6  A    between atoms: O_11  and  C_28
REMARK    7  A    between atoms: N_16  and  C_22
REMARK    8  A    between atoms: C_21  and  C_23
REMARK    9  A    between atoms: C_28  and  C_29
REMARK   10  A    between atoms: C_29  and  C_30
REMARK                            x       y       z     vdW  Elec       q    Type
REMARK                         _______ _______ _______ _____ _____    ______ ____
ROOT
ATOM      1  O   UNL     1      -2.076  -0.132   0.000  0.00  0.00    +0.000 OA
ATOM      2  O   UNL     1      -3.641  -1.584   0.000  0.00  0.00    +0.000 OA
ATOM      3  O   UNL     1      -4.196   0.123   0.000  0.00  0.00    +0.000 OA
ATOM      4  C   UNL     1      -3.156  -0.916   0.000  0.00  0.00    +0.000 C 
ATOM      5  C   UNL     1      -3.411  -0.132   0.000  0.00  0.00    +0.000 C 
ATOM      6  C   UNL     1      -2.331  -0.916   0.000  0.00  0.00    +0.000 C 
ATOM      7  C   UNL     1      -2.744   0.353   0.000  0.00  0.00    +0.000 C 
ENDROOT
BRANCH   7   9
ATOM      8  O   UNL     1      -4.173   1.178   0.000  0.00  0.00    +0.000 OA
ATOM      9  N   UNL     1      -2.744   1.178   0.000  0.00  0.00    +0.000 N 
ATOM     10  N   UNL     1      -3.458   2.416   0.000  0.00  0.00    +0.000 NA
ATOM     11  N   UNL     1      -2.744   3.653   0.000  0.00  0.00    +0.000 N 
ATOM     12  C   UNL     1      -2.029   1.591   0.000  0.00  0.00    +0.000 A 
ATOM     13  C   UNL     1      -3.458   1.591   0.000  0.00  0.00    +0.000 A 
ATOM     14  C   UNL     1      -2.029   2.416   0.000  0.00  0.00    +0.000 A 
ATOM     15  C   UNL     1      -2.744   2.828   0.000  0.00  0.00    +0.000 A 
ATOM     16  H   UNL     1      -2.301   3.909   0.000  0.00  0.00    +0.000 HD
ATOM     17  H   UNL     1      -3.187   3.909   0.000  0.00  0.00    +0.000 HD
ENDBRANCH   7   9
BRANCH   6  18
ATOM     18  C   UNL     1      -1.846  -1.584   0.000  0.00  0.00    +0.000 C 
BRANCH  18  19
ATOM     19  O   UNL     1      -1.026  -1.498   0.000  0.00  0.00    +0.000 OA
BRANCH  19  20
ATOM     20  P   UNL     1      -0.541  -2.165   0.000  0.00  0.00    +0.000 P 
ATOM     21  O   UNL     1       0.127  -1.680   0.000  0.00  0.00    +0.000 OA
ATOM     22  O   UNL     1      -1.208  -2.650   0.000  0.00  0.00    +0.000 OA
BRANCH  20  23
ATOM     23  O   UNL     1      -0.056  -2.833   0.000  0.00  0.00    +0.000 OA
BRANCH  23  24
ATOM     24  P   UNL     1       0.764  -2.746   0.000  0.00  0.00    +0.000 P 
ATOM     25  O   UNL     1       0.851  -3.567   0.000  0.00  0.00    +0.000 OA
ATOM     26  O   UNL     1       0.678  -1.926   0.000  0.00  0.00    +0.000 OA
BRANCH  24  27
ATOM     27  O   UNL     1       1.585  -2.660   0.000  0.00  0.00    +0.000 OA
BRANCH  27  28
ATOM     28  C   UNL     1       2.070  -3.328   0.000  0.00  0.00    +0.000 C 
BRANCH  28  30
ATOM     29  O   UNL     1       3.226  -2.488   0.000  0.00  0.00    +0.000 OA
ATOM     30  C   UNL     1       2.890  -3.241   0.000  0.00  0.00    +0.000 C 
BRANCH  30  32
ATOM     31  O   UNL     1       4.196  -3.822   0.000  0.00  0.00    +0.000 OA
ATOM     32  C   UNL     1       3.375  -3.909   0.000  0.00  0.00    +0.000 C 
ENDBRANCH  30  32
ENDBRANCH  28  30
ENDBRANCH  27  28
ENDBRANCH  24  27
ENDBRANCH  23  24
ENDBRANCH  20  23
ENDBRANCH  19  20
ENDBRANCH  18  19
ENDBRANCH   6  18
TORSDOF 10
