REMARK  Name = 
REMARK  2 active torsions:
REMARK  status: ('A' for Active; 'I' for Inactive)
REMARK    1  A    between atoms: C_8  and  N_11
REMARK    2  A    between atoms: C_12  and  C_17
REMARK                            x       y       z     vdW  Elec       q    Type
REMARK                         _______ _______ _______ _____ _____    ______ ____
ROOT
ATOM      1  C   UNL     1       0.000   0.000   0.000  0.00  0.00    +0.000 A 
ATOM      2  C   UNL     1      -0.715  -0.412   0.000  0.00  0.00    +0.000 A 
ATOM      3  C   UNL     1      -0.715  -1.238   0.000  0.00  0.00    +0.000 A 
ATOM      4  C   UNL     1       0.000  -1.650   0.000  0.00  0.00    +0.000 A 
ATOM      5  C   UNL     1       0.715  -1.238   0.000  0.00  0.00    +0.000 A 
ATOM      6  C   UNL     1       0.715  -0.412   0.000  0.00  0.00    +0.000 A 
ATOM      7  C   UNL     1       1.429   0.000   0.000  0.00  0.00    +0.000 C 
ATOM      8  C   UNL     1       2.143  -0.412   0.000  0.00  0.00    +0.000 C 
ATOM      9  C   UNL     1       2.143  -1.238   0.000  0.00  0.00    +0.000 C 
ATOM     10  C   UNL     1       1.429  -1.650   0.000  0.00  0.00    +0.000 C 
ATOM     11  F   UNL     1       0.000  -2.475   0.000  0.00  0.00    +0.000 F 
ATOM     12  F   UNL     1      -1.429   0.000   0.000  0.00  0.00    +0.000 F 
ENDROOT
BRANCH   8  13
ATOM     13  N   UNL     1       2.858   0.000   0.000  0.00  0.00    +0.000 N 
ATOM     14  C   UNL     1       2.944   0.821   0.000  0.00  0.00    +0.000 A 
ATOM     15  C   UNL     1       3.751   0.992   0.000  0.00  0.00    +0.000 A 
ATOM     16  N   UNL     1       4.164   0.278   0.000  0.00  0.00    +0.000 NA
ATOM     17  C   UNL     1       3.612  -0.336   0.000  0.00  0.00    +0.000 A 
ATOM     18  S   UNL     1       3.783  -1.143   0.000  0.00  0.00    +0.000 S 
BRANCH  14  19
ATOM     19  C   UNL     1       2.331   1.373   0.000  0.00  0.00    +0.000 C 
ATOM     20  N   UNL     1       1.546   1.118   0.000  0.00  0.00    +0.000 NA
ENDBRANCH  14  19
ENDBRANCH   8  13
TORSDOF 2
