REMARK  Name = 
REMARK  12 active torsions:
REMARK  status: ('A' for Active; 'I' for Inactive)
REMARK    1  A    between atoms: N_1  and  O_9
REMARK    2  A    between atoms: N_2  and  O_8
REMARK    3  A    between atoms: C_3  and  C_10
REMARK    4  A    between atoms: C_3  and  C_11
REMARK    5  A    between atoms: C_3  and  C_12
REMARK    6  A    between atoms: C_3  and  C_13
REMARK    7  A    between atoms: O_8  and  C_11
REMARK    8  A    between atoms: O_9  and  C_10
REMARK    9  A    between atoms: C_12  and  O_18
REMARK   10  A    between atoms: C_13  and  O_14
REMARK   11  A    between atoms: O_14  and  N_15
REMARK   12  A    between atoms: O_18  and  N_19
REMARK                            x       y       z     vdW  Elec       q    Type
REMARK                         _______ _______ _______ _____ _____    ______ ____
ROOT
ATOM      1  C   UNL     1       0.000   0.761   0.000  0.00  0.00    +0.000 C 
ENDROOT
BRANCH   1   2
ATOM      2  C   UNL     1      -0.714   1.174   0.000  0.00  0.00    +0.000 C 
BRANCH   2   3
ATOM      3  O   UNL     1      -1.429   0.761   0.000  0.00  0.00    +0.000 OA
BRANCH   3   4
ATOM      4  N   UNL     1      -2.143   1.174   0.000  0.00  0.00    +0.000 N 
ATOM      5  O   UNL     1      -2.858   0.761   0.000  0.00  0.00    +0.000 OA
ATOM      6  O   UNL     1      -2.143   1.999   0.000  0.00  0.00    +0.000 OA
ENDBRANCH   3   4
ENDBRANCH   2   3
ENDBRANCH   1   2
BRANCH   1   7
ATOM      7  C   UNL     1       0.583   0.178   0.000  0.00  0.00    +0.000 C 
BRANCH   7   8
ATOM      8  O   UNL     1       0.370  -0.619   0.000  0.00  0.00    +0.000 OA
BRANCH   8   9
ATOM      9  N   UNL     1       0.953  -1.202   0.000  0.00  0.00    +0.000 N 
ATOM     10  O   UNL     1       0.740  -1.999   0.000  0.00  0.00    +0.000 OA
ATOM     11  O   UNL     1       1.750  -0.989   0.000  0.00  0.00    +0.000 OA
ENDBRANCH   8   9
ENDBRANCH   7   8
ENDBRANCH   1   7
BRANCH   1  12
ATOM     12  C   UNL     1      -0.583   0.178   0.000  0.00  0.00    +0.000 C 
BRANCH  12  13
ATOM     13  O   UNL     1      -0.370  -0.619   0.000  0.00  0.00    +0.000 OA
BRANCH  13  14
ATOM     14  N   UNL     1      -0.953  -1.202   0.000  0.00  0.00    +0.000 N 
ATOM     15  O   UNL     1      -0.740  -1.999   0.000  0.00  0.00    +0.000 OA
ATOM     16  O   UNL     1      -1.750  -0.989   0.000  0.00  0.00    +0.000 OA
ENDBRANCH  13  14
ENDBRANCH  12  13
ENDBRANCH   1  12
BRANCH   1  17
ATOM     17  C   UNL     1       0.714   1.174   0.000  0.00  0.00    +0.000 C 
BRANCH  17  18
ATOM     18  O   UNL     1       1.429   0.761   0.000  0.00  0.00    +0.000 OA
BRANCH  18  19
ATOM     19  N   UNL     1       2.143   1.174   0.000  0.00  0.00    +0.000 N 
ATOM     20  O   UNL     1       2.858   0.761   0.000  0.00  0.00    +0.000 OA
ATOM     21  O   UNL     1       2.143   1.999   0.000  0.00  0.00    +0.000 OA
ENDBRANCH  18  19
ENDBRANCH  17  18
ENDBRANCH   1  17
TORSDOF 12
