REMARK  Name = 
REMARK  5 active torsions:
REMARK  status: ('A' for Active; 'I' for Inactive)
REMARK    1  A    between atoms: O_3  and  C_18
REMARK    2  A    between atoms: N_4  and  C_13
REMARK    3  A    between atoms: N_6  and  C_8
REMARK    4  A    between atoms: N_7  and  C_22
REMARK    5  A    between atoms: C_16  and  C_17
REMARK                            x       y       z     vdW  Elec       q    Type
REMARK                         _______ _______ _______ _____ _____    ______ ____
ROOT
ATOM      1  O   UNL     1       0.893   1.108   0.000  0.00  0.00    +0.000 OA
ATOM      2  N   UNL     1       0.575  -0.285   0.000  0.00  0.00    +0.000 N 
ATOM      3  C   UNL     1       0.332   0.503   0.000  0.00  0.00    +0.000 C 
ATOM      4  H   UNL     1       0.227  -0.660   0.000  0.00  0.00    +0.000 HD
ENDROOT
BRANCH   2   7
ATOM      5  N   UNL     1       2.306  -1.631   0.000  0.00  0.00    +0.000 NA
ATOM      6  N   UNL     1       2.719   0.176   0.000  0.00  0.00    +0.000 NA
ATOM      7  C   UNL     1       1.379  -0.469   0.000  0.00  0.00    +0.000 C 
ATOM      8  C   UNL     1       1.563  -1.273   0.000  0.00  0.00    +0.000 C 
ATOM      9  C   UNL     1       1.894   0.176   0.000  0.00  0.00    +0.000 C 
ATOM     10  C   UNL     1       3.049  -1.273   0.000  0.00  0.00    +0.000 C 
ATOM     11  C   UNL     1       3.233  -0.469   0.000  0.00  0.00    +0.000 C 
ATOM     12  C   UNL     1       3.077   0.920   0.000  0.00  0.00    +0.000 C 
BRANCH   5  13
ATOM     13  C   UNL     1       2.306  -2.456   0.000  0.00  0.00    +0.000 C 
ATOM     14  C   UNL     1       3.021  -2.868   0.000  0.00  0.00    +0.000 C 
ENDBRANCH   5  13
ENDBRANCH   2   7
BRANCH   3  16
ATOM     15 BR   UNL     1      -2.399  -0.339   0.000  0.00  0.00    +0.000 Br
ATOM     16  C   UNL     1      -0.472   0.687   0.000  0.00  0.00    +0.000 A 
ATOM     17  C   UNL     1      -0.716   1.475   0.000  0.00  0.00    +0.000 A 
ATOM     18  C   UNL     1      -1.033   0.082   0.000  0.00  0.00    +0.000 A 
ATOM     19  C   UNL     1      -1.520   1.659   0.000  0.00  0.00    +0.000 A 
ATOM     20  C   UNL     1      -1.838   0.266   0.000  0.00  0.00    +0.000 A 
ATOM     21  C   UNL     1      -2.081   1.054   0.000  0.00  0.00    +0.000 A 
BRANCH  21  22
ATOM     22  N   UNL     1      -2.885   1.238   0.000  0.00  0.00    +0.000 N 
ATOM     23  C   UNL     1      -3.128   2.026   0.000  0.00  0.00    +0.000 C 
ATOM     24  H   UNL     1      -3.233   0.863   0.000  0.00  0.00    +0.000 HD
ENDBRANCH  21  22
BRANCH  17  25
ATOM     25  O   UNL     1      -0.154   2.080   0.000  0.00  0.00    +0.000 OA
ATOM     26  C   UNL     1      -0.398   2.868   0.000  0.00  0.00    +0.000 C 
ENDBRANCH  17  25
ENDBRANCH   3  16
TORSDOF 5
