REMARK  Name = 
REMARK  12 active torsions:
REMARK  status: ('A' for Active; 'I' for Inactive)
REMARK    1  A    between atoms: C_4  and  C_50
REMARK    2  A    between atoms: C_8  and  C_39
REMARK    3  A    between atoms: C_12  and  C_28
REMARK    4  A    between atoms: C_16  and  C_17
REMARK    5  A    between atoms: N_18  and  C_24
REMARK    6  A    between atoms: N_21  and  C_22
REMARK    7  A    between atoms: N_29  and  C_35
REMARK    8  A    between atoms: N_32  and  C_33
REMARK    9  A    between atoms: N_40  and  C_46
REMARK   10  A    between atoms: N_43  and  C_44
REMARK   11  A    between atoms: N_51  and  C_57
REMARK   12  A    between atoms: N_54  and  C_55
REMARK                            x       y       z     vdW  Elec       q    Type
REMARK                         _______ _______ _______ _____ _____    ______ ____
ROOT
ATOM      1  C   UNL     1      -2.392  -1.596   0.000  0.00  0.00    +0.000 C 
ATOM      2  N   UNL     1      -1.740  -1.107   0.000  0.00  0.00    +0.000 NA
ATOM      3  C   UNL     1      -1.068  -1.571   0.000  0.00  0.00    +0.000 C 
ATOM      4  C   UNL     1      -0.295  -1.316   0.000  0.00  0.00    +0.000 C 
ATOM      5  C   UNL     1      -0.052  -0.528   0.000  0.00  0.00    +0.000 A 
ATOM      6  N   UNL     1      -0.541   0.123   0.000  0.00  0.00    +0.000 NA
ATOM      7  C   UNL     1      -0.077   0.795   0.000  0.00  0.00    +0.000 A 
ATOM      8  C   UNL     1      -0.332   1.569   0.000  0.00  0.00    +0.000 C 
ATOM      9  C   UNL     1      -1.120   1.812   0.000  0.00  0.00    +0.000 C 
ATOM     10  N   UNL     1      -1.771   1.322   0.000  0.00  0.00    +0.000 NA
ATOM     11  C   UNL     1      -2.444   1.787   0.000  0.00  0.00    +0.000 C 
ATOM     12  C   UNL     1      -3.217   1.532   0.000  0.00  0.00    +0.000 C 
ATOM     13  C   UNL     1      -3.460   0.744   0.000  0.00  0.00    +0.000 A 
ATOM     14  N   UNL     1      -2.970   0.092   0.000  0.00  0.00    +0.000 NA
ATOM     15  C   UNL     1      -3.435  -0.580   0.000  0.00  0.00    +0.000 A 
ATOM     16  C   UNL     1      -3.180  -1.353   0.000  0.00  0.00    +0.000 C 
ATOM     17  C   UNL     1      -4.229  -0.337   0.000  0.00  0.00    +0.000 A 
ATOM     18  C   UNL     1      -4.229   0.484   0.000  0.00  0.00    +0.000 A 
ATOM     19  C   UNL     1      -2.199   2.585   0.000  0.00  0.00    +0.000 C 
ATOM     20  C   UNL     1      -1.378   2.585   0.000  0.00  0.00    +0.000 C 
ATOM     21  C   UNL     1       0.716   0.551   0.000  0.00  0.00    +0.000 A 
ATOM     22  C   UNL     1       0.716  -0.270   0.000  0.00  0.00    +0.000 A 
ATOM     23  C   UNL     1      -1.311  -2.360   0.000  0.00  0.00    +0.000 C 
ATOM     24  C   UNL     1      -2.132  -2.360   0.000  0.00  0.00    +0.000 C 
ENDROOT
BRANCH  16  25
ATOM     25  C   UNL     1      -3.884  -1.760   0.000  0.00  0.00    +0.000 A 
ATOM     26  N   UNL     1      -3.955  -2.600   0.000  0.00  0.00    +0.000 N 
ATOM     27  C   UNL     1      -4.777  -2.793   0.000  0.00  0.00    +0.000 A 
ATOM     28  C   UNL     1      -5.213  -2.071   0.000  0.00  0.00    +0.000 A 
ATOM     29  N   UNL     1      -4.662  -1.433   0.000  0.00  0.00    +0.000 N 
BRANCH  26  30
ATOM     30  C   UNL     1      -3.346  -3.184   0.000  0.00  0.00    +0.000 C 
ATOM     31  C   UNL     1      -3.547  -4.004   0.000  0.00  0.00    +0.000 C 
ENDBRANCH  26  30
BRANCH  29  32
ATOM     32  C   UNL     1      -4.898  -0.622   0.000  0.00  0.00    +0.000 C 
ATOM     33  C   UNL     1      -5.718  -0.421   0.000  0.00  0.00    +0.000 C 
ENDBRANCH  29  32
ENDBRANCH  16  25
BRANCH   4  34
ATOM     34  C   UNL     1       0.116  -2.022   0.000  0.00  0.00    +0.000 A 
ATOM     35  N   UNL     1       0.912  -1.742   0.000  0.00  0.00    +0.000 N 
ATOM     36  C   UNL     1       1.424  -2.413   0.000  0.00  0.00    +0.000 A 
ATOM     37  C   UNL     1       0.944  -3.107   0.000  0.00  0.00    +0.000 A 
ATOM     38  N   UNL     1       0.136  -2.865   0.000  0.00  0.00    +0.000 N 
BRANCH  38  39
ATOM     39  C   UNL     1      -0.507  -3.413   0.000  0.00  0.00    +0.000 C 
ATOM     40  C   UNL     1      -0.354  -4.243   0.000  0.00  0.00    +0.000 C 
ENDBRANCH  38  39
BRANCH  35  41
ATOM     41  C   UNL     1       1.195  -0.947   0.000  0.00  0.00    +0.000 C 
ATOM     42  C   UNL     1       2.025  -0.795   0.000  0.00  0.00    +0.000 C 
ENDBRANCH  35  41
ENDBRANCH   4  34
BRANCH   8  43
ATOM     43  C   UNL     1       0.374   1.979   0.000  0.00  0.00    +0.000 A 
ATOM     44  N   UNL     1       1.125   1.595   0.000  0.00  0.00    +0.000 N 
ATOM     45  C   UNL     1       1.723   2.190   0.000  0.00  0.00    +0.000 A 
ATOM     46  C   UNL     1       1.342   2.942   0.000  0.00  0.00    +0.000 A 
ATOM     47  N   UNL     1       0.508   2.812   0.000  0.00  0.00    +0.000 N 
BRANCH  47  48
ATOM     48  C   UNL     1      -0.056   3.441   0.000  0.00  0.00    +0.000 C 
ATOM     49  C   UNL     1       0.207   4.243   0.000  0.00  0.00    +0.000 C 
ENDBRANCH  47  48
BRANCH  44  50
ATOM     50  C   UNL     1       1.299   0.769   0.000  0.00  0.00    +0.000 C 
ATOM     51  C   UNL     1       2.101   0.507   0.000  0.00  0.00    +0.000 C 
ENDBRANCH  44  50
ENDBRANCH   8  43
BRANCH  12  52
ATOM     52  C   UNL     1      -3.623   2.236   0.000  0.00  0.00    +0.000 A 
ATOM     53  N   UNL     1      -3.280   3.007   0.000  0.00  0.00    +0.000 N 
ATOM     54  C   UNL     1      -3.906   3.571   0.000  0.00  0.00    +0.000 A 
ATOM     55  C   UNL     1      -4.637   3.150   0.000  0.00  0.00    +0.000 A 
ATOM     56  N   UNL     1      -4.462   2.325   0.000  0.00  0.00    +0.000 N 
BRANCH  56  57
ATOM     57  C   UNL     1      -5.059   1.728   0.000  0.00  0.00    +0.000 C 
ATOM     58  C   UNL     1      -5.874   1.946   0.000  0.00  0.00    +0.000 C 
ENDBRANCH  56  57
BRANCH  53  59
ATOM     59  C   UNL     1      -2.464   3.225   0.000  0.00  0.00    +0.000 C 
ATOM     60  C   UNL     1      -2.246   4.040   0.000  0.00  0.00    +0.000 C 
ENDBRANCH  53  59
ENDBRANCH  12  52
TORSDOF 12
REMARK  Name = 
REMARK  12 active torsions:
REMARK  status: ('A' for Active; 'I' for Inactive)
REMARK    1  A    between atoms: C_4  and  C_50
REMARK    2  A    between atoms: C_8  and  C_39
REMARK    3  A    between atoms: C_12  and  C_28
REMARK    4  A    between atoms: C_16  and  C_17
REMARK    5  A    between atoms: N_18  and  C_24
REMARK    6  A    between atoms: N_21  and  C_22
REMARK    7  A    between atoms: N_29  and  C_35
REMARK    8  A    between atoms: N_32  and  C_33
REMARK    9  A    between atoms: N_40  and  C_46
REMARK   10  A    between atoms: N_43  and  C_44
REMARK   11  A    between atoms: N_51  and  C_57
REMARK   12  A    between atoms: N_54  and  C_55
REMARK                            x       y       z     vdW  Elec       q    Type
REMARK                         _______ _______ _______ _____ _____    ______ ____
ROOT
ATOM      1 MN   UNL     1      -1.959   0.532   0.000  0.00  0.00    +0.000 Mn
ENDROOT
TORSDOF 0
REMARK  Name = 
REMARK  12 active torsions:
REMARK  status: ('A' for Active; 'I' for Inactive)
REMARK    1  A    between atoms: C_4  and  C_50
REMARK    2  A    between atoms: C_8  and  C_39
REMARK    3  A    between atoms: C_12  and  C_28
REMARK    4  A    between atoms: C_16  and  C_17
REMARK    5  A    between atoms: N_18  and  C_24
REMARK    6  A    between atoms: N_21  and  C_22
REMARK    7  A    between atoms: N_29  and  C_35
REMARK    8  A    between atoms: N_32  and  C_33
REMARK    9  A    between atoms: N_40  and  C_46
REMARK   10  A    between atoms: N_43  and  C_44
REMARK   11  A    between atoms: N_51  and  C_57
REMARK   12  A    between atoms: N_54  and  C_55
REMARK                            x       y       z     vdW  Elec       q    Type
REMARK                         _______ _______ _______ _____ _____    ______ ____
ROOT
ATOM      1 CL   UNL     1       5.874   2.250   0.000  0.00  0.00    +0.000 Cl
ENDROOT
TORSDOF 0
REMARK  Name = 
REMARK  12 active torsions:
REMARK  status: ('A' for Active; 'I' for Inactive)
REMARK    1  A    between atoms: C_4  and  C_50
REMARK    2  A    between atoms: C_8  and  C_39
REMARK    3  A    between atoms: C_12  and  C_28
REMARK    4  A    between atoms: C_16  and  C_17
REMARK    5  A    between atoms: N_18  and  C_24
REMARK    6  A    between atoms: N_21  and  C_22
REMARK    7  A    between atoms: N_29  and  C_35
REMARK    8  A    between atoms: N_32  and  C_33
REMARK    9  A    between atoms: N_40  and  C_46
REMARK   10  A    between atoms: N_43  and  C_44
REMARK   11  A    between atoms: N_51  and  C_57
REMARK   12  A    between atoms: N_54  and  C_55
REMARK                            x       y       z     vdW  Elec       q    Type
REMARK                         _______ _______ _______ _____ _____    ______ ____
ROOT
ATOM      1 CL   UNL     1       5.874   2.250   0.000  0.00  0.00    +0.000 Cl
ENDROOT
TORSDOF 0
REMARK  Name = 
REMARK  12 active torsions:
REMARK  status: ('A' for Active; 'I' for Inactive)
REMARK    1  A    between atoms: C_4  and  C_50
REMARK    2  A    between atoms: C_8  and  C_39
REMARK    3  A    between atoms: C_12  and  C_28
REMARK    4  A    between atoms: C_16  and  C_17
REMARK    5  A    between atoms: N_18  and  C_24
REMARK    6  A    between atoms: N_21  and  C_22
REMARK    7  A    between atoms: N_29  and  C_35
REMARK    8  A    between atoms: N_32  and  C_33
REMARK    9  A    between atoms: N_40  and  C_46
REMARK   10  A    between atoms: N_43  and  C_44
REMARK   11  A    between atoms: N_51  and  C_57
REMARK   12  A    between atoms: N_54  and  C_55
REMARK                            x       y       z     vdW  Elec       q    Type
REMARK                         _______ _______ _______ _____ _____    ______ ____
ROOT
ATOM      1 CL   UNL     1       5.874   2.250   0.000  0.00  0.00    +0.000 Cl
ENDROOT
TORSDOF 0
REMARK  Name = 
REMARK  12 active torsions:
REMARK  status: ('A' for Active; 'I' for Inactive)
REMARK    1  A    between atoms: C_4  and  C_50
REMARK    2  A    between atoms: C_8  and  C_39
REMARK    3  A    between atoms: C_12  and  C_28
REMARK    4  A    between atoms: C_16  and  C_17
REMARK    5  A    between atoms: N_18  and  C_24
REMARK    6  A    between atoms: N_21  and  C_22
REMARK    7  A    between atoms: N_29  and  C_35
REMARK    8  A    between atoms: N_32  and  C_33
REMARK    9  A    between atoms: N_40  and  C_46
REMARK   10  A    between atoms: N_43  and  C_44
REMARK   11  A    between atoms: N_51  and  C_57
REMARK   12  A    between atoms: N_54  and  C_55
REMARK                            x       y       z     vdW  Elec       q    Type
REMARK                         _______ _______ _______ _____ _____    ______ ____
ROOT
ATOM      1 CL   UNL     1       5.874   2.250   0.000  0.00  0.00    +0.000 Cl
ENDROOT
TORSDOF 0
REMARK  Name = 
REMARK  12 active torsions:
REMARK  status: ('A' for Active; 'I' for Inactive)
REMARK    1  A    between atoms: C_4  and  C_50
REMARK    2  A    between atoms: C_8  and  C_39
REMARK    3  A    between atoms: C_12  and  C_28
REMARK    4  A    between atoms: C_16  and  C_17
REMARK    5  A    between atoms: N_18  and  C_24
REMARK    6  A    between atoms: N_21  and  C_22
REMARK    7  A    between atoms: N_29  and  C_35
REMARK    8  A    between atoms: N_32  and  C_33
REMARK    9  A    between atoms: N_40  and  C_46
REMARK   10  A    between atoms: N_43  and  C_44
REMARK   11  A    between atoms: N_51  and  C_57
REMARK   12  A    between atoms: N_54  and  C_55
REMARK                            x       y       z     vdW  Elec       q    Type
REMARK                         _______ _______ _______ _____ _____    ______ ____
ROOT
ATOM      1 CL   UNL     1       5.874   2.250   0.000  0.00  0.00    +0.000 Cl
ENDROOT
TORSDOF 0
