REMARK  Name = 
REMARK  3 active torsions:
REMARK  status: ('A' for Active; 'I' for Inactive)
REMARK    1  A    between atoms: N_21  and  C_22
REMARK    2  A    between atoms: C_22  and  C_23
REMARK    3  A    between atoms: C_26  and  C_28
REMARK                            x       y       z     vdW  Elec       q    Type
REMARK                         _______ _______ _______ _____ _____    ______ ____
ROOT
ATOM      1  C   UNL     1       3.282   0.000   0.000  0.00  0.00    +0.000 A 
ATOM      2  C   UNL     1       3.996  -0.412   0.000  0.00  0.00    +0.000 A 
ATOM      3  C   UNL     1       4.711   0.000   0.000  0.00  0.00    +0.000 A 
ATOM      4  C   UNL     1       4.711   0.825   0.000  0.00  0.00    +0.000 A 
ATOM      5  C   UNL     1       3.996   1.238   0.000  0.00  0.00    +0.000 A 
ATOM      6  C   UNL     1       3.282   0.825   0.000  0.00  0.00    +0.000 A 
ATOM      7  C   UNL     1       4.168   2.045   0.000  0.00  0.00    +0.000 C 
ATOM      8  C   UNL     1       4.339   2.851   0.000  0.00  0.00    +0.000 C 
ATOM      9  O   UNL     1       3.625   3.264   0.000  0.00  0.00    +0.000 OA
ATOM     10  C   UNL     1       3.012   2.712   0.000  0.00  0.00    +0.000 A 
ATOM     11  C   UNL     1       3.347   1.958   0.000  0.00  0.00    +0.000 A 
ATOM     12  C   UNL     1       2.862   1.291   0.000  0.00  0.00    +0.000 A 
ATOM     13  C   UNL     1       2.042   1.377   0.000  0.00  0.00    +0.000 A 
ATOM     14  C   UNL     1       1.706   2.131   0.000  0.00  0.00    +0.000 A 
ATOM     15  C   UNL     1       2.191   2.798   0.000  0.00  0.00    +0.000 A 
ATOM     16  O   UNL     1       0.886   2.045   0.000  0.00  0.00    +0.000 OA
ATOM     17  C   UNL     1       0.715   1.238   0.000  0.00  0.00    +0.000 C 
ATOM     18  O   UNL     1       1.429   0.825   0.000  0.00  0.00    +0.000 OA
ATOM     19  C   UNL     1       4.988   2.131   0.000  0.00  0.00    +0.000 C 
ATOM     20  O   UNL     1       5.401   2.845   0.000  0.00  0.00    +0.000 OA
ATOM     21  N   UNL     1       5.324   1.377   0.000  0.00  0.00    +0.000 N 
ENDROOT
BRANCH  21  22
ATOM     22  C   UNL     1       6.131   1.206   0.000  0.00  0.00    +0.000 C 
BRANCH  22  23
ATOM     23  C   UNL     1       6.683   1.819   0.000  0.00  0.00    +0.000 A 
ATOM     24  C   UNL     1       6.511   2.626   0.000  0.00  0.00    +0.000 A 
ATOM     25  C   UNL     1       7.226   3.038   0.000  0.00  0.00    +0.000 A 
ATOM     26  C   UNL     1       7.839   2.486   0.000  0.00  0.00    +0.000 A 
ATOM     27  O   UNL     1       7.503   1.732   0.000  0.00  0.00    +0.000 OA
BRANCH  26  28
ATOM     28  C   UNL     1       8.646   2.658   0.000  0.00  0.00    +0.000 C 
ATOM     29  F   UNL     1       9.453   2.829   0.000  0.00  0.00    +0.000 F 
ATOM     30  F   UNL     1       8.818   1.851   0.000  0.00  0.00    +0.000 F 
ATOM     31  F   UNL     1       8.474   3.465   0.000  0.00  0.00    +0.000 F 
ENDBRANCH  26  28
ENDBRANCH  22  23
ENDBRANCH  21  22
TORSDOF 3
