REMARK  Name = 
REMARK  8 active torsions:
REMARK  status: ('A' for Active; 'I' for Inactive)
REMARK    1  A    between atoms: N_1  and  C_15
REMARK    2  A    between atoms: C_8  and  C_11
REMARK    3  A    between atoms: N_9  and  C_21
REMARK    4  A    between atoms: N_10  and  C_23
REMARK    5  A    between atoms: C_11  and  C_26
REMARK    6  A    between atoms: C_15  and  C_20
REMARK    7  A    between atoms: C_20  and  C_21
REMARK    8  A    between atoms: C_23  and  C_27
REMARK                            x       y       z     vdW  Elec       q    Type
REMARK                         _______ _______ _______ _____ _____    ______ ____
ROOT
ATOM      1  N   UNL     1      -1.404   1.011   0.000  0.00  0.00    +0.000 N 
ATOM      2  C   UNL     1      -0.704   1.425   0.000  0.00  0.00    +0.000 A 
ATOM      3  S   UNL     1      -1.404   2.670   0.000  0.00  0.00    +0.000 S 
ATOM      4  C   UNL     1      -0.704   2.250   0.000  0.00  0.00    +0.000 A 
ATOM      5  C   UNL     1      -2.118   1.425   0.000  0.00  0.00    +0.000 A 
ATOM      6  C   UNL     1      -2.118   2.250   0.000  0.00  0.00    +0.000 A 
ATOM      7  C   UNL     1      -0.005   1.011   0.000  0.00  0.00    +0.000 A 
ATOM      8  C   UNL     1       0.719   1.425   0.000  0.00  0.00    +0.000 A 
ATOM      9  C   UNL     1      -0.005   2.670   0.000  0.00  0.00    +0.000 A 
ATOM     10  C   UNL     1       0.719   2.250   0.000  0.00  0.00    +0.000 A 
ATOM     11  C   UNL     1      -2.841   1.011   0.000  0.00  0.00    +0.000 A 
ATOM     12  C   UNL     1      -2.841   2.670   0.000  0.00  0.00    +0.000 A 
ATOM     13  C   UNL     1      -3.555   1.425   0.000  0.00  0.00    +0.000 A 
ATOM     14  C   UNL     1      -3.555   2.250   0.000  0.00  0.00    +0.000 A 
ENDROOT
BRANCH   8  15
ATOM     15  C   UNL     1       1.413   1.011   0.000  0.00  0.00    +0.000 C 
ATOM     16  O   UNL     1       1.413   0.186   0.000  0.00  0.00    +0.000 OA
BRANCH  15  17
ATOM     17  C   UNL     1       2.137   1.425   0.000  0.00  0.00    +0.000 C 
ATOM     18  C   UNL     1       2.846   1.011   0.000  0.00  0.00    +0.000 C 
ENDBRANCH  15  17
ENDBRANCH   8  15
BRANCH   1  19
ATOM     19  C   UNL     1      -1.404   0.186   0.000  0.00  0.00    +0.000 C 
BRANCH  19  20
ATOM     20  C   UNL     1      -0.704  -0.210   0.000  0.00  0.00    +0.000 C 
BRANCH  20  21
ATOM     21  C   UNL     1      -0.704  -1.020   0.000  0.00  0.00    +0.000 C 
BRANCH  21  22
ATOM     22  N   UNL     1      -0.005  -1.435   0.000  0.00  0.00    +0.000 NA
ATOM     23  N   UNL     1       1.413  -2.251   0.000  0.00  0.00    +0.000 NA
ATOM     24  C   UNL     1       1.413  -1.435   0.000  0.00  0.00    +0.000 C 
ATOM     25  C   UNL     1      -0.005  -2.251   0.000  0.00  0.00    +0.000 C 
ATOM     26  C   UNL     1       0.719  -1.020   0.000  0.00  0.00    +0.000 C 
ATOM     27  C   UNL     1       0.719  -2.670   0.000  0.00  0.00    +0.000 C 
BRANCH  23  28
ATOM     28  C   UNL     1       2.137  -2.670   0.000  0.00  0.00    +0.000 C 
BRANCH  28  30
ATOM     29  O   UNL     1       3.555  -2.670   0.000  0.00  0.00    +0.000 OA
ATOM     30  C   UNL     1       2.846  -2.251   0.000  0.00  0.00    +0.000 C 
ENDBRANCH  28  30
ENDBRANCH  23  28
ENDBRANCH  21  22
ENDBRANCH  20  21
ENDBRANCH  19  20
ENDBRANCH   1  19
TORSDOF 8
