REMARK  Name = 
REMARK  5 active torsions:
REMARK  status: ('A' for Active; 'I' for Inactive)
REMARK    1  A    between atoms: N_8  and  C_16
REMARK    2  A    between atoms: N_9  and  C_17
REMARK    3  A    between atoms: N_10  and  C_12
REMARK    4  A    between atoms: N_10  and  C_18
REMARK    5  A    between atoms: N_11  and  C_19
REMARK                            x       y       z     vdW  Elec       q    Type
REMARK                         _______ _______ _______ _____ _____    ______ ____
ROOT
ATOM      1  O   UNL     1       2.021  -0.298   0.000  0.00  0.00    +0.000 OA
ATOM      2  O   UNL     1      -0.321  -1.998   0.000  0.00  0.00    +0.000 OA
ATOM      3  N   UNL     1      -0.096  -0.545   0.000  0.00  0.00    +0.000 N 
ATOM      4  N   UNL     1       0.981  -1.334   0.000  0.00  0.00    +0.000 N 
ATOM      5  C   UNL     1       0.573  -0.069   0.000  0.00  0.00    +0.000 C 
ATOM      6  C   UNL     1       1.238  -0.545   0.000  0.00  0.00    +0.000 C 
ATOM      7  C   UNL     1       0.156  -1.334   0.000  0.00  0.00    +0.000 C 
ENDROOT
BRANCH   5   9
ATOM      8  O   UNL     1      -0.142   1.998   0.000  0.00  0.00    +0.000 OA
ATOM      9  N   UNL     1       0.573   0.756   0.000  0.00  0.00    +0.000 N 
ATOM     10  N   UNL     1      -0.862   0.756   0.000  0.00  0.00    +0.000 NA
ATOM     11  C   UNL     1      -0.142   1.173   0.000  0.00  0.00    +0.000 C 
BRANCH   9  13
ATOM     12  O   UNL     1       1.288   1.998   0.000  0.00  0.00    +0.000 OA
ATOM     13  C   UNL     1       1.288   1.173   0.000  0.00  0.00    +0.000 C 
ENDBRANCH   9  13
BRANCH  10  15
ATOM     14  O   UNL     1      -2.292   0.756   0.000  0.00  0.00    +0.000 OA
ATOM     15  C   UNL     1      -1.577   1.173   0.000  0.00  0.00    +0.000 C 
ENDBRANCH  10  15
ENDBRANCH   5   9
BRANCH   3  17
ATOM     16  O   UNL     1      -1.494  -0.843   0.000  0.00  0.00    +0.000 OA
ATOM     17  C   UNL     1      -0.880  -0.298   0.000  0.00  0.00    +0.000 C 
ENDBRANCH   3  17
BRANCH   4  19
ATOM     18  O   UNL     1       2.292  -1.921   0.000  0.00  0.00    +0.000 OA
ATOM     19  C   UNL     1       1.467  -1.998   0.000  0.00  0.00    +0.000 C 
ENDBRANCH   4  19
TORSDOF 5
