REMARK  Name = 
REMARK  7 active torsions:
REMARK  status: ('A' for Active; 'I' for Inactive)
REMARK    1  A    between atoms: O_2  and  C_3
REMARK    2  A    between atoms: C_7  and  O_41
REMARK    3  A    between atoms: C_8  and  C_9
REMARK    4  A    between atoms: C_11  and  C_25
REMARK    5  A    between atoms: N_13  and  C_14
REMARK    6  A    between atoms: N_27  and  C_28
REMARK    7  A    between atoms: C_28  and  C_38
REMARK                            x       y       z     vdW  Elec       q    Type
REMARK                         _______ _______ _______ _____ _____    ______ ____
ROOT
ATOM      1  C   UNL     1      -3.101  -1.113   0.000  0.00  0.00    +0.000 A 
ATOM      2  C   UNL     1      -2.377  -1.510   0.000  0.00  0.00    +0.000 A 
ATOM      3  C   UNL     1      -1.776  -0.945   0.000  0.00  0.00    +0.000 A 
ATOM      4  N   UNL     1      -2.128  -0.199   0.000  0.00  0.00    +0.000 NA
ATOM      5  N   UNL     1      -2.946  -0.302   0.000  0.00  0.00    +0.000 N 
ENDROOT
BRANCH   5   6
ATOM      6  C   UNL     1      -3.511   0.299   0.000  0.00  0.00    +0.000 A 
ATOM      7  C   UNL     1      -4.315   0.110   0.000  0.00  0.00    +0.000 A 
ATOM      8  C   UNL     1      -4.880   0.711   0.000  0.00  0.00    +0.000 A 
ATOM      9  N   UNL     1      -4.642   1.501   0.000  0.00  0.00    +0.000 NA
ATOM     10  C   UNL     1      -3.838   1.690   0.000  0.00  0.00    +0.000 A 
ATOM     11  C   UNL     1      -3.273   1.089   0.000  0.00  0.00    +0.000 A 
ATOM     12  C   UNL     1      -2.470   1.277   0.000  0.00  0.00    +0.000 A 
ATOM     13  C   UNL     1      -2.232   2.067   0.000  0.00  0.00    +0.000 A 
ATOM     14  C   UNL     1      -2.797   2.668   0.000  0.00  0.00    +0.000 A 
ATOM     15  C   UNL     1      -3.600   2.480   0.000  0.00  0.00    +0.000 A 
ATOM     16 CL   UNL     1      -2.559   3.458   0.000  0.00  0.00    +0.000 Cl
ENDBRANCH   5   6
BRANCH   1  22
ATOM     17  C   UNL     1      -3.916  -2.287   0.000  0.00  0.00    +0.000 A 
ATOM     18  C   UNL     1      -4.662  -2.638   0.000  0.00  0.00    +0.000 A 
ATOM     19  C   UNL     1      -5.340  -2.168   0.000  0.00  0.00    +0.000 A 
ATOM     20  C   UNL     1      -5.271  -1.346   0.000  0.00  0.00    +0.000 A 
ATOM     21  C   UNL     1      -4.525  -0.994   0.000  0.00  0.00    +0.000 A 
ATOM     22  C   UNL     1      -3.847  -1.464   0.000  0.00  0.00    +0.000 A 
BRANCH  17  24
ATOM     23  C   UNL     1      -3.306  -3.579   0.000  0.00  0.00    +0.000 C 
ATOM     24  O   UNL     1      -3.238  -2.757   0.000  0.00  0.00    +0.000 OA
ENDBRANCH  17  24
BRANCH  21  25
ATOM     25  O   UNL     1      -4.456  -0.172   0.000  0.00  0.00    +0.000 OA
ATOM     26  C   UNL     1      -5.134   0.299   0.000  0.00  0.00    +0.000 C 
ENDBRANCH  21  25
ENDBRANCH   1  22
BRANCH   3  27
ATOM     27  C   UNL     1      -0.966  -1.099   0.000  0.00  0.00    +0.000 C 
ATOM     28  O   UNL     1      -0.427  -0.474   0.000  0.00  0.00    +0.000 OA
ATOM     29  N   UNL     1      -0.694  -1.878   0.000  0.00  0.00    +0.000 NA
BRANCH  29  30
ATOM     30  C   UNL     1       0.116  -2.032   0.000  0.00  0.00    +0.000 C 
ATOM     31  C   UNL     1       0.852  -1.659   0.000  0.00  0.00    +0.000 C 
ATOM     32  C   UNL     1       0.852  -0.911   0.000  0.00  0.00    +0.000 C 
ATOM     33  C   UNL     1       1.301  -0.121   0.000  0.00  0.00    +0.000 C 
ATOM     34  C   UNL     1       2.037  -0.494   0.000  0.00  0.00    +0.000 C 
ATOM     35  C   UNL     1       2.037  -1.242   0.000  0.00  0.00    +0.000 C 
ATOM     36  C   UNL     1       1.587  -2.032   0.000  0.00  0.00    +0.000 C 
ATOM     37  C   UNL     1       1.301  -1.616   0.000  0.00  0.00    +0.000 C 
ATOM     38  C   UNL     1       0.566  -1.242   0.000  0.00  0.00    +0.000 C 
ATOM     39  C   UNL     1       0.566  -0.494   0.000  0.00  0.00    +0.000 C 
BRANCH  30  40
ATOM     40  C   UNL     1       0.232  -2.849   0.000  0.00  0.00    +0.000 C 
ATOM     41  O   UNL     1       0.998  -3.157   0.000  0.00  0.00    +0.000 OA
ATOM     42  O   UNL     1      -0.417  -3.358   0.000  0.00  0.00    +0.000 OA
ENDBRANCH  30  40
ENDBRANCH  29  30
ENDBRANCH   3  27
TORSDOF 7
