REMARK  Name = 
REMARK  10 active torsions:
REMARK  status: ('A' for Active; 'I' for Inactive)
REMARK    1  A    between atoms: C_1  and  C_2
REMARK    2  A    between atoms: C_3  and  C_4
REMARK    3  A    between atoms: C_8  and  C_13
REMARK    4  A    between atoms: C_9  and  C_14
REMARK    5  A    between atoms: C_11  and  C_18
REMARK    6  A    between atoms: C_12  and  C_17
REMARK    7  A    between atoms: C_15  and  C_20
REMARK    8  A    between atoms: C_16  and  C_19
REMARK    9  A    between atoms: C_21  and  C_24
REMARK   10  A    between atoms: C_22  and  C_25
REMARK                            x       y       z     vdW  Elec       q    Type
REMARK                         _______ _______ _______ _____ _____    ______ ____
ROOT
ATOM      1  C   UNL     1       0.340   0.120   0.000  0.00  0.00    +0.000 C 
ATOM      2  C   UNL     1      -0.355   0.482   0.000  0.00  0.00    +0.000 C 
ENDROOT
BRANCH   1   4
ATOM      3  C   UNL     1       1.786   0.086   0.000  0.00  0.00    +0.000 C 
ATOM      4  C   UNL     1       1.063   0.467   0.000  0.00  0.00    +0.000 C 
ATOM      5  C   UNL     1       1.786  -0.704   0.000  0.00  0.00    +0.000 C 
BRANCH   3   7
ATOM      6  C   UNL     1       3.241   0.056   0.000  0.00  0.00    +0.000 C 
ATOM      7  C   UNL     1       2.515   0.454   0.000  0.00  0.00    +0.000 C 
BRANCH   6   9
ATOM      8  C   UNL     1       4.724   0.040   0.000  0.00  0.00    +0.000 C 
ATOM      9  C   UNL     1       3.998   0.417   0.000  0.00  0.00    +0.000 C 
ATOM     10  C   UNL     1       4.724  -0.862   0.000  0.00  0.00    +0.000 C 
BRANCH   8  12
ATOM     11  C   UNL     1       6.176   0.028   0.000  0.00  0.00    +0.000 C 
ATOM     12  C   UNL     1       5.465   0.389   0.000  0.00  0.00    +0.000 C 
BRANCH  11  13
ATOM     13  C   UNL     1       6.936   0.374   0.000  0.00  0.00    +0.000 C 
ATOM     14  C   UNL     1       6.936   1.168   0.000  0.00  0.00    +0.000 C 
ATOM     15  C   UNL     1       7.644  -0.025   0.000  0.00  0.00    +0.000 C 
ATOM     16  C   UNL     1       7.696   1.560   0.000  0.00  0.00    +0.000 C 
ATOM     17  C   UNL     1       8.419   1.149   0.000  0.00  0.00    +0.000 C 
ATOM     18  C   UNL     1       8.438   0.343   0.000  0.00  0.00    +0.000 C 
ATOM     19  C   UNL     1       6.207   1.576   0.000  0.00  0.00    +0.000 C 
ATOM     20  C   UNL     1       8.320  -0.862   0.000  0.00  0.00    +0.000 C 
ATOM     21  C   UNL     1       7.088  -0.769   0.000  0.00  0.00    +0.000 C 
ENDBRANCH  11  13
ENDBRANCH   8  12
ENDBRANCH   6   9
ENDBRANCH   3   7
ENDBRANCH   1   4
BRANCH   2  23
ATOM     22  C   UNL     1      -1.820   0.519   0.000  0.00  0.00    +0.000 C 
ATOM     23  C   UNL     1      -1.097   0.120   0.000  0.00  0.00    +0.000 C 
ATOM     24  C   UNL     1      -1.820   1.291   0.000  0.00  0.00    +0.000 C 
BRANCH  22  26
ATOM     25  C   UNL     1      -3.293   0.547   0.000  0.00  0.00    +0.000 C 
ATOM     26  C   UNL     1      -2.533   0.133   0.000  0.00  0.00    +0.000 C 
BRANCH  25  28
ATOM     27  C   UNL     1      -4.739   0.596   0.000  0.00  0.00    +0.000 C 
ATOM     28  C   UNL     1      -4.035   0.167   0.000  0.00  0.00    +0.000 C 
ATOM     29  C   UNL     1      -4.724   1.372   0.000  0.00  0.00    +0.000 C 
BRANCH  27  31
ATOM     30  C   UNL     1      -6.223   0.596   0.000  0.00  0.00    +0.000 C 
ATOM     31  C   UNL     1      -5.500   0.204   0.000  0.00  0.00    +0.000 C 
BRANCH  30  32
ATOM     32  C   UNL     1      -6.955   0.232   0.000  0.00  0.00    +0.000 C 
ATOM     33  C   UNL     1      -7.678   0.630   0.000  0.00  0.00    +0.000 C 
ATOM     34  C   UNL     1      -6.955  -0.581   0.000  0.00  0.00    +0.000 C 
ATOM     35  C   UNL     1      -8.438   0.250   0.000  0.00  0.00    +0.000 C 
ATOM     36  C   UNL     1      -7.724  -0.945   0.000  0.00  0.00    +0.000 C 
ATOM     37  C   UNL     1      -7.678   1.560   0.000  0.00  0.00    +0.000 C 
ATOM     38  C   UNL     1      -6.528  -1.576   0.000  0.00  0.00    +0.000 C 
ATOM     39  C   UNL     1      -5.920  -0.352   0.000  0.00  0.00    +0.000 C 
ATOM     40  C   UNL     1      -8.419  -0.547   0.000  0.00  0.00    +0.000 C 
ENDBRANCH  30  32
ENDBRANCH  27  31
ENDBRANCH  25  28
ENDBRANCH  22  26
ENDBRANCH   2  23
TORSDOF 10
