REMARK  Name = 
REMARK  10 active torsions:
REMARK  status: ('A' for Active; 'I' for Inactive)
REMARK    1  A    between atoms: O_2  and  C_3
REMARK    2  A    between atoms: C_6  and  C_14
REMARK    3  A    between atoms: C_8  and  O_9
REMARK    4  A    between atoms: O_9  and  P_10
REMARK    5  A    between atoms: C_14  and  S_15
REMARK    6  A    between atoms: S_15  and  C_18
REMARK    7  A    between atoms: C_19  and  C_20
REMARK    8  A    between atoms: C_21  and  O_30
REMARK    9  A    between atoms: C_23  and  O_28
REMARK   10  A    between atoms: C_25  and  O_26
REMARK                            x       y       z     vdW  Elec       q    Type
REMARK                         _______ _______ _______ _____ _____    ______ ____
ROOT
ATOM      1  S   UNL     1      -0.715  -6.188   0.000  0.00  0.00    +0.000 S 
ATOM      2  O   UNL     1      -1.127  -6.902   0.000  0.00  0.00    +0.000 OA
ATOM      3  O   UNL     1      -0.302  -5.473   0.000  0.00  0.00    +0.000 OA
ENDROOT
BRANCH   1   4
ATOM      4  C   UNL     1       0.000  -6.600   0.000  0.00  0.00    +0.000 C 
ATOM      5  C   UNL     1       0.000  -7.425   0.000  0.00  0.00    +0.000 C 
BRANCH   5   6
ATOM      6  C   UNL     1       0.715  -7.838   0.000  0.00  0.00    +0.000 A 
ATOM      7  C   UNL     1       1.429  -7.425   0.000  0.00  0.00    +0.000 A 
ATOM      8  C   UNL     1       2.143  -7.838   0.000  0.00  0.00    +0.000 A 
ATOM      9  C   UNL     1       2.143  -8.662   0.000  0.00  0.00    +0.000 A 
ATOM     10  C   UNL     1       1.429  -9.075   0.000  0.00  0.00    +0.000 A 
ATOM     11  C   UNL     1       0.715  -8.662   0.000  0.00  0.00    +0.000 A 
BRANCH  11  12
ATOM     12  O   UNL     1       0.000  -9.075   0.000  0.00  0.00    +0.000 OA
ATOM     13  C   UNL     1      -0.715  -8.662   0.000  0.00  0.00    +0.000 C 
ENDBRANCH  11  12
BRANCH   9  14
ATOM     14  O   UNL     1       2.858  -9.075   0.000  0.00  0.00    +0.000 OA
ATOM     15  C   UNL     1       3.572  -8.662   0.000  0.00  0.00    +0.000 C 
ENDBRANCH   9  14
BRANCH   7  16
ATOM     16  O   UNL     1       1.429  -6.600   0.000  0.00  0.00    +0.000 OA
ATOM     17  C   UNL     1       2.143  -6.188   0.000  0.00  0.00    +0.000 C 
ENDBRANCH   7  16
ENDBRANCH   5   6
ENDBRANCH   1   4
BRANCH   1  18
ATOM     18  C   UNL     1      -1.429  -5.775   0.000  0.00  0.00    +0.000 C 
BRANCH  18  22
ATOM     19  C   UNL     1      -1.429  -3.300   0.000  0.00  0.00    +0.000 A 
ATOM     20  C   UNL     1      -0.715  -3.712   0.000  0.00  0.00    +0.000 A 
ATOM     21  C   UNL     1      -0.715  -4.537   0.000  0.00  0.00    +0.000 A 
ATOM     22  C   UNL     1      -1.429  -4.950   0.000  0.00  0.00    +0.000 A 
ATOM     23  C   UNL     1      -2.143  -4.537   0.000  0.00  0.00    +0.000 A 
ATOM     24  C   UNL     1      -2.143  -3.712   0.000  0.00  0.00    +0.000 A 
BRANCH  19  26
ATOM     25  C   UNL     1      -0.715  -2.062   0.000  0.00  0.00    +0.000 C 
ATOM     26  O   UNL     1      -1.429  -2.475   0.000  0.00  0.00    +0.000 OA
ENDBRANCH  19  26
BRANCH  24  27
ATOM     27  O   UNL     1      -2.858  -3.300   0.000  0.00  0.00    +0.000 OA
BRANCH  27  28
ATOM     28  P   UNL     1      -2.858  -2.475   0.000  0.00  0.00    +0.000 P 
ATOM     29  O   UNL     1      -3.683  -2.475   0.000  0.00  0.00    +0.000 OA
ATOM     30  O   UNL     1      -2.858  -1.650   0.000  0.00  0.00    +0.000 OA
ATOM     31  O   UNL     1      -2.033  -2.475   0.000  0.00  0.00    +0.000 OA
ENDBRANCH  27  28
ENDBRANCH  24  27
ENDBRANCH  18  22
ENDBRANCH   1  18
TORSDOF 10
