REMARK  Name = 
REMARK  23 active torsions:
REMARK  status: ('A' for Active; 'I' for Inactive)
REMARK    1  A    between atoms: C_7  and  C_8
REMARK    2  A    between atoms: C_15  and  N_58
REMARK    3  A    between atoms: C_17  and  N_18
REMARK    4  A    between atoms: N_18  and  C_55
REMARK    5  A    between atoms: C_29  and  C_30
REMARK    6  A    between atoms: C_30  and  C_31
REMARK    7  A    between atoms: C_31  and  C_35
REMARK    8  A    between atoms: C_39  and  C_40
REMARK    9  A    between atoms: C_40  and  C_44
REMARK   10  A    between atoms: C_44  and  C_45
REMARK   11  A    between atoms: C_55  and  C_56
REMARK   12  A    between atoms: C_59  and  C_60
REMARK   13  A    between atoms: C_60  and  C_64
REMARK   14  A    between atoms: C_62  and  C_64
REMARK   15  A    between atoms: C_62  and  C_68
REMARK   16  A    between atoms: C_63  and  C_69
REMARK   17  A    between atoms: C_66  and  C_68
REMARK   18  A    between atoms: C_66  and  C_72
REMARK   19  A    between atoms: C_67  and  C_69
REMARK   20  A    between atoms: C_67  and  C_73
REMARK   21  A    between atoms: C_70  and  C_71
REMARK   22  A    between atoms: C_70  and  C_72
REMARK   23  A    between atoms: C_71  and  C_73
REMARK                            x       y       z     vdW  Elec       q    Type
REMARK                         _______ _______ _______ _____ _____    ______ ____
ROOT
ATOM      1  C   UNL     1      -0.851  -1.689   0.000  0.00  0.00    +0.000 C 
ATOM      2  N   UNL     1      -0.366  -1.022   0.000  0.00  0.00    +0.000 N 
ATOM      3  C   UNL     1      -0.366  -2.357   0.000  0.00  0.00    +0.000 C 
ATOM      4  C   UNL     1       0.418  -1.277   0.000  0.00  0.00    +0.000 C 
ATOM      5  C   UNL     1       0.418  -2.102   0.000  0.00  0.00    +0.000 C 
ATOM      6  C   UNL     1      -0.366   0.407   0.000  0.00  0.00    +0.000 C 
ATOM      7  C   UNL     1      -0.779  -0.307   0.000  0.00  0.00    +0.000 C 
ATOM      8  O   UNL     1       0.459   1.836   0.000  0.00  0.00    +0.000 OA
ATOM      9  C   UNL     1      -0.366   1.836   0.000  0.00  0.00    +0.000 C 
ATOM     10  N   UNL     1      -0.779   1.122   0.000  0.00  0.00    +0.000 NA
ATOM     11  C   UNL     1      -0.366   3.265   0.000  0.00  0.00    +0.000 C 
ATOM     12  C   UNL     1      -0.779   2.551   0.000  0.00  0.00    +0.000 C 
ATOM     13  C   UNL     1      -0.779   3.980   0.000  0.00  0.00    +0.000 C 
ATOM     14  C   UNL     1      -1.602   3.981   0.000  0.00  0.00    +0.000 C 
ATOM     15  N   UNL     1      -2.016   3.267   0.000  0.00  0.00    +0.000 NA
ATOM     16  O   UNL     1      -0.366   4.694   0.000  0.00  0.00    +0.000 OA
ATOM     17  C   UNL     1      -2.841   3.268   0.000  0.00  0.00    +0.000 C 
ATOM     18  C   UNL     1      -3.254   2.554   0.000  0.00  0.00    +0.000 C 
ATOM     19  O   UNL     1      -3.252   3.983   0.000  0.00  0.00    +0.000 OA
ATOM     20  N   UNL     1      -3.252   1.724   0.000  0.00  0.00    +0.000 N 
ATOM     21  C   UNL     1      -4.524   2.141   0.000  0.00  0.00    +0.000 C 
ATOM     22  C   UNL     1      -4.039   2.809   0.000  0.00  0.00    +0.000 C 
ATOM     23  C   UNL     1      -4.039   1.474   0.000  0.00  0.00    +0.000 C 
ATOM     24  C   UNL     1      -2.840   1.010   0.000  0.00  0.00    +0.000 C 
ATOM     25  C   UNL     1      -3.252   0.295   0.000  0.00  0.00    +0.000 C 
ATOM     26  O   UNL     1      -2.015   1.010   0.000  0.00  0.00    +0.000 OA
ATOM     27  N   UNL     1      -2.840  -0.419   0.000  0.00  0.00    +0.000 NA
ATOM     28  C   UNL     1      -3.252  -1.134   0.000  0.00  0.00    +0.000 C 
ATOM     29  O   UNL     1      -4.077  -1.138   0.000  0.00  0.00    +0.000 OA
ATOM     30  C   UNL     1      -2.838  -1.847   0.000  0.00  0.00    +0.000 C 
ATOM     31  N   UNL     1      -2.222  -1.433   0.000  0.00  0.00    +0.000 NA
ATOM     32  C   UNL     1      -1.506  -1.843   0.000  0.00  0.00    +0.000 C 
ATOM     33  O   UNL     1      -1.503  -2.668   0.000  0.00  0.00    +0.000 OA
ATOM     34  O   UNL     1      -4.293   3.594   0.000  0.00  0.00    +0.000 OA
ATOM     35  O   UNL     1       1.086  -2.587   0.000  0.00  0.00    +0.000 OA
ATOM     36  O   UNL     1      -1.604  -0.307   0.000  0.00  0.00    +0.000 OA
ENDROOT
BRANCH   6  38
ATOM     37  C   UNL     1       0.871  -0.307   0.000  0.00  0.00    +0.000 C 
ATOM     38  C   UNL     1       0.459   0.407   0.000  0.00  0.00    +0.000 C 
ATOM     39  O   UNL     1       0.871   1.122   0.000  0.00  0.00    +0.000 OA
ENDBRANCH   6  38
BRANCH  12  40
ATOM     40  N   UNL     1       0.018   2.758   0.000  0.00  0.00    +0.000 NA
ATOM     41  C   UNL     1       0.734   3.176   0.000  0.00  0.00    +0.000 C 
ATOM     42  O   UNL     1       0.730   4.001   0.000  0.00  0.00    +0.000 OA
BRANCH  41  43
ATOM     43  C   UNL     1       1.450   2.766   0.000  0.00  0.00    +0.000 C 
BRANCH  43  44
ATOM     44  C   UNL     1       2.164   3.179   0.000  0.00  0.00    +0.000 C 
BRANCH  44  45
ATOM     45  C   UNL     1       2.879   2.766   0.000  0.00  0.00    +0.000 C 
BRANCH  45  46
ATOM     46  C   UNL     1       3.594   3.179   0.000  0.00  0.00    +0.000 C 
BRANCH  46  47
ATOM     47  C   UNL     1       4.308   2.766   0.000  0.00  0.00    +0.000 C 
BRANCH  47  48
ATOM     48  C   UNL     1       5.023   3.179   0.000  0.00  0.00    +0.000 C 
BRANCH  48  49
ATOM     49  C   UNL     1       5.737   2.766   0.000  0.00  0.00    +0.000 C 
BRANCH  49  50
ATOM     50  C   UNL     1       5.737   1.941   0.000  0.00  0.00    +0.000 C 
BRANCH  50  51
ATOM     51  C   UNL     1       5.023   1.529   0.000  0.00  0.00    +0.000 C 
ATOM     52  C   UNL     1       5.022   0.704   0.000  0.00  0.00    +0.000 C 
BRANCH  51  53
ATOM     53  C   UNL     1       4.308   1.941   0.000  0.00  0.00    +0.000 C 
BRANCH  53  54
ATOM     54  C   UNL     1       3.594   1.529   0.000  0.00  0.00    +0.000 C 
ATOM     55  C   UNL     1       3.593   0.704   0.000  0.00  0.00    +0.000 C 
BRANCH  54  56
ATOM     56  C   UNL     1       2.879   1.941   0.000  0.00  0.00    +0.000 C 
ATOM     57  C   UNL     1       2.164   1.529   0.000  0.00  0.00    +0.000 C 
ENDBRANCH  54  56
ENDBRANCH  53  54
ENDBRANCH  51  53
ENDBRANCH  50  51
ENDBRANCH  49  50
ENDBRANCH  48  49
ENDBRANCH  47  48
ENDBRANCH  46  47
ENDBRANCH  45  46
ENDBRANCH  44  45
ENDBRANCH  43  44
ENDBRANCH  41  43
ENDBRANCH  12  40
BRANCH  30  58
ATOM     58  C   UNL     1      -3.248  -2.562   0.000  0.00  0.00    +0.000 C 
ATOM     59  O   UNL     1      -2.836  -3.277   0.000  0.00  0.00    +0.000 OA
BRANCH  58  60
ATOM     60  C   UNL     1      -4.077  -2.560   0.000  0.00  0.00    +0.000 C 
ATOM     61  O   UNL     1      -4.487  -1.844   0.000  0.00  0.00    +0.000 OA
BRANCH  60  62
ATOM     62  C   UNL     1      -4.492  -3.273   0.000  0.00  0.00    +0.000 A 
ATOM     63  C   UNL     1      -5.317  -3.270   0.000  0.00  0.00    +0.000 A 
ATOM     64  C   UNL     1      -4.082  -3.989   0.000  0.00  0.00    +0.000 A 
ATOM     65  C   UNL     1      -4.497  -4.702   0.000  0.00  0.00    +0.000 A 
ATOM     66  C   UNL     1      -5.322  -4.699   0.000  0.00  0.00    +0.000 A 
ATOM     67  C   UNL     1      -5.732  -3.983   0.000  0.00  0.00    +0.000 A 
ATOM     68  O   UNL     1      -5.737  -5.412   0.000  0.00  0.00    +0.000 OA
ENDBRANCH  60  62
ENDBRANCH  58  60
ENDBRANCH  30  58
BRANCH  25  69
ATOM     69  C   UNL     1      -4.077   0.295   0.000  0.00  0.00    +0.000 C 
ATOM     70  O   UNL     1      -4.490  -0.419   0.000  0.00  0.00    +0.000 OA
BRANCH  69  71
ATOM     71  C   UNL     1      -4.490   1.010   0.000  0.00  0.00    +0.000 C 
BRANCH  71  72
ATOM     72  C   UNL     1      -5.315   1.010   0.000  0.00  0.00    +0.000 C 
ATOM     73  N   UNL     1      -5.727   1.724   0.000  0.00  0.00    +0.000 NA
ENDBRANCH  71  72
ENDBRANCH  69  71
ENDBRANCH  25  69
BRANCH  14  74
ATOM     74  N   UNL     1      -2.014   4.696   0.000  0.00  0.00    +0.000 NA
BRANCH  74  75
ATOM     75  C   UNL     1      -2.835   4.696   0.000  0.00  0.00    +0.000 C 
BRANCH  75  76
ATOM     76  C   UNL     1      -3.247   5.411   0.000  0.00  0.00    +0.000 C 
ATOM     77  N   UNL     1      -4.067   5.412   0.000  0.00  0.00    +0.000 NA
ENDBRANCH  75  76
ENDBRANCH  74  75
ENDBRANCH  14  74
TORSDOF 23
