REMARK  Name = 
REMARK  10 active torsions:
REMARK  status: ('A' for Active; 'I' for Inactive)
REMARK    1  A    between atoms: C_2  and  C_4
REMARK    2  A    between atoms: C_9  and  C_10
REMARK    3  A    between atoms: C_10  and  N_11
REMARK    4  A    between atoms: C_14  and  C_17
REMARK    5  A    between atoms: C_19  and  O_20
REMARK    6  A    between atoms: O_20  and  C_21
REMARK    7  A    between atoms: C_21  and  C_22
REMARK    8  A    between atoms: C_25  and  C_29
REMARK    9  A    between atoms: N_34  and  C_35
REMARK   10  A    between atoms: C_35  and  C_36
REMARK                            x       y       z     vdW  Elec       q    Type
REMARK                         _______ _______ _______ _____ _____    ______ ____
ROOT
ATOM      1  N   UNL     1      -0.584   2.237   0.000  0.00  0.00    +0.000 NA
ATOM      2  C   UNL     1      -1.409   2.237   0.000  0.00  0.00    +0.000 C 
ATOM      3  C   UNL     1      -1.821   2.952   0.000  0.00  0.00    +0.000 C 
ATOM      4  C   UNL     1      -1.409   3.666   0.000  0.00  0.00    +0.000 C 
ATOM      5  C   UNL     1      -0.584   3.666   0.000  0.00  0.00    +0.000 C 
ATOM      6  C   UNL     1      -0.171   2.952   0.000  0.00  0.00    +0.000 C 
ENDROOT
BRANCH   4   7
ATOM      7  C   UNL     1      -1.821   4.381   0.000  0.00  0.00    +0.000 A 
ATOM      8  N   UNL     1      -2.646   4.381   0.000  0.00  0.00    +0.000 NA
ATOM      9  C   UNL     1      -3.059   5.095   0.000  0.00  0.00    +0.000 A 
ATOM     10  C   UNL     1      -2.646   5.810   0.000  0.00  0.00    +0.000 A 
ATOM     11  C   UNL     1      -1.821   5.810   0.000  0.00  0.00    +0.000 A 
ATOM     12  C   UNL     1      -1.409   5.095   0.000  0.00  0.00    +0.000 A 
BRANCH   9  13
ATOM     13  O   UNL     1      -3.884   5.095   0.000  0.00  0.00    +0.000 OA
BRANCH  13  14
ATOM     14  C   UNL     1      -4.296   4.381   0.000  0.00  0.00    +0.000 C 
BRANCH  14  15
ATOM     15  C   UNL     1      -5.121   4.381   0.000  0.00  0.00    +0.000 A 
ATOM     16  C   UNL     1      -5.534   3.666   0.000  0.00  0.00    +0.000 A 
ATOM     17  C   UNL     1      -6.359   3.666   0.000  0.00  0.00    +0.000 A 
ATOM     18  C   UNL     1      -6.771   4.381   0.000  0.00  0.00    +0.000 A 
ATOM     19  C   UNL     1      -6.359   5.095   0.000  0.00  0.00    +0.000 A 
ATOM     20  C   UNL     1      -5.534   5.095   0.000  0.00  0.00    +0.000 A 
ATOM     21  F   UNL     1      -5.121   5.810   0.000  0.00  0.00    +0.000 F 
BRANCH  18  22
ATOM     22  C   UNL     1      -7.596   4.381   0.000  0.00  0.00    +0.000 C 
ATOM     23  N   UNL     1      -8.421   4.381   0.000  0.00  0.00    +0.000 NA
ENDBRANCH  18  22
ENDBRANCH  14  15
ENDBRANCH  13  14
ENDBRANCH   9  13
ENDBRANCH   4   7
BRANCH   1  24
ATOM     24  C   UNL     1      -0.171   1.523   0.000  0.00  0.00    +0.000 C 
BRANCH  24  30
ATOM     25  C   UNL     1       3.352   1.935   0.000  0.00  0.00    +0.000 A 
ATOM     26  C   UNL     1       3.352   1.110   0.000  0.00  0.00    +0.000 A 
ATOM     27  C   UNL     1       2.638   0.698   0.000  0.00  0.00    +0.000 A 
ATOM     28  C   UNL     1       1.923   1.110   0.000  0.00  0.00    +0.000 A 
ATOM     29  N   UNL     1       1.139   0.856   0.000  0.00  0.00    +0.000 NA
ATOM     30  C   UNL     1       0.654   1.523   0.000  0.00  0.00    +0.000 A 
ATOM     31  N   UNL     1       1.139   2.190   0.000  0.00  0.00    +0.000 N 
ATOM     32  C   UNL     1       1.923   1.935   0.000  0.00  0.00    +0.000 A 
ATOM     33  C   UNL     1       2.638   2.348   0.000  0.00  0.00    +0.000 A 
BRANCH  25  35
ATOM     34  O   UNL     1       4.781   1.935   0.000  0.00  0.00    +0.000 OA
ATOM     35  C   UNL     1       4.067   2.348   0.000  0.00  0.00    +0.000 C 
ATOM     36  O   UNL     1       4.067   3.173   0.000  0.00  0.00    +0.000 OA
ENDBRANCH  25  35
BRANCH  31  37
ATOM     37  C   UNL     1       0.884   2.975   0.000  0.00  0.00    +0.000 C 
BRANCH  37  38
ATOM     38  C   UNL     1       1.436   3.588   0.000  0.00  0.00    +0.000 C 
ATOM     39  C   UNL     1       1.393   4.412   0.000  0.00  0.00    +0.000 C 
ATOM     40  C   UNL     1       2.216   4.455   0.000  0.00  0.00    +0.000 C 
ATOM     41  O   UNL     1       2.260   3.631   0.000  0.00  0.00    +0.000 OA
ENDBRANCH  37  38
ENDBRANCH  31  37
ENDBRANCH  24  30
ENDBRANCH   1  24
TORSDOF 10
