REMARK  Name = 
REMARK  7 active torsions:
REMARK  status: ('A' for Active; 'I' for Inactive)
REMARK    1  A    between atoms: C_1  and  C_12
REMARK    2  A    between atoms: C_2  and  S_16
REMARK    3  A    between atoms: C_6  and  C_8
REMARK    4  A    between atoms: S_16  and  C_17
REMARK    5  A    between atoms: C_20  and  C_22
REMARK    6  A    between atoms: N_24  and  C_25
REMARK    7  A    between atoms: C_29  and  C_31
REMARK                            x       y       z     vdW  Elec       q    Type
REMARK                         _______ _______ _______ _____ _____    ______ ____
ROOT
ATOM      1  C   UNL     1       0.052  -0.259   0.000  0.00  0.00    +0.000 C 
ATOM      2  C   UNL     1      -0.208  -1.042   0.000  0.00  0.00    +0.000 C 
ATOM      3  N   UNL     1       0.467  -1.515   0.000  0.00  0.00    +0.000 NA
ATOM      4  C   UNL     1       1.108  -1.021   0.000  0.00  0.00    +0.000 C 
ATOM      5  C   UNL     1       0.869  -0.259   0.000  0.00  0.00    +0.000 C 
ENDROOT
BRANCH   4   6
ATOM      6  C   UNL     1       1.811  -1.453   0.000  0.00  0.00    +0.000 C 
ATOM      7  O   UNL     1       1.809  -2.249   0.000  0.00  0.00    +0.000 OA
ATOM      8  N   UNL     1       2.547  -1.026   0.000  0.00  0.00    +0.000 NA
BRANCH   8   9
ATOM      9  C   UNL     1       2.549  -0.198   0.000  0.00  0.00    +0.000 A 
ATOM     10  C   UNL     1       1.815   0.202   0.000  0.00  0.00    +0.000 A 
ATOM     11  C   UNL     1       1.817   1.029   0.000  0.00  0.00    +0.000 A 
ATOM     12  C   UNL     1       2.553   1.456   0.000  0.00  0.00    +0.000 A 
ATOM     13  C   UNL     1       3.257   1.026   0.000  0.00  0.00    +0.000 A 
ATOM     14  C   UNL     1       3.255   0.198   0.000  0.00  0.00    +0.000 A 
BRANCH  13  15
ATOM     15  C   UNL     1       3.963   1.453   0.000  0.00  0.00    +0.000 C 
ATOM     16  O   UNL     1       4.697   1.022   0.000  0.00  0.00    +0.000 OA
ATOM     17  O   UNL     1       3.965   2.249   0.000  0.00  0.00    +0.000 OA
ENDBRANCH  13  15
ENDBRANCH   8   9
ENDBRANCH   4   6
BRANCH   1  18
ATOM     18  S   UNL     1      -0.346   0.476   0.000  0.00  0.00    +0.000 S 
BRANCH  18  20
ATOM     19  C   UNL     1      -1.664  -0.198   0.000  0.00  0.00    +0.000 C 
ATOM     20  C   UNL     1      -1.174   0.476   0.000  0.00  0.00    +0.000 C 
ATOM     21  C   UNL     1      -1.664   1.119   0.000  0.00  0.00    +0.000 C 
ATOM     22  N   UNL     1      -2.430   0.047   0.000  0.00  0.00    +0.000 N 
ATOM     23  C   UNL     1      -2.430   0.874   0.000  0.00  0.00    +0.000 C 
ATOM     24  C   UNL     1      -3.288   0.874   0.000  0.00  0.00    +0.000 C 
ATOM     25  C   UNL     1      -3.288   0.047   0.000  0.00  0.00    +0.000 C 
ATOM     26  O   UNL     1      -3.839  -0.535   0.000  0.00  0.00    +0.000 OA
ATOM     27  C   UNL     1      -1.419   1.916   0.000  0.00  0.00    +0.000 C 
BRANCH  19  28
ATOM     28  C   UNL     1      -1.480  -0.995   0.000  0.00  0.00    +0.000 C 
ATOM     29  O   UNL     1      -0.714  -1.271   0.000  0.00  0.00    +0.000 OA
ATOM     30  O   UNL     1      -2.093  -1.577   0.000  0.00  0.00    +0.000 OA
ENDBRANCH  19  28
BRANCH  24  31
ATOM     31  C   UNL     1      -3.992   1.272   0.000  0.00  0.00    +0.000 C 
ATOM     32  O   UNL     1      -3.992   2.100   0.000  0.00  0.00    +0.000 OA
ATOM     33  C   UNL     1      -4.697   0.874   0.000  0.00  0.00    +0.000 C 
ENDBRANCH  24  31
ENDBRANCH  18  20
ENDBRANCH   1  18
TORSDOF 7
