REMARK  Name = 
REMARK  17 active torsions:
REMARK  status: ('A' for Active; 'I' for Inactive)
REMARK    1  A    between atoms: C_4  and  C_5
REMARK    2  A    between atoms: C_4  and  C_9
REMARK    3  A    between atoms: C_5  and  C_6
REMARK    4  A    between atoms: C_6  and  C_7
REMARK    5  A    between atoms: C_9  and  C_10
REMARK    6  A    between atoms: C_10  and  C_11
REMARK    7  A    between atoms: N_14  and  C_15
REMARK    8  A    between atoms: C_23  and  S_24
REMARK    9  A    between atoms: C_26  and  O_27
REMARK   10  A    between atoms: O_27  and  C_28
REMARK   11  A    between atoms: C_28  and  C_29
REMARK   12  A    between atoms: N_31  and  CA_32
REMARK   13  A    between atoms: CA_32  and  C_33
REMARK   14  A    between atoms: CA_32  and  C_40
REMARK   15  A    between atoms: N_42  and  CA_43
REMARK   16  A    between atoms: CA_43  and  C_44
REMARK   17  A    between atoms: CA_43  and  C_46
REMARK                            x       y       z     vdW  Elec       q    Type
REMARK                         _______ _______ _______ _____ _____    ______ ____
ROOT
ATOM      1  O   UNL     1      -2.877   1.278   0.000  0.00  0.00    +0.000 OA
ATOM      2  S   UNL     1      -2.519   0.534   0.000  0.00  0.00    +0.000 S 
ATOM      3  N   UNL     1      -3.323   0.351   0.000  0.00  0.00    +0.000 NA
ATOM      4  C   UNL     1      -3.681  -0.393   0.000  0.00  0.00    +0.000 C 
ATOM      5  C   UNL     1      -3.323  -1.136   0.000  0.00  0.00    +0.000 C 
ATOM      6  N   UNL     1      -2.519  -1.319   0.000  0.00  0.00    +0.000 N 
ATOM      7  C   UNL     1      -1.874  -0.805   0.000  0.00  0.00    +0.000 A 
ATOM      8  C   UNL     1      -1.159  -1.218   0.000  0.00  0.00    +0.000 A 
ATOM      9  C   UNL     1      -0.445  -0.805   0.000  0.00  0.00    +0.000 A 
ATOM     10  C   UNL     1      -0.445   0.020   0.000  0.00  0.00    +0.000 A 
ATOM     11  C   UNL     1      -1.159   0.432   0.000  0.00  0.00    +0.000 A 
ATOM     12  C   UNL     1      -1.874   0.020   0.000  0.00  0.00    +0.000 A 
ATOM     13  O   UNL     1      -1.874   1.049   0.000  0.00  0.00    +0.000 OA
ENDROOT
BRANCH   6  14
ATOM     14  C   UNL     1      -2.335  -2.124   0.000  0.00  0.00    +0.000 A 
ATOM     15  C   UNL     1      -1.547  -2.367   0.000  0.00  0.00    +0.000 A 
ATOM     16  C   UNL     1      -1.363  -3.171   0.000  0.00  0.00    +0.000 A 
ATOM     17  C   UNL     1      -1.968  -3.732   0.000  0.00  0.00    +0.000 A 
ATOM     18  C   UNL     1      -2.756  -3.489   0.000  0.00  0.00    +0.000 A 
ATOM     19  C   UNL     1      -2.940  -2.685   0.000  0.00  0.00    +0.000 A 
ENDBRANCH   6  14
BRANCH   9  20
ATOM     20  S   UNL     1       0.269  -1.218   0.000  0.00  0.00    +0.000 S 
ATOM     21  C   UNL     1       0.984  -0.805   0.000  0.00  0.00    +0.000 C 
ENDBRANCH   9  20
BRANCH   4  22
ATOM     22  C   UNL     1      -4.326   0.122   0.000  0.00  0.00    +0.000 C 
BRANCH  22  23
ATOM     23  C   UNL     1      -4.203   0.938   0.000  0.00  0.00    +0.000 C 
BRANCH  23  24
ATOM     24  C   UNL     1      -4.848   1.452   0.000  0.00  0.00    +0.000 C 
ATOM     25  C   UNL     1      -4.725   2.268   0.000  0.00  0.00    +0.000 C 
ENDBRANCH  23  24
ENDBRANCH  22  23
ENDBRANCH   4  22
BRANCH   4  26
ATOM     26  C   UNL     1      -4.326  -0.907   0.000  0.00  0.00    +0.000 C 
BRANCH  26  27
ATOM     27  C   UNL     1      -5.094  -0.605   0.000  0.00  0.00    +0.000 C 
BRANCH  27  28
ATOM     28  C   UNL     1      -5.217   0.210   0.000  0.00  0.00    +0.000 C 
ATOM     29  C   UNL     1      -5.985   0.512   0.000  0.00  0.00    +0.000 C 
ENDBRANCH  27  28
ENDBRANCH  26  27
ENDBRANCH   4  26
BRANCH  10  30
ATOM     30  O   UNL     1       0.269   0.432   0.000  0.00  0.00    +0.000 OA
BRANCH  30  31
ATOM     31  C   UNL     1       0.984   0.020   0.000  0.00  0.00    +0.000 C 
BRANCH  31  32
ATOM     32  C   UNL     1       1.698   0.432   0.000  0.00  0.00    +0.000 C 
ATOM     33  O   UNL     1       1.698   1.257   0.000  0.00  0.00    +0.000 OA
ATOM     34  N   UNL     1       2.413   0.020   0.000  0.00  0.00    +0.000 NA
BRANCH  34  35
ATOM     35  CA  UNL     1       3.127   0.432   0.000  0.00  0.00    +0.000 C 
BRANCH  35  36
ATOM     36  C   UNL     1       3.842   0.020   0.000  0.00  0.00    +0.000 A 
ATOM     37  C   UNL     1       4.556   0.432   0.000  0.00  0.00    +0.000 A 
ATOM     38  C   UNL     1       5.271   0.020   0.000  0.00  0.00    +0.000 A 
ATOM     39  C   UNL     1       5.271  -0.805   0.000  0.00  0.00    +0.000 A 
ATOM     40  O   UNL     1       5.985  -1.218   0.000  0.00  0.00    +0.000 OA
ATOM     41  C   UNL     1       4.556  -1.218   0.000  0.00  0.00    +0.000 A 
ATOM     42  C   UNL     1       3.842  -0.805   0.000  0.00  0.00    +0.000 A 
ENDBRANCH  35  36
BRANCH  35  43
ATOM     43  C   UNL     1       3.127   1.257   0.000  0.00  0.00    +0.000 C 
ATOM     44  O   UNL     1       2.413   1.670   0.000  0.00  0.00    +0.000 OA
ATOM     45  N   UNL     1       3.842   1.670   0.000  0.00  0.00    +0.000 NA
BRANCH  45  46
ATOM     46  CA  UNL     1       3.842   2.495   0.000  0.00  0.00    +0.000 C 
BRANCH  46  47
ATOM     47  C   UNL     1       4.556   2.907   0.000  0.00  0.00    +0.000 C 
ATOM     48  O   UNL     1       4.556   3.732   0.000  0.00  0.00    +0.000 OA
ATOM     49  OXT UNL     1       5.271   2.495   0.000  0.00  0.00    +0.000 OA
ENDBRANCH  46  47
BRANCH  46  50
ATOM     50  C   UNL     1       3.127   2.907   0.000  0.00  0.00    +0.000 C 
ATOM     51  C   UNL     1       2.413   2.495   0.000  0.00  0.00    +0.000 C 
ENDBRANCH  46  50
ENDBRANCH  45  46
ENDBRANCH  35  43
ENDBRANCH  34  35
ENDBRANCH  31  32
ENDBRANCH  30  31
ENDBRANCH  10  30
TORSDOF 17
