REMARK  Name = 
REMARK  5 active torsions:
REMARK  status: ('A' for Active; 'I' for Inactive)
REMARK    1  A    between atoms: C_2  and  N_3
REMARK    2  A    between atoms: C_2  and  C_27
REMARK    3  A    between atoms: N_3  and  C_4
REMARK    4  A    between atoms: C_10  and  N_18
REMARK    5  A    between atoms: C_19  and  C_24
REMARK                            x       y       z     vdW  Elec       q    Type
REMARK                         _______ _______ _______ _____ _____    ______ ____
ROOT
ATOM      1  C   UNL     1       0.386  -1.028   0.000  0.00  0.00    +0.000 A 
ATOM      2  C   UNL     1       0.875  -0.363   0.000  0.00  0.00    +0.000 A 
ATOM      3  C   UNL     1       1.695  -0.455   0.000  0.00  0.00    +0.000 A 
ATOM      4  C   UNL     1       2.026  -1.210   0.000  0.00  0.00    +0.000 A 
ATOM      5  C   UNL     1       2.850  -1.178   0.000  0.00  0.00    +0.000 A 
ATOM      6  N   UNL     1       3.278  -0.472   0.000  0.00  0.00    +0.000 NA
ATOM      7  C   UNL     1       4.081  -0.660   0.000  0.00  0.00    +0.000 A 
ATOM      8  C   UNL     1       4.150  -1.483   0.000  0.00  0.00    +0.000 A 
ATOM      9  N   UNL     1       3.390  -1.802   0.000  0.00  0.00    +0.000 N 
ATOM     10  C   UNL     1       3.238  -2.613   0.000  0.00  0.00    +0.000 C 
ATOM     11  C   UNL     1       2.509  -3.000   0.000  0.00  0.00    +0.000 C 
ATOM     12  O   UNL     1       1.752  -2.671   0.000  0.00  0.00    +0.000 OA
ATOM     13  C   UNL     1       1.537  -1.875   0.000  0.00  0.00    +0.000 A 
ATOM     14  C   UNL     1       0.717  -1.784   0.000  0.00  0.00    +0.000 A 
ENDROOT
BRANCH   7  15
ATOM     15  N   UNL     1       4.705  -0.121   0.000  0.00  0.00    +0.000 N 
ATOM     16  C   UNL     1       4.636   0.701   0.000  0.00  0.00    +0.000 C 
ATOM     17  C   UNL     1       5.397   1.021   0.000  0.00  0.00    +0.000 C 
ATOM     18  O   UNL     1       5.936   0.396   0.000  0.00  0.00    +0.000 OA
ATOM     19  C   UNL     1       5.509  -0.310   0.000  0.00  0.00    +0.000 C 
ATOM     20  O   UNL     1       5.829  -1.070   0.000  0.00  0.00    +0.000 OA
BRANCH  16  21
ATOM     21  C   UNL     1       3.930   1.128   0.000  0.00  0.00    +0.000 C 
ATOM     22  F   UNL     1       3.948   1.953   0.000  0.00  0.00    +0.000 F 
ATOM     23  F   UNL     1       3.208   0.731   0.000  0.00  0.00    +0.000 F 
ENDBRANCH  16  21
ENDBRANCH   7  15
BRANCH   1  24
ATOM     24  N   UNL     1      -0.434  -0.937   0.000  0.00  0.00    +0.000 NA
BRANCH  24  26
ATOM     25  C   UNL     1      -0.591  -2.357   0.000  0.00  0.00    +0.000 C 
ATOM     26  C   UNL     1      -0.923  -1.602   0.000  0.00  0.00    +0.000 C 
BRANCH  26  27
ATOM     27  C   UNL     1      -1.742  -1.511   0.000  0.00  0.00    +0.000 C 
ATOM     28  N   UNL     1      -2.231  -2.175   0.000  0.00  0.00    +0.000 NA
ATOM     29  O   UNL     1      -2.074  -0.755   0.000  0.00  0.00    +0.000 OA
ENDBRANCH  26  27
ENDBRANCH  24  26
ENDBRANCH   1  24
TORSDOF 5
