REMARK  Name = 
REMARK  4 active torsions:
REMARK  status: ('A' for Active; 'I' for Inactive)
REMARK    1  A    between atoms: C_3  and  C_27
REMARK    2  A    between atoms: C_5  and  C_7
REMARK    3  A    between atoms: C_7  and  C_18
REMARK    4  A    between atoms: C_22  and  C_24
REMARK                            x       y       z     vdW  Elec       q    Type
REMARK                         _______ _______ _______ _____ _____    ______ ____
ROOT
ATOM      1  C   UNL     1       1.139  -0.030   0.000  0.00  0.00    +0.000 C 
ATOM      2  C   UNL     1       1.923  -0.285   0.000  0.00  0.00    +0.000 A 
ATOM      3  C   UNL     1       2.638   0.127   0.000  0.00  0.00    +0.000 A 
ATOM      4  C   UNL     1       3.352  -0.285   0.000  0.00  0.00    +0.000 A 
ATOM      5  C   UNL     1       3.352  -1.110   0.000  0.00  0.00    +0.000 A 
ATOM      6  C   UNL     1       2.638  -1.523   0.000  0.00  0.00    +0.000 A 
ATOM      7  C   UNL     1       1.923  -1.110   0.000  0.00  0.00    +0.000 A 
ATOM      8  C   UNL     1       1.139  -1.365   0.000  0.00  0.00    +0.000 C 
ATOM      9  N   UNL     1       0.654  -0.698   0.000  0.00  0.00    +0.000 NA
ATOM     10  N   UNL     1       0.884  -2.150   0.000  0.00  0.00    +0.000 NA
ATOM     11  F   UNL     1       2.638  -2.348   0.000  0.00  0.00    +0.000 F 
ENDROOT
BRANCH   1  16
ATOM     12  C   UNL     1      -1.005   0.382   0.000  0.00  0.00    +0.000 A 
ATOM     13  C   UNL     1      -1.005   1.207   0.000  0.00  0.00    +0.000 A 
ATOM     14  C   UNL     1      -0.290   1.619   0.000  0.00  0.00    +0.000 A 
ATOM     15  C   UNL     1       0.424   1.207   0.000  0.00  0.00    +0.000 A 
ATOM     16  C   UNL     1       0.424   0.382   0.000  0.00  0.00    +0.000 A 
ATOM     17  C   UNL     1      -0.290  -0.030   0.000  0.00  0.00    +0.000 A 
BRANCH  14  18
ATOM     18  C   UNL     1      -0.290   2.445   0.000  0.00  0.00    +0.000 A 
ATOM     19  C   UNL     1      -1.005   2.857   0.000  0.00  0.00    +0.000 A 
ATOM     20  N   UNL     1      -1.005   3.682   0.000  0.00  0.00    +0.000 NA
ATOM     21  C   UNL     1      -0.290   4.095   0.000  0.00  0.00    +0.000 A 
ATOM     22  N   UNL     1       0.424   3.682   0.000  0.00  0.00    +0.000 NA
ATOM     23  C   UNL     1       0.424   2.857   0.000  0.00  0.00    +0.000 A 
ENDBRANCH  14  18
ENDBRANCH   1  16
BRANCH   1  24
ATOM     24  C   UNL     1       1.474   0.723   0.000  0.00  0.00    +0.000 A 
ATOM     25  C   UNL     1       0.989   1.391   0.000  0.00  0.00    +0.000 A 
ATOM     26  C   UNL     1       1.325   2.144   0.000  0.00  0.00    +0.000 A 
ATOM     27  N   UNL     1       2.145   2.231   0.000  0.00  0.00    +0.000 NA
ATOM     28  C   UNL     1       2.630   1.563   0.000  0.00  0.00    +0.000 A 
ATOM     29  C   UNL     1       2.295   0.809   0.000  0.00  0.00    +0.000 A 
BRANCH  28  30
ATOM     30  C   UNL     1       3.451   1.649   0.000  0.00  0.00    +0.000 C 
ATOM     31  F   UNL     1       3.786   2.403   0.000  0.00  0.00    +0.000 F 
ATOM     32  F   UNL     1       3.936   0.982   0.000  0.00  0.00    +0.000 F 
ENDBRANCH  28  30
ENDBRANCH   1  24
TORSDOF 4
