REMARK  Name = 
REMARK  7 active torsions:
REMARK  status: ('A' for Active; 'I' for Inactive)
REMARK    1  A    between atoms: C_2  and  O_5
REMARK    2  A    between atoms: O_5  and  C_6
REMARK    3  A    between atoms: C_6  and  C_7
REMARK    4  A    between atoms: C_14  and  C_16
REMARK    5  A    between atoms: C_16  and  C_17
REMARK    6  A    between atoms: C_17  and  C_18
REMARK    7  A    between atoms: C_18  and  C_19
REMARK                            x       y       z     vdW  Elec       q    Type
REMARK                         _______ _______ _______ _____ _____    ______ ____
ROOT
ATOM      1  C   UNL     1      -0.715  -2.888   0.000  0.00  0.00    +0.000 C 
ATOM      2  C   UNL     1      -1.429  -2.475   0.000  0.00  0.00    +0.000 C 
ATOM      3  O   UNL     1      -2.143  -2.888   0.000  0.00  0.00    +0.000 OA
ATOM      4  N   UNL     1      -1.429  -1.650   0.000  0.00  0.00    +0.000 NA
ATOM      5  C   UNL     1      -0.715  -1.238   0.000  0.00  0.00    +0.000 C 
ATOM      6  C   UNL     1       0.000  -1.650   0.000  0.00  0.00    +0.000 C 
ATOM      7  N   UNL     1       0.000  -2.475   0.000  0.00  0.00    +0.000 N 
ATOM      8  C   UNL     1       0.715  -2.888   0.000  0.00  0.00    +0.000 C 
ATOM      9  O   UNL     1       0.715  -3.712   0.000  0.00  0.00    +0.000 OA
ENDROOT
BRANCH   1  10
ATOM     10  C   UNL     1      -0.715  -3.712   0.000  0.00  0.00    +0.000 C 
BRANCH  10  11
ATOM     11  O   UNL     1      -1.429  -4.125   0.000  0.00  0.00    +0.000 OA
BRANCH  11  13
ATOM     12  C   UNL     1      -1.429  -5.775   0.000  0.00  0.00    +0.000 C 
ATOM     13  C   UNL     1      -1.429  -4.950   0.000  0.00  0.00    +0.000 C 
ATOM     14  C   UNL     1      -0.604  -4.950   0.000  0.00  0.00    +0.000 C 
ATOM     15  C   UNL     1      -2.254  -4.950   0.000  0.00  0.00    +0.000 C 
ENDBRANCH  11  13
ENDBRANCH  10  11
ENDBRANCH   1  10
BRANCH   8  16
ATOM     16  C   UNL     1       1.429  -2.475   0.000  0.00  0.00    +0.000 C 
BRANCH  16  17
ATOM     17  C   UNL     1       2.143  -2.888   0.000  0.00  0.00    +0.000 C 
ATOM     18  N   UNL     1       2.143  -3.712   0.000  0.00  0.00    +0.000 NA
BRANCH  17  19
ATOM     19  C   UNL     1       2.858  -2.475   0.000  0.00  0.00    +0.000 C 
BRANCH  19  20
ATOM     20  C   UNL     1       3.572  -2.888   0.000  0.00  0.00    +0.000 A 
ATOM     21  C   UNL     1       4.287  -2.475   0.000  0.00  0.00    +0.000 A 
ATOM     22  C   UNL     1       5.001  -2.888   0.000  0.00  0.00    +0.000 A 
ATOM     23  C   UNL     1       5.001  -3.712   0.000  0.00  0.00    +0.000 A 
ATOM     24  C   UNL     1       4.287  -4.125   0.000  0.00  0.00    +0.000 A 
ATOM     25  C   UNL     1       3.572  -3.712   0.000  0.00  0.00    +0.000 A 
ATOM     26  F   UNL     1       2.858  -4.125   0.000  0.00  0.00    +0.000 F 
ATOM     27  F   UNL     1       5.716  -4.125   0.000  0.00  0.00    +0.000 F 
ATOM     28  F   UNL     1       5.716  -2.475   0.000  0.00  0.00    +0.000 F 
ENDBRANCH  19  20
ENDBRANCH  17  19
ENDBRANCH  16  17
ENDBRANCH   8  16
TORSDOF 7
