REMARK  Name = 
REMARK  8 active torsions:
REMARK  status: ('A' for Active; 'I' for Inactive)
REMARK    1  A    between atoms: C_3  and  N_7
REMARK    2  A    between atoms: C_6  and  N_25
REMARK    3  A    between atoms: N_7  and  C_8
REMARK    4  A    between atoms: C_8  and  C_10
REMARK    5  A    between atoms: C_22  and  C_37
REMARK    6  A    between atoms: C_26  and  C_29
REMARK    7  A    between atoms: C_29  and  N_30
REMARK    8  A    between atoms: C_37  and  O_39
REMARK                            x       y       z     vdW  Elec       q    Type
REMARK                         _______ _______ _______ _____ _____    ______ ____
ROOT
ATOM      1  C   UNL     1      -1.316   0.351   0.000  0.00  0.00    +0.000 C 
ATOM      2  C   UNL     1      -2.059   0.722   0.000  0.00  0.00    +0.000 C 
ATOM      3  C   UNL     1      -2.183   1.547   0.000  0.00  0.00    +0.000 C 
ATOM      4  N   UNL     1      -3.008   1.712   0.000  0.00  0.00    +0.000 NA
ATOM      5  C   UNL     1      -3.420   0.970   0.000  0.00  0.00    +0.000 A 
ATOM      6  C   UNL     1      -2.843   0.351   0.000  0.00  0.00    +0.000 A 
ATOM      7  O   UNL     1      -1.605   2.125   0.000  0.00  0.00    +0.000 OA
ATOM      8  C   UNL     1      -4.204   0.763   0.000  0.00  0.00    +0.000 A 
ATOM      9  C   UNL     1      -4.452  -0.021   0.000  0.00  0.00    +0.000 A 
ATOM     10  C   UNL     1      -3.874  -0.639   0.000  0.00  0.00    +0.000 A 
ATOM     11  C   UNL     1      -3.049  -0.433   0.000  0.00  0.00    +0.000 A 
ENDROOT
BRANCH   1  12
ATOM     12  C   UNL     1      -1.316  -0.474   0.000  0.00  0.00    +0.000 A 
ATOM     13  C   UNL     1      -2.018  -0.887   0.000  0.00  0.00    +0.000 A 
ATOM     14  C   UNL     1      -2.018  -1.712   0.000  0.00  0.00    +0.000 A 
ATOM     15  C   UNL     1      -1.316  -2.125   0.000  0.00  0.00    +0.000 A 
ATOM     16  C   UNL     1      -0.574  -1.712   0.000  0.00  0.00    +0.000 A 
ATOM     17  C   UNL     1      -0.574  -0.887   0.000  0.00  0.00    +0.000 A 
ENDBRANCH   1  12
BRANCH   9  18
ATOM     18  C   UNL     1      -5.255  -0.202   0.000  0.00  0.00    +0.000 C 
ATOM     19  O   UNL     1      -5.500  -0.989   0.000  0.00  0.00    +0.000 OA
BRANCH  18  20
ATOM     20  O   UNL     1      -5.814   0.402   0.000  0.00  0.00    +0.000 OA
ATOM     21  C   UNL     1      -6.618   0.221   0.000  0.00  0.00    +0.000 C 
ENDBRANCH  18  20
ENDBRANCH   9  18
BRANCH   1  22
ATOM     22  N   UNL     1      -0.656   0.804   0.000  0.00  0.00    +0.000 NA
BRANCH  22  25
ATOM     23  C   UNL     1       1.489   0.433   0.000  0.00  0.00    +0.000 A 
ATOM     24  C   UNL     1       0.746   0.846   0.000  0.00  0.00    +0.000 A 
ATOM     25  C   UNL     1       0.045   0.433   0.000  0.00  0.00    +0.000 A 
ATOM     26  C   UNL     1       0.045  -0.392   0.000  0.00  0.00    +0.000 A 
ATOM     27  C   UNL     1       0.746  -0.804   0.000  0.00  0.00    +0.000 A 
ATOM     28  C   UNL     1       1.489  -0.392   0.000  0.00  0.00    +0.000 A 
BRANCH  28  29
ATOM     29  N   UNL     1       2.291  -0.870   0.000  0.00  0.00    +0.000 N 
ATOM     30  C   UNL     1       3.010  -0.468   0.000  0.00  0.00    +0.000 C 
ATOM     31  C   UNL     1       2.279  -1.694   0.000  0.00  0.00    +0.000 C 
ATOM     32  O   UNL     1       3.021   0.334   0.000  0.00  0.00    +0.000 OA
BRANCH  30  33
ATOM     33  C   UNL     1       3.726  -0.894   0.000  0.00  0.00    +0.000 C 
BRANCH  33  34
ATOM     34  N   UNL     1       4.453  -0.488   0.000  0.00  0.00    +0.000 NA
ATOM     35  C   UNL     1       4.464   0.318   0.000  0.00  0.00    +0.000 C 
ATOM     36  C   UNL     1       5.183   0.720   0.000  0.00  0.00    +0.000 C 
ATOM     37  N   UNL     1       5.891   0.298   0.000  0.00  0.00    +0.000 NA
ATOM     38  C   UNL     1       5.879  -0.508   0.000  0.00  0.00    +0.000 C 
ATOM     39  C   UNL     1       5.160  -0.910   0.000  0.00  0.00    +0.000 C 
ATOM     40  C   UNL     1       6.618   0.705   0.000  0.00  0.00    +0.000 C 
ENDBRANCH  33  34
ENDBRANCH  30  33
ENDBRANCH  28  29
ENDBRANCH  22  25
ENDBRANCH   1  22
TORSDOF 8
