REMARK  Name = 
REMARK  5 active torsions:
REMARK  status: ('A' for Active; 'I' for Inactive)
REMARK    1  A    between atoms: C_2  and  C_3
REMARK    2  A    between atoms: C_2  and  N_9
REMARK    3  A    between atoms: C_10  and  C_12
REMARK    4  A    between atoms: C_12  and  C_21
REMARK    5  A    between atoms: C_13  and  C_14
REMARK                            x       y       z     vdW  Elec       q    Type
REMARK                         _______ _______ _______ _____ _____    ______ ____
ROOT
ATOM      1  N   UNL     1       4.287  -2.475   0.000  0.00  0.00    +0.000 NA
ATOM      2  C   UNL     1       4.287  -1.650   0.000  0.00  0.00    +0.000 C 
ATOM      3  O   UNL     1       3.572  -1.238   0.000  0.00  0.00    +0.000 OA
ENDROOT
BRANCH   1   5
ATOM      4  C   UNL     1       2.858  -2.475   0.000  0.00  0.00    +0.000 C 
ATOM      5  C   UNL     1       3.572  -2.888   0.000  0.00  0.00    +0.000 C 
BRANCH   5   6
ATOM      6  C   UNL     1       3.572  -3.712   0.000  0.00  0.00    +0.000 A 
ATOM      7  C   UNL     1       4.287  -4.125   0.000  0.00  0.00    +0.000 A 
ATOM      8  C   UNL     1       4.287  -4.950   0.000  0.00  0.00    +0.000 A 
ATOM      9  C   UNL     1       3.572  -5.362   0.000  0.00  0.00    +0.000 A 
ATOM     10  C   UNL     1       2.858  -4.950   0.000  0.00  0.00    +0.000 A 
ATOM     11  C   UNL     1       2.858  -4.125   0.000  0.00  0.00    +0.000 A 
ENDBRANCH   5   6
ENDBRANCH   1   5
BRANCH   2  12
ATOM     12  C   UNL     1       5.001  -1.238   0.000  0.00  0.00    +0.000 C 
ATOM     13  C   UNL     1       5.001  -0.412   0.000  0.00  0.00    +0.000 C 
BRANCH  13  14
ATOM     14  C   UNL     1       5.716   0.000   0.000  0.00  0.00    +0.000 A 
ATOM     15  C   UNL     1       5.716   0.825   0.000  0.00  0.00    +0.000 A 
ATOM     16  C   UNL     1       6.430   1.238   0.000  0.00  0.00    +0.000 A 
ATOM     17  C   UNL     1       7.145   0.825   0.000  0.00  0.00    +0.000 A 
ATOM     18  C   UNL     1       7.145   0.000   0.000  0.00  0.00    +0.000 A 
ATOM     19  N   UNL     1       6.430  -0.412   0.000  0.00  0.00    +0.000 NA
ATOM     20 BR   UNL     1       7.859  -0.412   0.000  0.00  0.00    +0.000 Br
ENDBRANCH  13  14
BRANCH  12  21
ATOM     21  C   UNL     1       5.716  -1.650   0.000  0.00  0.00    +0.000 C 
ATOM     22  N   UNL     1       6.430  -2.062   0.000  0.00  0.00    +0.000 NA
ENDBRANCH  12  21
ENDBRANCH   2  12
TORSDOF 5
