REMARK  Name = 
REMARK  3 active torsions:
REMARK  status: ('A' for Active; 'I' for Inactive)
REMARK    1  A    between atoms: C_6  and  N_7
REMARK    2  A    between atoms: N_10  and  S_11
REMARK    3  A    between atoms: S_11  and  C_14
REMARK                            x       y       z     vdW  Elec       q    Type
REMARK                         _______ _______ _______ _____ _____    ______ ____
ROOT
ATOM      1  N   UNL     1       6.210   2.760   0.000  0.00  0.00    +0.000 NA
ATOM      2  C   UNL     1       5.496   2.348   0.000  0.00  0.00    +0.000 C 
ATOM      3  O   UNL     1       5.496   1.523   0.000  0.00  0.00    +0.000 OA
ATOM      4  N   UNL     1       4.781   2.760   0.000  0.00  0.00    +0.000 NA
ENDROOT
BRANCH   1  10
ATOM      5  C   UNL     1       7.639   2.760   0.000  0.00  0.00    +0.000 A 
ATOM      6  C   UNL     1       8.354   2.348   0.000  0.00  0.00    +0.000 A 
ATOM      7  C   UNL     1       8.354   1.523   0.000  0.00  0.00    +0.000 A 
ATOM      8  C   UNL     1       7.639   1.110   0.000  0.00  0.00    +0.000 A 
ATOM      9  C   UNL     1       6.925   1.523   0.000  0.00  0.00    +0.000 A 
ATOM     10  C   UNL     1       6.925   2.348   0.000  0.00  0.00    +0.000 A 
ATOM     11 CL   UNL     1       7.639   0.285   0.000  0.00  0.00    +0.000 Cl
ATOM     12 CL   UNL     1       9.068   1.110   0.000  0.00  0.00    +0.000 Cl
ENDBRANCH   1  10
BRANCH   4  13
ATOM     13  S   UNL     1       4.067   2.348   0.000  0.00  0.00    +0.000 S 
ATOM     14  O   UNL     1       4.479   1.633   0.000  0.00  0.00    +0.000 OA
ATOM     15  O   UNL     1       3.654   3.062   0.000  0.00  0.00    +0.000 OA
BRANCH  13  16
ATOM     16  C   UNL     1       3.352   1.935   0.000  0.00  0.00    +0.000 A 
ATOM     17  C   UNL     1       3.352   1.110   0.000  0.00  0.00    +0.000 A 
ATOM     18  C   UNL     1       2.638   0.698   0.000  0.00  0.00    +0.000 A 
ATOM     19  C   UNL     1       1.923   1.110   0.000  0.00  0.00    +0.000 A 
ATOM     20  C   UNL     1       1.923   1.935   0.000  0.00  0.00    +0.000 A 
ATOM     21  C   UNL     1       2.638   2.348   0.000  0.00  0.00    +0.000 A 
ATOM     22  C   UNL     1       1.139   2.190   0.000  0.00  0.00    +0.000 C 
ATOM     23  C   UNL     1       0.654   1.523   0.000  0.00  0.00    +0.000 C 
ATOM     24  O   UNL     1       1.139   0.856   0.000  0.00  0.00    +0.000 OA
ENDBRANCH  13  16
ENDBRANCH   4  13
TORSDOF 3
