REMARK  Name = 
REMARK  19 active torsions:
REMARK  status: ('A' for Active; 'I' for Inactive)
REMARK    1  A    between atoms: C_2  and  C_24
REMARK    2  A    between atoms: N_3  and  C_4
REMARK    3  A    between atoms: C_6  and  C_7
REMARK    4  A    between atoms: N_8  and  N_9
REMARK    5  A    between atoms: C_15  and  C_16
REMARK    6  A    between atoms: N_17  and  N_18
REMARK    7  A    between atoms: C_24  and  C_25
REMARK    8  A    between atoms: C_25  and  C_26
REMARK    9  A    between atoms: C_26  and  C_27
REMARK   10  A    between atoms: C_27  and  C_28
REMARK   11  A    between atoms: C_28  and  C_29
REMARK   12  A    between atoms: C_29  and  C_30
REMARK   13  A    between atoms: C_30  and  C_31
REMARK   14  A    between atoms: C_31  and  C_32
REMARK   15  A    between atoms: N_34  and  C_35
REMARK   16  A    between atoms: C_37  and  C_38
REMARK   17  A    between atoms: N_39  and  N_40
REMARK   18  A    between atoms: C_46  and  C_47
REMARK   19  A    between atoms: N_48  and  N_49
REMARK                            x       y       z     vdW  Elec       q    Type
REMARK                         _______ _______ _______ _____ _____    ______ ____
ROOT
ATOM      1  C   UNL     1       0.360  -1.095   0.000  0.00  0.00    +0.000 C 
ENDROOT
BRANCH   1   2
ATOM      2  C   UNL     1       1.070  -1.507   0.000  0.00  0.00    +0.000 C 
BRANCH   2   3
ATOM      3  C   UNL     1       1.785  -1.095   0.000  0.00  0.00    +0.000 C 
BRANCH   3   4
ATOM      4  C   UNL     1       2.500  -1.507   0.000  0.00  0.00    +0.000 C 
BRANCH   4   6
ATOM      5  O   UNL     1       3.215  -0.272   0.000  0.00  0.00    +0.000 OA
ATOM      6  C   UNL     1       3.215  -1.095   0.000  0.00  0.00    +0.000 C 
ATOM      7  N   UNL     1       3.930  -1.507   0.000  0.00  0.00    +0.000 NA
BRANCH   7   8
ATOM      8  C   UNL     1       4.640  -1.095   0.000  0.00  0.00    +0.000 A 
ATOM      9  C   UNL     1       4.640  -0.272   0.000  0.00  0.00    +0.000 A 
ATOM     10  C   UNL     1       5.355   0.140   0.000  0.00  0.00    +0.000 A 
ATOM     11  C   UNL     1       6.070  -0.272   0.000  0.00  0.00    +0.000 A 
ATOM     12  C   UNL     1       6.070  -1.095   0.000  0.00  0.00    +0.000 A 
ATOM     13  C   UNL     1       5.355  -1.507   0.000  0.00  0.00    +0.000 A 
BRANCH  10  14
ATOM     14  C   UNL     1       5.355   0.964   0.000  0.00  0.00    +0.000 C 
ATOM     15  N   UNL     1       4.640   1.381   0.000  0.00  0.00    +0.000 NA
ATOM     16  C   UNL     1       6.070   1.381   0.000  0.00  0.00    +0.000 C 
BRANCH  15  17
ATOM     17  N   UNL     1       4.640   2.204   0.000  0.00  0.00    +0.000 NA
ATOM     18  C   UNL     1       3.930   2.616   0.000  0.00  0.00    +0.000 C 
ATOM     19  N   UNL     1       3.215   2.204   0.000  0.00  0.00    +0.000 NA
ATOM     20  N   UNL     1       3.930   3.440   0.000  0.00  0.00    +0.000 NA
ENDBRANCH  15  17
ENDBRANCH  10  14
BRANCH  12  21
ATOM     21  C   UNL     1       6.785  -1.507   0.000  0.00  0.00    +0.000 C 
ATOM     22  N   UNL     1       6.785  -2.331   0.000  0.00  0.00    +0.000 NA
ATOM     23  C   UNL     1       7.500  -1.095   0.000  0.00  0.00    +0.000 C 
BRANCH  22  24
ATOM     24  N   UNL     1       7.500  -2.743   0.000  0.00  0.00    +0.000 NA
ATOM     25  C   UNL     1       7.500  -3.571   0.000  0.00  0.00    +0.000 C 
ATOM     26  N   UNL     1       6.785  -3.983   0.000  0.00  0.00    +0.000 NA
ATOM     27  N   UNL     1       8.210  -3.983   0.000  0.00  0.00    +0.000 NA
ENDBRANCH  22  24
ENDBRANCH  12  21
ENDBRANCH   7   8
ENDBRANCH   4   6
ENDBRANCH   3   4
ENDBRANCH   2   3
ENDBRANCH   1   2
BRANCH   1  28
ATOM     28  C   UNL     1      -0.355  -1.507   0.000  0.00  0.00    +0.000 C 
BRANCH  28  29
ATOM     29  C   UNL     1      -1.070  -1.095   0.000  0.00  0.00    +0.000 C 
BRANCH  29  30
ATOM     30  C   UNL     1      -1.785  -1.507   0.000  0.00  0.00    +0.000 C 
BRANCH  30  31
ATOM     31  C   UNL     1      -2.500  -1.095   0.000  0.00  0.00    +0.000 C 
BRANCH  31  32
ATOM     32  C   UNL     1      -3.215  -1.507   0.000  0.00  0.00    +0.000 C 
ATOM     33  O   UNL     1      -3.215  -2.331   0.000  0.00  0.00    +0.000 OA
ATOM     34  N   UNL     1      -3.925  -1.095   0.000  0.00  0.00    +0.000 NA
BRANCH  34  35
ATOM     35  C   UNL     1      -4.640  -1.507   0.000  0.00  0.00    +0.000 A 
ATOM     36  C   UNL     1      -4.640  -2.331   0.000  0.00  0.00    +0.000 A 
ATOM     37  C   UNL     1      -5.355  -2.743   0.000  0.00  0.00    +0.000 A 
ATOM     38  C   UNL     1      -6.070  -2.331   0.000  0.00  0.00    +0.000 A 
ATOM     39  C   UNL     1      -6.070  -1.507   0.000  0.00  0.00    +0.000 A 
ATOM     40  C   UNL     1      -5.355  -1.095   0.000  0.00  0.00    +0.000 A 
BRANCH  39  41
ATOM     41  C   UNL     1      -6.785  -1.095   0.000  0.00  0.00    +0.000 C 
ATOM     42  N   UNL     1      -6.785  -0.272   0.000  0.00  0.00    +0.000 NA
ATOM     43  C   UNL     1      -7.500  -1.507   0.000  0.00  0.00    +0.000 C 
BRANCH  42  44
ATOM     44  N   UNL     1      -7.500   0.140   0.000  0.00  0.00    +0.000 NA
ATOM     45  C   UNL     1      -7.500   0.964   0.000  0.00  0.00    +0.000 C 
ATOM     46  N   UNL     1      -6.785   1.381   0.000  0.00  0.00    +0.000 NA
ATOM     47  N   UNL     1      -8.210   1.381   0.000  0.00  0.00    +0.000 NA
ENDBRANCH  42  44
ENDBRANCH  39  41
BRANCH  37  48
ATOM     48  C   UNL     1      -5.355  -3.571   0.000  0.00  0.00    +0.000 C 
ATOM     49  N   UNL     1      -4.640  -3.983   0.000  0.00  0.00    +0.000 NA
ATOM     50  C   UNL     1      -6.070  -3.983   0.000  0.00  0.00    +0.000 C 
BRANCH  49  51
ATOM     51  N   UNL     1      -4.640  -4.807   0.000  0.00  0.00    +0.000 NA
ATOM     52  C   UNL     1      -3.925  -5.219   0.000  0.00  0.00    +0.000 C 
ATOM     53  N   UNL     1      -3.215  -4.807   0.000  0.00  0.00    +0.000 NA
ATOM     54  N   UNL     1      -3.925  -6.043   0.000  0.00  0.00    +0.000 NA
ENDBRANCH  49  51
ENDBRANCH  37  48
ENDBRANCH  34  35
ENDBRANCH  31  32
ENDBRANCH  30  31
ENDBRANCH  29  30
ENDBRANCH  28  29
ENDBRANCH   1  28
TORSDOF 19
