REMARK  Name = 
REMARK  10 active torsions:
REMARK  status: ('A' for Active; 'I' for Inactive)
REMARK    1  A    between atoms: C_2  and  O_3
REMARK    2  A    between atoms: C_2  and  C_26
REMARK    3  A    between atoms: C_2  and  C_30
REMARK    4  A    between atoms: O_3  and  C_4
REMARK    5  A    between atoms: C_6  and  C_7
REMARK    6  A    between atoms: C_13  and  O_14
REMARK    7  A    between atoms: O_14  and  C_15
REMARK    8  A    between atoms: C_26  and  C_28
REMARK    9  A    between atoms: C_30  and  C_32
REMARK   10  A    between atoms: C_32  and  C_34
REMARK                            x       y       z     vdW  Elec       q    Type
REMARK                         _______ _______ _______ _____ _____    ______ ____
ROOT
ATOM      1  C   UNL     1       0.000  -2.475   0.000  0.00  0.00    +0.000 C 
ATOM      2  O   UNL     1      -0.715  -2.888   0.000  0.00  0.00    +0.000 OA
ATOM      3  C   UNL     1      -1.429  -2.475   0.000  0.00  0.00    +0.000 C 
ATOM      4  C   UNL     1      -1.429  -1.650   0.000  0.00  0.00    +0.000 C 
ATOM      5  O   UNL     1      -2.143  -1.238   0.000  0.00  0.00    +0.000 OA
ATOM      6  C   UNL     1      -0.715  -1.238   0.000  0.00  0.00    +0.000 C 
ATOM      7  O   UNL     1      -0.715  -0.412   0.000  0.00  0.00    +0.000 OA
ATOM      8  C   UNL     1       0.000  -1.650   0.000  0.00  0.00    +0.000 C 
ENDROOT
BRANCH   3   9
ATOM      9  C   UNL     1      -2.143  -2.888   0.000  0.00  0.00    +0.000 C 
ATOM     10  O   UNL     1      -2.858  -2.475   0.000  0.00  0.00    +0.000 OA
ENDBRANCH   3   9
BRANCH   1  11
ATOM     11  O   UNL     1       0.715  -2.888   0.000  0.00  0.00    +0.000 OA
BRANCH  11  12
ATOM     12  C   UNL     1       0.715  -3.712   0.000  0.00  0.00    +0.000 C 
BRANCH  12  13
ATOM     13  C   UNL     1       1.429  -4.125   0.000  0.00  0.00    +0.000 C 
ATOM     14  O   UNL     1       1.429  -4.950   0.000  0.00  0.00    +0.000 OA
BRANCH  13  15
ATOM     15  C   UNL     1       2.143  -3.712   0.000  0.00  0.00    +0.000 C 
ATOM     16  O   UNL     1       2.143  -2.888   0.000  0.00  0.00    +0.000 OA
BRANCH  15  17
ATOM     17  C   UNL     1       2.858  -4.125   0.000  0.00  0.00    +0.000 C 
ATOM     18  O   UNL     1       3.572  -3.712   0.000  0.00  0.00    +0.000 OA
ENDBRANCH  15  17
ENDBRANCH  13  15
ENDBRANCH  12  13
BRANCH  12  19
ATOM     19  C   UNL     1       0.000  -4.125   0.000  0.00  0.00    +0.000 C 
ATOM     20  O   UNL     1      -0.715  -3.712   0.000  0.00  0.00    +0.000 OA
BRANCH  19  21
ATOM     21  C   UNL     1       0.000  -4.950   0.000  0.00  0.00    +0.000 C 
ATOM     22  O   UNL     1      -0.715  -5.362   0.000  0.00  0.00    +0.000 OA
ENDBRANCH  19  21
ENDBRANCH  12  19
ENDBRANCH  11  12
ENDBRANCH   1  11
BRANCH   8  23
ATOM     23  O   UNL     1       0.715  -1.238   0.000  0.00  0.00    +0.000 OA
BRANCH  23  24
ATOM     24  C   UNL     1       0.715  -0.412   0.000  0.00  0.00    +0.000 C 
ATOM     25  O   UNL     1       0.000   0.000   0.000  0.00  0.00    +0.000 OA
ATOM     26  C   UNL     1       0.000   0.825   0.000  0.00  0.00    +0.000 C 
ATOM     27  C   UNL     1      -0.715   1.238   0.000  0.00  0.00    +0.000 C 
ATOM     28  C   UNL     1       0.715   1.238   0.000  0.00  0.00    +0.000 C 
ATOM     29  O   UNL     1       0.715   2.062   0.000  0.00  0.00    +0.000 OA
ATOM     30  C   UNL     1       1.429   0.825   0.000  0.00  0.00    +0.000 C 
ATOM     31  O   UNL     1       2.143   1.238   0.000  0.00  0.00    +0.000 OA
ATOM     32  C   UNL     1       1.429   0.000   0.000  0.00  0.00    +0.000 C 
ATOM     33  O   UNL     1       2.143  -0.412   0.000  0.00  0.00    +0.000 OA
ENDBRANCH  23  24
ENDBRANCH   8  23
TORSDOF 10
