REMARK  Name = 
REMARK  3 active torsions:
REMARK  status: ('A' for Active; 'I' for Inactive)
REMARK    1  A    between atoms: C_17  and  C_19
REMARK    2  A    between atoms: C_22  and  C_25
REMARK    3  A    between atoms: C_29  and  C_32
REMARK                            x       y       z     vdW  Elec       q    Type
REMARK                         _______ _______ _______ _____ _____    ______ ____
ROOT
ATOM      1  C   UNL     1       1.712  -1.576   0.000  0.00  0.00    +0.000 C 
ATOM      2  N   UNL     1       2.280  -0.978   0.000  0.00  0.00    +0.000 NA
ATOM      3  C   UNL     1       2.047  -0.187   0.000  0.00  0.00    +0.000 C 
ATOM      4  C   UNL     1       2.615   0.411   0.000  0.00  0.00    +0.000 C 
ATOM      5  C   UNL     1       3.417   0.217   0.000  0.00  0.00    +0.000 C 
ATOM      6  C   UNL     1       3.268   1.029   0.000  0.00  0.00    +0.000 C 
ATOM      7  O   UNL     1       3.993   1.422   0.000  0.00  0.00    +0.000 OA
ATOM      8  C   UNL     1       4.591   0.853   0.000  0.00  0.00    +0.000 A 
ATOM      9  C   UNL     1       5.414   0.917   0.000  0.00  0.00    +0.000 A 
ATOM     10  C   UNL     1       5.880   0.237   0.000  0.00  0.00    +0.000 A 
ATOM     11  C   UNL     1       5.524  -0.508   0.000  0.00  0.00    +0.000 A 
ATOM     12  C   UNL     1       4.702  -0.572   0.000  0.00  0.00    +0.000 A 
ATOM     13  C   UNL     1       4.235   0.109   0.000  0.00  0.00    +0.000 A 
ATOM     14  N   UNL     1       6.122  -1.076   0.000  0.00  0.00    +0.000 N 
ATOM     15  C   UNL     1       6.848  -0.683   0.000  0.00  0.00    +0.000 C 
ATOM     16  C   UNL     1       6.698   0.128   0.000  0.00  0.00    +0.000 C 
ATOM     17  C   UNL     1       6.014  -1.894   0.000  0.00  0.00    +0.000 C 
ATOM     18  O   UNL     1       6.668  -2.397   0.000  0.00  0.00    +0.000 OA
ATOM     19  C   UNL     1       3.651  -0.574   0.000  0.00  0.00    +0.000 C 
ATOM     20  C   UNL     1       3.083  -1.172   0.000  0.00  0.00    +0.000 C 
ENDROOT
BRANCH  17  21
ATOM     21  C   UNL     1       5.251  -2.209   0.000  0.00  0.00    +0.000 A 
ATOM     22  C   UNL     1       5.143  -3.027   0.000  0.00  0.00    +0.000 A 
ATOM     23  C   UNL     1       4.380  -3.342   0.000  0.00  0.00    +0.000 A 
ATOM     24  C   UNL     1       3.726  -2.839   0.000  0.00  0.00    +0.000 A 
ATOM     25  C   UNL     1       3.835  -2.021   0.000  0.00  0.00    +0.000 A 
ATOM     26  C   UNL     1       4.597  -1.706   0.000  0.00  0.00    +0.000 A 
BRANCH  24  27
ATOM     27  C   UNL     1       2.964  -3.154   0.000  0.00  0.00    +0.000 A 
ATOM     28  C   UNL     1       2.855  -3.972   0.000  0.00  0.00    +0.000 A 
ATOM     29  C   UNL     1       3.509  -4.474   0.000  0.00  0.00    +0.000 C 
ATOM     30  C   UNL     1       2.093  -4.287   0.000  0.00  0.00    +0.000 A 
ATOM     31  C   UNL     1       1.439  -3.784   0.000  0.00  0.00    +0.000 A 
ATOM     32  C   UNL     1       1.547  -2.966   0.000  0.00  0.00    +0.000 A 
ATOM     33  C   UNL     1       2.310  -2.651   0.000  0.00  0.00    +0.000 A 
BRANCH  31  34
ATOM     34  C   UNL     1       0.676  -4.098   0.000  0.00  0.00    +0.000 A 
ATOM     35  N   UNL     1       0.483  -4.901   0.000  0.00  0.00    +0.000 NA
ATOM     36  O   UNL     1      -0.340  -4.964   0.000  0.00  0.00    +0.000 OA
ATOM     37  C   UNL     1      -0.655  -4.202   0.000  0.00  0.00    +0.000 A 
ATOM     38  C   UNL     1      -1.457  -4.008   0.000  0.00  0.00    +0.000 C 
ATOM     39  N   UNL     1      -0.027  -3.667   0.000  0.00  0.00    +0.000 NA
ENDBRANCH  31  34
ENDBRANCH  24  27
ENDBRANCH  17  21
TORSDOF 3
