REMARK  Name = 
REMARK  4 active torsions:
REMARK  status: ('A' for Active; 'I' for Inactive)
REMARK    1  A    between atoms: C_14  and  C_15
REMARK    2  A    between atoms: C_14  and  N_27
REMARK    3  A    between atoms: C_18  and  C_23
REMARK    4  A    between atoms: C_26  and  O_30
REMARK                            x       y       z     vdW  Elec       q    Type
REMARK                         _______ _______ _______ _____ _____    ______ ____
ROOT
ATOM      1  C   UNL     1      -2.583   0.207   0.000  0.00  0.00    +0.000 A 
ATOM      2  C   UNL     1      -2.772  -0.596   0.000  0.00  0.00    +0.000 A 
ATOM      3  C   UNL     1       0.369  -0.064   0.000  0.00  0.00    +0.000 C 
ATOM      4  C   UNL     1       0.705  -0.681   0.000  0.00  0.00    +0.000 C 
ATOM      5  C   UNL     1       0.011   1.018   0.000  0.00  0.00    +0.000 C 
ATOM      6  C   UNL     1       0.206   1.832   0.000  0.00  0.00    +0.000 C 
ATOM      7  C   UNL     1      -1.348   1.144   0.000  0.00  0.00    +0.000 C 
ATOM      8  C   UNL     1       1.118   0.130   0.000  0.00  0.00    +0.000 C 
ATOM      9  C   UNL     1      -1.780   0.437   0.000  0.00  0.00    +0.000 A 
ATOM     10  C   UNL     1      -2.181  -1.165   0.000  0.00  0.00    +0.000 A 
ATOM     11  C   UNL     1       1.267  -0.759   0.000  0.00  0.00    +0.000 C 
ATOM     12  C   UNL     1      -0.513   1.103   0.000  0.00  0.00    +0.000 C 
ATOM     13  C   UNL     1      -1.125  -0.081   0.000  0.00  0.00    +0.000 A 
ATOM     14  C   UNL     1      -1.410  -0.876   0.000  0.00  0.00    +0.000 A 
ATOM     15  C   UNL     1      -0.151  -0.781   0.000  0.00  0.00    +0.000 C 
ATOM     16  C   UNL     1       0.367   0.645   0.000  0.00  0.00    +0.000 C 
ATOM     17  C   UNL     1      -0.295   0.138   0.000  0.00  0.00    +0.000 C 
ATOM     18  C   UNL     1       0.549  -1.346   0.000  0.00  0.00    +0.000 C 
ATOM     19  N   UNL     1      -0.594   1.940   0.000  0.00  0.00    +0.000 NA
ATOM     20  O   UNL     1      -2.344  -1.953   0.000  0.00  0.00    +0.000 OA
ATOM     21  O   UNL     1      -0.742  -1.351   0.000  0.00  0.00    +0.000 OA
ENDROOT
BRANCH  11  24
ATOM     22  C   UNL     1       2.772  -1.326   0.000  0.00  0.00    +0.000 C 
ATOM     23  C   UNL     1       1.736  -1.795   0.000  0.00  0.00    +0.000 C 
ATOM     24  C   UNL     1       2.019  -1.043   0.000  0.00  0.00    +0.000 C 
ATOM     25  O   UNL     1       2.303  -0.290   0.000  0.00  0.00    +0.000 OA
ENDBRANCH  11  24
BRANCH  18  27
ATOM     26  C   UNL     1       1.249  -2.550   0.000  0.00  0.00    +0.000 C 
ATOM     27  O   UNL     1       0.551  -2.150   0.000  0.00  0.00    +0.000 OA
ENDBRANCH  18  27
BRANCH  19  28
ATOM     28  C   UNL     1      -1.151   2.519   0.000  0.00  0.00    +0.000 C 
BRANCH  28  31
ATOM     29  C   UNL     1      -2.704   2.550   0.000  0.00  0.00    +0.000 C 
ATOM     30  C   UNL     1      -2.511   1.769   0.000  0.00  0.00    +0.000 C 
ATOM     31  C   UNL     1      -1.932   2.326   0.000  0.00  0.00    +0.000 C 
ENDBRANCH  28  31
ENDBRANCH  19  28
TORSDOF 4
