REMARK  Name = 
REMARK  6 active torsions:
REMARK  status: ('A' for Active; 'I' for Inactive)
REMARK    1  A    between atoms: C_12  and  C_13
REMARK    2  A    between atoms: C_12  and  N_18
REMARK    3  A    between atoms: C_13  and  O_19
REMARK    4  A    between atoms: C_14  and  C_15
REMARK    5  A    between atoms: C_14  and  C_16
REMARK    6  A    between atoms: C_17  and  O_19
REMARK                            x       y       z     vdW  Elec       q    Type
REMARK                         _______ _______ _______ _____ _____    ______ ____
ROOT
ATOM      1  C   UNL     1       0.000   0.000   0.000  0.00  0.00    +0.000 A 
ATOM      2  C   UNL     1       0.715  -0.412   0.000  0.00  0.00    +0.000 A 
ATOM      3  C   UNL     1       0.000   0.825   0.000  0.00  0.00    +0.000 A 
ATOM      4  C   UNL     1       1.429   0.000   0.000  0.00  0.00    +0.000 A 
ATOM      5  C   UNL     1       0.715   1.237   0.000  0.00  0.00    +0.000 A 
ATOM      6  C   UNL     1       1.429   0.825   0.000  0.00  0.00    +0.000 A 
ENDROOT
BRANCH   5   7
ATOM      7  C   UNL     1       0.715   2.062   0.000  0.00  0.00    +0.000 C 
BRANCH   7  13
ATOM      8  C   UNL     1      -1.429   3.300   0.000  0.00  0.00    +0.000 A 
ATOM      9  C   UNL     1      -1.429   2.475   0.000  0.00  0.00    +0.000 A 
ATOM     10  C   UNL     1      -0.715   3.712   0.000  0.00  0.00    +0.000 A 
ATOM     11  C   UNL     1      -0.715   2.062   0.000  0.00  0.00    +0.000 A 
ATOM     12  C   UNL     1       0.000   3.300   0.000  0.00  0.00    +0.000 A 
ATOM     13  C   UNL     1       0.000   2.475   0.000  0.00  0.00    +0.000 A 
ENDBRANCH   7  13
ENDBRANCH   5   7
BRANCH   6  14
ATOM     14  O   UNL     1       2.143   1.237   0.000  0.00  0.00    +0.000 OA
BRANCH  14  15
ATOM     15  C   UNL     1       2.858   0.825   0.000  0.00  0.00    +0.000 C 
BRANCH  15  16
ATOM     16  C   UNL     1       3.572   1.237   0.000  0.00  0.00    +0.000 C 
BRANCH  16  19
ATOM     17  C   UNL     1       5.001   1.237   0.000  0.00  0.00    +0.000 C 
ATOM     18  C   UNL     1       4.287   0.000   0.000  0.00  0.00    +0.000 C 
ATOM     19  N   UNL     1       4.287   0.825   0.000  0.00  0.00    +0.000 NA
ENDBRANCH  16  19
ENDBRANCH  15  16
ENDBRANCH  14  15
ENDBRANCH   6  14
TORSDOF 6
