REMARK  Name = 
REMARK  12 active torsions:
REMARK  status: ('A' for Active; 'I' for Inactive)
REMARK    1  A    between atoms: SG_1  and  C_12
REMARK    2  A    between atoms: SG_1  and  CB_18
REMARK    3  A    between atoms: N_9  and  CA_20
REMARK    4  A    between atoms: N_10  and  CA_33
REMARK    5  A    between atoms: N_11  and  CA_32
REMARK    6  A    between atoms: CB_18  and  CA_20
REMARK    7  A    between atoms: CA_20  and  C_28
REMARK    8  A    between atoms: C_29  and  C_30
REMARK    9  A    between atoms: C_29  and  C_31
REMARK   10  A    between atoms: C_31  and  CA_32
REMARK   11  A    between atoms: CA_32  and  C_34
REMARK   12  A    between atoms: CA_33  and  C_35
REMARK                            x       y       z     vdW  Elec       q    Type
REMARK                         _______ _______ _______ _____ _____    ______ ____
ROOT
ATOM      1  CA  UNL     1      -0.136  -0.441   0.000  0.00  0.00    +0.000 C 
ENDROOT
BRANCH   1   4
ATOM      2  O   UNL     1       0.579  -1.679   0.000  0.00  0.00    +0.000 OA
ATOM      3  N   UNL     1       1.293  -0.441   0.000  0.00  0.00    +0.000 N 
ATOM      4  C   ACE A   1       0.579  -0.854   0.000  0.00  0.00    +0.000 C 
ATOM      5  H   UNL     1       1.293   0.070   0.000  0.00  0.00    +0.000 HD
BRANCH   3   6
ATOM      6  CA  UNL     1       2.008  -0.854   0.000  0.00  0.00    +0.000 C 
BRANCH   6   9
ATOM      7  O   UNL     1       3.437  -0.854   0.000  0.00  0.00    +0.000 OA
ATOM      8  OXT UNL     1       2.722   0.384   0.000  0.00  0.00    +0.000 OA
ATOM      9  C   UNL     1       2.722  -0.441   0.000  0.00  0.00    +0.000 C 
ENDBRANCH   6   9
ENDBRANCH   3   6
ENDBRANCH   1   4
BRANCH   1  11
ATOM     10  O   UNL     1      -0.136  -2.091   0.000  0.00  0.00    +0.000 OA
ATOM     11  N   UNL     1      -0.850  -0.854   0.000  0.00  0.00    +0.000 N 
ATOM     12  C   UNL     1      -0.850  -1.679   0.000  0.00  0.00    +0.000 C 
ATOM     13  H   UNL     1      -1.293  -0.598   0.000  0.00  0.00    +0.000 HD
BRANCH  12  14
ATOM     14  C   UNL     1      -1.565  -2.091   0.000  0.00  0.00    +0.000 C 
BRANCH  14  15
ATOM     15  C   UNL     1      -1.565  -2.916   0.000  0.00  0.00    +0.000 C 
BRANCH  15  16
ATOM     16  CA  UNL     1      -2.279  -3.329   0.000  0.00  0.00    +0.000 C 
BRANCH  16  17
ATOM     17  N   UNL     1      -2.994  -2.916   0.000  0.00  0.00    +0.000 NA
ATOM     18  H1  UNL     1      -2.994  -2.405   0.000  0.00  0.00    +0.000 HD
ATOM     19  H2  UNL     1      -3.437  -3.172   0.000  0.00  0.00    +0.000 HD
ENDBRANCH  16  17
BRANCH  16  22
ATOM     20  O   UNL     1      -2.994  -4.566   0.000  0.00  0.00    +0.000 OA
ATOM     21  OXT UNL     1      -1.565  -4.566   0.000  0.00  0.00    +0.000 OA
ATOM     22  C   UNL     1      -2.279  -4.154   0.000  0.00  0.00    +0.000 C 
ENDBRANCH  16  22
ENDBRANCH  15  16
ENDBRANCH  14  15
ENDBRANCH  12  14
ENDBRANCH   1  11
BRANCH   1  23
ATOM     23  CB  UNL     1      -0.136   0.384   0.000  0.00  0.00    +0.000 C 
BRANCH  23  24
ATOM     24  SG  UNL     1      -0.850   0.796   0.000  0.00  0.00    +0.000 S 
BRANCH  24  26
ATOM     25  O   UNL     1       0.579   1.621   0.000  0.00  0.00    +0.000 OA
ATOM     26  C   UNL     1      -0.850   1.621   0.000  0.00  0.00    +0.000 C 
ATOM     27  C   UNL     1      -0.136   2.034   0.000  0.00  0.00    +0.000 C 
ATOM     28  C   UNL     1      -1.565   2.034   0.000  0.00  0.00    +0.000 A 
ATOM     29  C   UNL     1      -0.136   2.859   0.000  0.00  0.00    +0.000 A 
ATOM     30  C   UNL     1      -1.565   2.859   0.000  0.00  0.00    +0.000 A 
ATOM     31  C   UNL     1      -0.850   3.271   0.000  0.00  0.00    +0.000 A 
ATOM     32  C   UNL     1      -2.302   1.593   0.000  0.00  0.00    +0.000 A 
ATOM     33  C   UNL     1       0.615   3.277   0.000  0.00  0.00    +0.000 A 
ATOM     34  C   UNL     1      -2.302   3.300   0.000  0.00  0.00    +0.000 A 
ATOM     35  C   UNL     1      -0.863   4.131   0.000  0.00  0.00    +0.000 A 
ATOM     36  C   UNL     1      -3.050   2.017   0.000  0.00  0.00    +0.000 A 
ATOM     37  C   UNL     1      -3.050   2.876   0.000  0.00  0.00    +0.000 A 
ATOM     38  C   UNL     1       0.622   4.136   0.000  0.00  0.00    +0.000 A 
ATOM     39  C   UNL     1      -0.122   4.566   0.000  0.00  0.00    +0.000 A 
ENDBRANCH  24  26
ENDBRANCH  23  24
ENDBRANCH   1  23
TORSDOF 12
