REMARK  Name = 
REMARK  8 active torsions:
REMARK  status: ('A' for Active; 'I' for Inactive)
REMARK    1  A    between atoms: C_2  and  C_3
REMARK    2  A    between atoms: C_3  and  C_4
REMARK    3  A    between atoms: C_8  and  C_11
REMARK    4  A    between atoms: N_12  and  N_13
REMARK    5  A    between atoms: C_14  and  C_16
REMARK    6  A    between atoms: C_16  and  N_17
REMARK    7  A    between atoms: N_20  and  C_23
REMARK    8  A    between atoms: C_23  and  C_24
REMARK                            x       y       z     vdW  Elec       q    Type
REMARK                         _______ _______ _______ _____ _____    ______ ____
ROOT
ATOM      1  N   UNL     1      -6.430  -7.838   0.000  0.00  0.00    +0.000 NA
ATOM      2  C   UNL     1      -7.145  -7.425   0.000  0.00  0.00    +0.000 C 
ATOM      3  O   UNL     1      -7.145  -6.600   0.000  0.00  0.00    +0.000 OA
ENDROOT
BRANCH   1   5
ATOM      4  C   UNL     1      -5.001  -7.838   0.000  0.00  0.00    +0.000 C 
ATOM      5  N   UNL     1      -5.716  -7.425   0.000  0.00  0.00    +0.000 NA
BRANCH   4  10
ATOM      6  C   UNL     1      -3.572  -6.188   0.000  0.00  0.00    +0.000 A 
ATOM      7  C   UNL     1      -2.858  -6.600   0.000  0.00  0.00    +0.000 A 
ATOM      8  C   UNL     1      -2.858  -7.425   0.000  0.00  0.00    +0.000 A 
ATOM      9  C   UNL     1      -3.572  -7.838   0.000  0.00  0.00    +0.000 A 
ATOM     10  C   UNL     1      -4.287  -7.425   0.000  0.00  0.00    +0.000 A 
ATOM     11  C   UNL     1      -4.287  -6.600   0.000  0.00  0.00    +0.000 A 
ATOM     12  O   UNL     1      -5.001  -6.188   0.000  0.00  0.00    +0.000 OA
BRANCH   6  13
ATOM     13  C   UNL     1      -3.572  -5.362   0.000  0.00  0.00    +0.000 C 
BRANCH  13  15
ATOM     14  C   UNL     1      -2.858  -4.125   0.000  0.00  0.00    +0.000 C 
ATOM     15  C   UNL     1      -2.858  -4.950   0.000  0.00  0.00    +0.000 C 
ENDBRANCH  13  15
ENDBRANCH   6  13
ENDBRANCH   4  10
ENDBRANCH   1   5
BRANCH   2  16
ATOM     16  C   UNL     1      -7.859  -7.838   0.000  0.00  0.00    +0.000 C 
BRANCH  16  17
ATOM     17  N   UNL     1      -8.574  -7.425   0.000  0.00  0.00    +0.000 NA
ATOM     18  C   UNL     1      -9.288  -7.838   0.000  0.00  0.00    +0.000 C 
ATOM     19  C   UNL     1     -10.003  -7.425   0.000  0.00  0.00    +0.000 C 
ATOM     20  N   UNL     1     -10.003  -6.600   0.000  0.00  0.00    +0.000 NA
ATOM     21  C   UNL     1      -9.288  -6.188   0.000  0.00  0.00    +0.000 C 
ATOM     22  C   UNL     1      -8.574  -6.600   0.000  0.00  0.00    +0.000 C 
BRANCH  20  23
ATOM     23  C   UNL     1     -10.717  -6.188   0.000  0.00  0.00    +0.000 C 
BRANCH  23  24
ATOM     24  C   UNL     1     -11.431  -6.600   0.000  0.00  0.00    +0.000 A 
ATOM     25  C   UNL     1     -11.431  -7.425   0.000  0.00  0.00    +0.000 A 
ATOM     26  C   UNL     1     -12.146  -7.838   0.000  0.00  0.00    +0.000 A 
ATOM     27  C   UNL     1     -12.861  -7.425   0.000  0.00  0.00    +0.000 A 
ATOM     28  C   UNL     1     -12.861  -6.600   0.000  0.00  0.00    +0.000 A 
ATOM     29  C   UNL     1     -12.146  -6.188   0.000  0.00  0.00    +0.000 A 
ENDBRANCH  23  24
ENDBRANCH  20  23
ENDBRANCH  16  17
ENDBRANCH   2  16
TORSDOF 8
