REMARK  Name = 
REMARK  3 active torsions:
REMARK  status: ('A' for Active; 'I' for Inactive)
REMARK    1  A    between atoms: C_2  and  C_12
REMARK    2  A    between atoms: C_14  and  N_19
REMARK    3  A    between atoms: C_20  and  C_22
REMARK                            x       y       z     vdW  Elec       q    Type
REMARK                         _______ _______ _______ _____ _____    ______ ____
ROOT
ATOM      1  C   UNL     1       0.248  -3.443   0.000  0.00  0.00    +0.000 A 
ATOM      2  C   UNL     1      -0.034  -2.668   0.000  0.00  0.00    +0.000 A 
ATOM      3  C   UNL     1       0.496  -2.036   0.000  0.00  0.00    +0.000 A 
ATOM      4  C   UNL     1       1.309  -2.179   0.000  0.00  0.00    +0.000 A 
ATOM      5  C   UNL     1       1.591  -2.954   0.000  0.00  0.00    +0.000 A 
ATOM      6  C   UNL     1       1.061  -3.587   0.000  0.00  0.00    +0.000 A 
ATOM      7  F   UNL     1       1.343  -4.362   0.000  0.00  0.00    +0.000 F 
ENDROOT
BRANCH   1   9
ATOM      8  C   UNL     1      -0.812  -3.443   0.000  0.00  0.00    +0.000 C 
ATOM      9  C   UNL     1      -0.282  -4.075   0.000  0.00  0.00    +0.000 C 
ATOM     10  C   UNL     1       0.432  -4.488   0.000  0.00  0.00    +0.000 C 
ATOM     11  S   UNL     1       0.432  -5.313   0.000  0.00  0.00    +0.000 S 
ATOM     12  O   UNL     1       1.245  -5.170   0.000  0.00  0.00    +0.000 OA
ATOM     13  O   UNL     1       0.715  -6.088   0.000  0.00  0.00    +0.000 OA
ATOM     14  N   UNL     1      -0.282  -5.725   0.000  0.00  0.00    +0.000 N 
ATOM     15  C   UNL     1      -0.997  -5.313   0.000  0.00  0.00    +0.000 C 
ATOM     16  N   UNL     1      -0.997  -4.488   0.000  0.00  0.00    +0.000 NA
ATOM     17  N   UNL     1      -1.711  -5.725   0.000  0.00  0.00    +0.000 NA
ATOM     18  C   UNL     1      -0.282  -6.550   0.000  0.00  0.00    +0.000 C 
ENDBRANCH   1   9
BRANCH   3  19
ATOM     19  N   UNL     1       0.214  -1.261   0.000  0.00  0.00    +0.000 NA
ATOM     20  C   UNL     1      -0.598  -1.117   0.000  0.00  0.00    +0.000 C 
ATOM     21  O   UNL     1      -1.129  -1.750   0.000  0.00  0.00    +0.000 OA
BRANCH  20  22
ATOM     22  C   UNL     1      -0.880  -0.342   0.000  0.00  0.00    +0.000 A 
ATOM     23  C   UNL     1      -1.693  -0.199   0.000  0.00  0.00    +0.000 A 
ATOM     24  C   UNL     1      -1.975   0.576   0.000  0.00  0.00    +0.000 A 
ATOM     25  C   UNL     1      -1.445   1.208   0.000  0.00  0.00    +0.000 A 
ATOM     26  C   UNL     1      -0.632   1.065   0.000  0.00  0.00    +0.000 A 
ATOM     27  N   UNL     1      -0.350   0.290   0.000  0.00  0.00    +0.000 NA
ATOM     28  F   UNL     1      -1.727   1.984   0.000  0.00  0.00    +0.000 F 
ENDBRANCH  20  22
ENDBRANCH   3  19
TORSDOF 3
