REMARK  Name = 
REMARK  11 active torsions:
REMARK  status: ('A' for Active; 'I' for Inactive)
REMARK    1  A    between atoms: C_2  and  C_3
REMARK    2  A    between atoms: C_3  and  C_5
REMARK    3  A    between atoms: C_5  and  C_6
REMARK    4  A    between atoms: C_6  and  C_7
REMARK    5  A    between atoms: C_16  and  C_17
REMARK    6  A    between atoms: C_17  and  C_18
REMARK    7  A    between atoms: C_18  and  C_19
REMARK    8  A    between atoms: C_19  and  C_20
REMARK    9  A    between atoms: C_20  and  C_21
REMARK   10  A    between atoms: C_21  and  C_22
REMARK   11  A    between atoms: C_22  and  C_23
REMARK                            x       y       z     vdW  Elec       q    Type
REMARK                         _______ _______ _______ _____ _____    ______ ____
ROOT
ATOM      1  C   UNL     1      -1.438   0.121   0.000  0.00  0.00    +0.000 C 
ATOM      2  C   UNL     1      -1.692   0.906   0.000  0.00  0.00    +0.000 C 
ATOM      3  C   UNL     1      -1.140   1.519   0.000  0.00  0.00    +0.000 C 
ATOM      4  C   UNL     1      -0.334   1.348   0.000  0.00  0.00    +0.000 C 
ATOM      5  C   UNL     1      -0.079   0.563   0.000  0.00  0.00    +0.000 C 
ATOM      6  O   UNL     1      -0.631  -0.050   0.000  0.00  0.00    +0.000 OA
ATOM      7  C   UNL     1       0.747   0.563   0.000  0.00  0.00    +0.000 C 
ATOM      8  C   UNL     1       1.001   1.348   0.000  0.00  0.00    +0.000 C 
ATOM      9  O   UNL     1       1.786   1.603   0.000  0.00  0.00    +0.000 OA
ATOM     10  C   UNL     1       0.334   1.833   0.000  0.00  0.00    +0.000 C 
ATOM     11  O   UNL     1      -2.255   0.007   0.000  0.00  0.00    +0.000 OA
ENDROOT
BRANCH   1  12
ATOM     12  C   UNL     1      -1.466  -0.703   0.000  0.00  0.00    +0.000 C 
ATOM     13  F   UNL     1      -0.642  -0.732   0.000  0.00  0.00    +0.000 F 
ATOM     14  F   UNL     1      -2.291  -0.674   0.000  0.00  0.00    +0.000 F 
BRANCH  12  15
ATOM     15  C   UNL     1      -1.495  -1.528   0.000  0.00  0.00    +0.000 C 
BRANCH  15  16
ATOM     16  C   UNL     1      -2.224  -1.915   0.000  0.00  0.00    +0.000 C 
ATOM     17  C   UNL     1      -2.923  -1.478   0.000  0.00  0.00    +0.000 C 
BRANCH  16  19
ATOM     18  C   UNL     1      -2.981  -3.127   0.000  0.00  0.00    +0.000 C 
ATOM     19  C   UNL     1      -2.252  -2.739   0.000  0.00  0.00    +0.000 C 
ENDBRANCH  16  19
ENDBRANCH  15  16
ENDBRANCH  12  15
ENDBRANCH   1  12
BRANCH  10  20
ATOM     20  C   UNL     1       0.334   2.658   0.000  0.00  0.00    +0.000 C 
BRANCH  20  21
ATOM     21  C   UNL     1       1.048   3.070   0.000  0.00  0.00    +0.000 C 
BRANCH  21  22
ATOM     22  C   UNL     1       1.763   2.658   0.000  0.00  0.00    +0.000 C 
BRANCH  22  23
ATOM     23  C   UNL     1       2.477   3.070   0.000  0.00  0.00    +0.000 C 
BRANCH  23  24
ATOM     24  C   UNL     1       3.192   2.658   0.000  0.00  0.00    +0.000 C 
BRANCH  24  25
ATOM     25  C   UNL     1       3.906   3.070   0.000  0.00  0.00    +0.000 C 
BRANCH  25  26
ATOM     26  C   UNL     1       4.621   2.658   0.000  0.00  0.00    +0.000 C 
ATOM     27  O   UNL     1       5.335   3.070   0.000  0.00  0.00    +0.000 OA
ATOM     28  O   UNL     1       4.621   1.833   0.000  0.00  0.00    +0.000 OA
ENDBRANCH  25  26
ENDBRANCH  24  25
ENDBRANCH  23  24
ENDBRANCH  22  23
ENDBRANCH  21  22
ENDBRANCH  20  21
ENDBRANCH  10  20
TORSDOF 11
