REMARK  Name = 
REMARK  2 active torsions:
REMARK  status: ('A' for Active; 'I' for Inactive)
REMARK    1  A    between atoms: N_6  and  C_10
REMARK    2  A    between atoms: C_10  and  C_11
REMARK                            x       y       z     vdW  Elec       q    Type
REMARK                         _______ _______ _______ _____ _____    ______ ____
ROOT
ATOM      1  N   UNL     1       1.222   1.487   0.000  0.00  0.00    +0.000 NA
ATOM      2  C   UNL     1       0.437   1.235   0.000  0.00  0.00    +0.000 A 
ATOM      3  C   UNL     1      -0.274   1.645   0.000  0.00  0.00    +0.000 A 
ATOM      4  N   UNL     1      -0.990   1.235   0.000  0.00  0.00    +0.000 NA
ATOM      5  C   UNL     1      -0.990   0.410   0.000  0.00  0.00    +0.000 A 
ATOM      6  N   UNL     1      -0.274   0.000   0.000  0.00  0.00    +0.000 N 
ATOM      7  C   UNL     1       0.437   0.410   0.000  0.00  0.00    +0.000 A 
ATOM      8  N   UNL     1       1.222   0.158   0.000  0.00  0.00    +0.000 NA
ATOM      9  C   UNL     1       1.702   0.825   0.000  0.00  0.00    +0.000 A 
ATOM     10  N   UNL     1      -0.274   2.470   0.000  0.00  0.00    +0.000 NA
ENDROOT
BRANCH   6  11
ATOM     11  C   UNL     1      -0.274  -0.825   0.000  0.00  0.00    +0.000 C 
BRANCH  11  12
ATOM     12  C   UNL     1      -0.990  -1.235   0.000  0.00  0.00    +0.000 C 
ATOM     13  C   UNL     1      -0.990  -2.060   0.000  0.00  0.00    +0.000 C 
ATOM     14  C   UNL     1      -0.274  -2.470   0.000  0.00  0.00    +0.000 C 
ATOM     15  C   UNL     1      -1.702  -2.470   0.000  0.00  0.00    +0.000 C 
ENDBRANCH  11  12
ENDBRANCH   6  11
TORSDOF 2
