REMARK  Name = 
REMARK  11 active torsions:
REMARK  status: ('A' for Active; 'I' for Inactive)
REMARK    1  A    between atoms: C_1  and  C_4
REMARK    2  A    between atoms: C_4  and  O_7
REMARK    3  A    between atoms: O_7  and  C_10
REMARK    4  A    between atoms: C_9  and  O_11
REMARK    5  A    between atoms: O_11  and  C_13
REMARK    6  A    between atoms: C_13  and  C_14
REMARK    7  A    between atoms: C_14  and  C_16
REMARK    8  A    between atoms: C_16  and  C_17
REMARK    9  A    between atoms: C_17  and  C_18
REMARK   10  A    between atoms: C_18  and  C_19
REMARK   11  A    between atoms: C_19  and  N_20
REMARK                            x       y       z     vdW  Elec       q    Type
REMARK                         _______ _______ _______ _____ _____    ______ ____
ROOT
ATOM      1  O   UNL     1      -0.709   0.819   0.000  0.00  0.00    +0.000 OA
ENDROOT
BRANCH   1   7
ATOM      2  C   UNL     1      -2.850  -0.426   0.000  0.00  0.00    +0.000 A 
ATOM      3  C   UNL     1      -2.850   0.402   0.000  0.00  0.00    +0.000 A 
ATOM      4  C   UNL     1      -2.136  -0.840   0.000  0.00  0.00    +0.000 A 
ATOM      5  C   UNL     1      -2.136   0.816   0.000  0.00  0.00    +0.000 A 
ATOM      6  C   UNL     1      -1.419  -0.426   0.000  0.00  0.00    +0.000 A 
ATOM      7  C   UNL     1      -1.422   0.405   0.000  0.00  0.00    +0.000 A 
BRANCH   2   8
ATOM      8  C   UNL     1      -3.564  -0.836   0.000  0.00  0.00    +0.000 C 
ATOM      9  O   UNL     1      -3.567  -1.660   0.000  0.00  0.00    +0.000 OA
BRANCH   8  10
ATOM     10  O   UNL     1      -4.278  -0.422   0.000  0.00  0.00    +0.000 OA
BRANCH  10  11
ATOM     11  C   UNL     1      -4.988  -0.836   0.000  0.00  0.00    +0.000 C 
ATOM     12  C   UNL     1      -5.702  -0.422   0.000  0.00  0.00    +0.000 C 
ENDBRANCH  10  11
ENDBRANCH   8  10
ENDBRANCH   2   8
ENDBRANCH   1   7
BRANCH   1  13
ATOM     13  C   UNL     1       0.002   0.409   0.000  0.00  0.00    +0.000 C 
ATOM     14  O   UNL     1       0.005  -0.415   0.000  0.00  0.00    +0.000 OA
BRANCH  13  15
ATOM     15  C   UNL     1       0.715   0.822   0.000  0.00  0.00    +0.000 C 
BRANCH  15  16
ATOM     16  C   UNL     1       1.426   0.412   0.000  0.00  0.00    +0.000 C 
BRANCH  16  17
ATOM     17  C   UNL     1       2.140   0.826   0.000  0.00  0.00    +0.000 C 
BRANCH  17  18
ATOM     18  C   UNL     1       2.853   0.419   0.000  0.00  0.00    +0.000 C 
BRANCH  18  19
ATOM     19  C   UNL     1       3.564   0.829   0.000  0.00  0.00    +0.000 C 
BRANCH  19  20
ATOM     20  N   UNL     1       4.278   0.422   0.000  0.00  0.00    +0.000 NA
ATOM     21  C   UNL     1       4.992   0.836   0.000  0.00  0.00    +0.000 C 
ATOM     22  N   UNL     1       5.702   0.426   0.000  0.00  0.00    +0.000 NA
ATOM     23  N   UNL     1       4.988   1.660   0.000  0.00  0.00    +0.000 NA
ENDBRANCH  19  20
ENDBRANCH  18  19
ENDBRANCH  17  18
ENDBRANCH  16  17
ENDBRANCH  15  16
ENDBRANCH  13  15
ENDBRANCH   1  13
TORSDOF 11
