REMARK  Name = 
REMARK  35 active torsions:
REMARK  status: ('A' for Active; 'I' for Inactive)
REMARK    1  A    between atoms: N_19  and  C_25
REMARK    2  A    between atoms: N_19  and  C_27
REMARK    3  A    between atoms: N_19  and  C_33
REMARK    4  A    between atoms: N_20  and  C_26
REMARK    5  A    between atoms: N_20  and  C_28
REMARK    6  A    between atoms: N_20  and  C_34
REMARK    7  A    between atoms: N_21  and  C_38
REMARK    8  A    between atoms: N_22  and  C_35
REMARK    9  A    between atoms: N_23  and  C_46
REMARK   10  A    between atoms: N_24  and  C_62
REMARK   11  A    between atoms: C_25  and  C_26
REMARK   12  A    between atoms: C_27  and  C_30
REMARK   13  A    between atoms: C_28  and  C_36
REMARK   14  A    between atoms: C_29  and  C_31
REMARK   15  A    between atoms: C_29  and  C_32
REMARK   16  A    between atoms: C_31  and  C_35
REMARK   17  A    between atoms: C_32  and  C_38
REMARK   18  A    between atoms: C_33  and  C_55
REMARK   19  A    between atoms: C_34  and  C_58
REMARK   20  A    between atoms: C_35  and  C_57
REMARK   21  A    between atoms: C_37  and  C_39
REMARK   22  A    between atoms: C_37  and  C_41
REMARK   23  A    between atoms: C_39  and  C_44
REMARK   24  A    between atoms: C_40  and  C_43
REMARK   25  A    between atoms: C_41  and  C_46
REMARK   26  A    between atoms: C_43  and  C_47
REMARK   27  A    between atoms: C_44  and  C_52
REMARK   28  A    between atoms: C_47  and  C_54
REMARK   29  A    between atoms: C_50  and  C_56
REMARK   30  A    between atoms: C_56  and  C_63
REMARK   31  A    between atoms: C_62  and  C_64
REMARK   32  A    between atoms: C_62  and  C_66
REMARK   33  A    between atoms: C_63  and  C_67
REMARK   34  A    between atoms: C_64  and  C_65
REMARK   35  A    between atoms: C_65  and  C_68
REMARK                            x       y       z     vdW  Elec       q    Type
REMARK                         _______ _______ _______ _____ _____    ______ ____
ROOT
ATOM      1 GA   UNL     1      -5.137   7.347   0.000  0.00  0.00    +0.000 Ga
ENDROOT
TORSDOF 0
REMARK  Name = 
REMARK  35 active torsions:
REMARK  status: ('A' for Active; 'I' for Inactive)
REMARK    1  A    between atoms: N_19  and  C_25
REMARK    2  A    between atoms: N_19  and  C_27
REMARK    3  A    between atoms: N_19  and  C_33
REMARK    4  A    between atoms: N_20  and  C_26
REMARK    5  A    between atoms: N_20  and  C_28
REMARK    6  A    between atoms: N_20  and  C_34
REMARK    7  A    between atoms: N_21  and  C_38
REMARK    8  A    between atoms: N_22  and  C_35
REMARK    9  A    between atoms: N_23  and  C_46
REMARK   10  A    between atoms: N_24  and  C_62
REMARK   11  A    between atoms: C_25  and  C_26
REMARK   12  A    between atoms: C_27  and  C_30
REMARK   13  A    between atoms: C_28  and  C_36
REMARK   14  A    between atoms: C_29  and  C_31
REMARK   15  A    between atoms: C_29  and  C_32
REMARK   16  A    between atoms: C_31  and  C_35
REMARK   17  A    between atoms: C_32  and  C_38
REMARK   18  A    between atoms: C_33  and  C_55
REMARK   19  A    between atoms: C_34  and  C_58
REMARK   20  A    between atoms: C_35  and  C_57
REMARK   21  A    between atoms: C_37  and  C_39
REMARK   22  A    between atoms: C_37  and  C_41
REMARK   23  A    between atoms: C_39  and  C_44
REMARK   24  A    between atoms: C_40  and  C_43
REMARK   25  A    between atoms: C_41  and  C_46
REMARK   26  A    between atoms: C_43  and  C_47
REMARK   27  A    between atoms: C_44  and  C_52
REMARK   28  A    between atoms: C_47  and  C_54
REMARK   29  A    between atoms: C_50  and  C_56
REMARK   30  A    between atoms: C_56  and  C_63
REMARK   31  A    between atoms: C_62  and  C_64
REMARK   32  A    between atoms: C_62  and  C_66
REMARK   33  A    between atoms: C_63  and  C_67
REMARK   34  A    between atoms: C_64  and  C_65
REMARK   35  A    between atoms: C_65  and  C_68
REMARK                            x       y       z     vdW  Elec       q    Type
REMARK                         _______ _______ _______ _____ _____    ______ ____
ROOT
ATOM      1  C   UNK A   1      -2.279   2.397   0.000  0.00  0.00    +0.000 C 
ENDROOT
BRANCH   1   4
ATOM      2  O   UNK A   1      -5.137   4.047   0.000  0.00  0.00    +0.000 OA
ATOM      3  C   UNK A   1      -3.708   4.047   0.000  0.00  0.00    +0.000 A 
ATOM      4  C   UNK A   1      -2.994   2.809   0.000  0.00  0.00    +0.000 A 
ATOM      5  C   UNK A   1      -2.994   3.634   0.000  0.00  0.00    +0.000 A 
ATOM      6  C   UNK A   1      -4.423   3.634   0.000  0.00  0.00    +0.000 A 
ATOM      7  C   UNK A   1      -3.708   2.397   0.000  0.00  0.00    +0.000 A 
ATOM      8  C   UNK A   1      -4.423   2.809   0.000  0.00  0.00    +0.000 A 
BRANCH   3   9
ATOM      9  C   UNK A   1      -3.708   4.872   0.000  0.00  0.00    +0.000 C 
BRANCH   9  10
ATOM     10  N   UNK A   1      -2.994   5.284   0.000  0.00  0.00    +0.000 NA
BRANCH  10  11
ATOM     11  C   UNK A   1      -2.994   6.109   0.000  0.00  0.00    +0.000 C 
BRANCH  11  12
ATOM     12  C   UNK A   1      -2.279   6.522   0.000  0.00  0.00    +0.000 C 
BRANCH  12  13
ATOM     13  N   UNK A   1      -2.279   7.347   0.000  0.00  0.00    +0.000 NA
BRANCH  13  14
ATOM     14  C   UNK A   1      -1.565   7.759   0.000  0.00  0.00    +0.000 C 
BRANCH  14  16
ATOM     15  O   UNK A   1      -0.136   8.584   0.000  0.00  0.00    +0.000 OA
ATOM     16  C   UNK A   1      -1.565   8.584   0.000  0.00  0.00    +0.000 A 
ATOM     17  C   UNK A   1      -2.279   8.997   0.000  0.00  0.00    +0.000 A 
ATOM     18  C   UNK A   1      -0.850   8.997   0.000  0.00  0.00    +0.000 A 
ATOM     19  C   UNK A   1      -2.279   9.822   0.000  0.00  0.00    +0.000 A 
ATOM     20  C   UNK A   1      -0.850   9.822   0.000  0.00  0.00    +0.000 A 
ATOM     21  C   UNK A   1      -1.565  10.234   0.000  0.00  0.00    +0.000 A 
BRANCH  19  22
ATOM     22  C   UNK A   1      -2.994  10.234   0.000  0.00  0.00    +0.000 C 
BRANCH  22  23
ATOM     23  C   UNK A   1      -2.994  11.059   0.000  0.00  0.00    +0.000 C 
BRANCH  23  26
ATOM     24  O   UNK A   1      -3.708  12.297   0.000  0.00  0.00    +0.000 OA
ATOM     25  O   UNK A   1      -4.423  11.059   0.000  0.00  0.00    +0.000 OA
ATOM     26  C   UNK A   1      -3.708  11.472   0.000  0.00  0.00    +0.000 C 
ENDBRANCH  23  26
ENDBRANCH  22  23
ENDBRANCH  19  22
ENDBRANCH  14  16
ENDBRANCH  13  14
BRANCH  13  27
ATOM     27  C   UNK A   1      -2.994   7.759   0.000  0.00  0.00    +0.000 C 
BRANCH  27  30
ATOM     28  O   UNK A   1      -4.423   7.759   0.000  0.00  0.00    +0.000 OA
ATOM     29  O   UNK A   1      -3.708   6.522   0.000  0.00  0.00    +0.000 OA
ATOM     30  C   UNK A   1      -3.708   7.347   0.000  0.00  0.00    +0.000 C 
ENDBRANCH  27  30
ENDBRANCH  13  27
ENDBRANCH  12  13
ENDBRANCH  11  12
ENDBRANCH  10  11
BRANCH  10  31
ATOM     31  C   UNK A   1      -2.279   4.872   0.000  0.00  0.00    +0.000 C 
BRANCH  31  34
ATOM     32  O   UNK A   1      -0.850   4.872   0.000  0.00  0.00    +0.000 OA
ATOM     33  O   UNK A   1      -1.565   6.109   0.000  0.00  0.00    +0.000 OA
ATOM     34  C   UNK A   1      -1.565   5.284   0.000  0.00  0.00    +0.000 C 
ENDBRANCH  31  34
ENDBRANCH  10  31
ENDBRANCH   9  10
ENDBRANCH   3   9
ENDBRANCH   1   4
BRANCH   1  35
ATOM     35  C   UNK A   1      -2.279   1.572   0.000  0.00  0.00    +0.000 C 
BRANCH  35  38
ATOM     36  O   UNK A   1      -0.850   1.572   0.000  0.00  0.00    +0.000 OA
ATOM     37  N   UNK A   1      -1.565   0.334   0.000  0.00  0.00    +0.000 NA
ATOM     38  C   UNK A   1      -1.565   1.159   0.000  0.00  0.00    +0.000 C 
BRANCH  37  39
ATOM     39  C   UNK A   1      -0.850  -0.078   0.000  0.00  0.00    +0.000 C 
BRANCH  39  40
ATOM     40  C   UNK A   1      -0.850  -0.903   0.000  0.00  0.00    +0.000 C 
BRANCH  40  41
ATOM     41  C   UNK A   1      -0.136  -1.316   0.000  0.00  0.00    +0.000 C 
BRANCH  41  42
ATOM     42  C   UNK A   1      -0.136  -2.141   0.000  0.00  0.00    +0.000 C 
BRANCH  42  43
ATOM     43  C   UNK A   1       0.579  -2.553   0.000  0.00  0.00    +0.000 C 
BRANCH  43  46
ATOM     44  O   UNK A   1      -0.136  -3.791   0.000  0.00  0.00    +0.000 OA
ATOM     45  N   UNK A   1       1.293  -3.791   0.000  0.00  0.00    +0.000 NA
ATOM     46  C   UNK A   1       0.579  -3.378   0.000  0.00  0.00    +0.000 C 
BRANCH  45  47
ATOM     47  C   UNK A   1       1.293  -4.616   0.000  0.00  0.00    +0.000 C 
BRANCH  47  48
ATOM     48  C   UNK A   1       2.008  -5.028   0.000  0.00  0.00    +0.000 C 
BRANCH  48  49
ATOM     49  C   UNK A   1       2.008  -5.853   0.000  0.00  0.00    +0.000 C 
BRANCH  49  50
ATOM     50  C   UNK A   1       2.722  -6.266   0.000  0.00  0.00    +0.000 C 
BRANCH  50  51
ATOM     51  C   UNK A   1       2.722  -7.091   0.000  0.00  0.00    +0.000 C 
BRANCH  51  53
ATOM     52  O   UNK A   0       2.722  -8.741   0.000  0.00  0.00    +0.000 OA
ATOM     53  N   UNK A   1       3.437  -7.503   0.000  0.00  0.00    +0.000 NA
ATOM     54  N   UNK A   1       4.151  -8.741   0.000  0.00  0.00    +0.000 NA
ATOM     55  C   UNK A   0       3.437  -8.328   0.000  0.00  0.00    +0.000 C 
BRANCH  54  56
ATOM     56  C   UNK A   1       4.151  -9.566   0.000  0.00  0.00    +0.000 C 
BRANCH  56  59
ATOM     57  O   UNK A   1       4.866 -10.803   0.000  0.00  0.00    +0.000 OA
ATOM     58  O   UNK A   1       5.580  -9.566   0.000  0.00  0.00    +0.000 OA
ATOM     59  C   UNK A   1       4.866  -9.978   0.000  0.00  0.00    +0.000 C 
ENDBRANCH  56  59
BRANCH  56  60
ATOM     60  C   UNK A   1       3.437  -9.978   0.000  0.00  0.00    +0.000 C 
BRANCH  60  61
ATOM     61  C   UNK A   1       3.437 -10.803   0.000  0.00  0.00    +0.000 C 
BRANCH  61  64
ATOM     62  O   UNK A   1       2.722 -12.041   0.000  0.00  0.00    +0.000 OA
ATOM     63  O   UNK A   1       2.008 -10.803   0.000  0.00  0.00    +0.000 OA
ATOM     64  C   UNK A   1       2.722 -11.216   0.000  0.00  0.00    +0.000 C 
ENDBRANCH  61  64
ENDBRANCH  60  61
ENDBRANCH  56  60
ENDBRANCH  54  56
ENDBRANCH  51  53
BRANCH  51  67
ATOM     65  O   UNK A   1       2.008  -8.328   0.000  0.00  0.00    +0.000 OA
ATOM     66  O   UNK A   1       1.293  -7.091   0.000  0.00  0.00    +0.000 OA
ATOM     67  C   UNK A   1       2.008  -7.503   0.000  0.00  0.00    +0.000 C 
ENDBRANCH  51  67
ENDBRANCH  50  51
ENDBRANCH  49  50
ENDBRANCH  48  49
ENDBRANCH  47  48
ENDBRANCH  45  47
ENDBRANCH  43  46
ENDBRANCH  42  43
ENDBRANCH  41  42
ENDBRANCH  40  41
ENDBRANCH  39  40
ENDBRANCH  37  39
ENDBRANCH  35  38
ENDBRANCH   1  35
TORSDOF 35
