REMARK  Name = 
REMARK  5 active torsions:
REMARK  status: ('A' for Active; 'I' for Inactive)
REMARK    1  A    between atoms: C_3  and  C_35
REMARK    2  A    between atoms: C_5  and  N_6
REMARK    3  A    between atoms: C_7  and  C_9
REMARK    4  A    between atoms: N_29  and  C_30
REMARK    5  A    between atoms: C_30  and  C_31
REMARK                            x       y       z     vdW  Elec       q    Type
REMARK                         _______ _______ _______ _____ _____    ______ ____
ROOT
ATOM      1  C   UNL     1       9.438   0.490   0.000  0.00  0.00    +0.000 C 
ATOM      2  C   UNL     1       8.622   0.370   0.000  0.00  0.00    +0.000 C 
ATOM      3  C   UNL     1       8.319  -0.398   0.000  0.00  0.00    +0.000 C 
ATOM      4  C   UNL     1       7.503  -0.518   0.000  0.00  0.00    +0.000 C 
ATOM      5  C   UNL     1       6.990   0.128   0.000  0.00  0.00    +0.000 C 
ATOM      6  C   UNL     1       7.293   0.895   0.000  0.00  0.00    +0.000 C 
ATOM      7  O   UNL     1       6.781   1.542   0.000  0.00  0.00    +0.000 OA
ATOM      8  N   UNL     1       8.110   1.016   0.000  0.00  0.00    +0.000 N 
ENDROOT
BRANCH   3   9
ATOM      9  C   UNL     1       8.831  -1.044   0.000  0.00  0.00    +0.000 A 
ATOM     10  C   UNL     1       9.647  -0.923   0.000  0.00  0.00    +0.000 A 
ATOM     11  F   UNL     1       9.951  -0.156   0.000  0.00  0.00    +0.000 F 
ATOM     12  C   UNL     1      10.160  -1.570   0.000  0.00  0.00    +0.000 A 
ATOM     13  F   UNL     1      10.976  -1.449   0.000  0.00  0.00    +0.000 F 
ATOM     14  C   UNL     1       9.856  -2.337   0.000  0.00  0.00    +0.000 A 
ATOM     15  C   UNL     1       9.040  -2.458   0.000  0.00  0.00    +0.000 A 
ATOM     16  C   UNL     1       8.528  -1.811   0.000  0.00  0.00    +0.000 A 
ATOM     17  F   UNL     1       7.712  -1.932   0.000  0.00  0.00    +0.000 F 
ENDBRANCH   3   9
BRANCH   5  18
ATOM     18  N   UNL     1       6.174   0.007   0.000  0.00  0.00    +0.000 NA
ATOM     19  C   UNL     1       5.661   0.654   0.000  0.00  0.00    +0.000 C 
ATOM     20  O   UNL     1       5.965   1.421   0.000  0.00  0.00    +0.000 OA
BRANCH  19  21
ATOM     21  C   UNL     1       4.845   0.533   0.000  0.00  0.00    +0.000 A 
ATOM     22  C   UNL     1       4.542  -0.234   0.000  0.00  0.00    +0.000 A 
ATOM     23  N   UNL     1       3.725  -0.355   0.000  0.00  0.00    +0.000 NA
ATOM     24  C   UNL     1       3.213   0.292   0.000  0.00  0.00    +0.000 A 
ATOM     25  C   UNL     1       2.389   0.343   0.000  0.00  0.00    +0.000 C 
ATOM     26  C   UNL     1       2.184   1.143   0.000  0.00  0.00    +0.000 C 
ATOM     27  C   UNL     1       2.881   1.585   0.000  0.00  0.00    +0.000 C 
ATOM     28  C   UNL     1       3.516   1.059   0.000  0.00  0.00    +0.000 A 
ATOM     29  C   UNL     1       4.332   1.180   0.000  0.00  0.00    +0.000 A 
ATOM     30  C   UNL     1       1.979   1.942   0.000  0.00  0.00    +0.000 C 
ATOM     31  O   UNL     1       2.505   2.577   0.000  0.00  0.00    +0.000 OA
ATOM     32  N   UNL     1       1.155   1.993   0.000  0.00  0.00    +0.000 NA
ATOM     33  C   UNL     1       0.852   1.226   0.000  0.00  0.00    +0.000 A 
ATOM     34  C   UNL     1       1.488   0.700   0.000  0.00  0.00    +0.000 A 
ATOM     35  C   UNL     1       1.350  -0.113   0.000  0.00  0.00    +0.000 A 
ATOM     36  C   UNL     1       0.577  -0.401   0.000  0.00  0.00    +0.000 A 
ATOM     37  C   UNL     1      -0.059   0.125   0.000  0.00  0.00    +0.000 A 
ATOM     38  N   UNL     1       0.079   0.938   0.000  0.00  0.00    +0.000 NA
ENDBRANCH  19  21
ENDBRANCH   5  18
BRANCH   8  39
ATOM     39  C   UNL     1       8.413   1.783   0.000  0.00  0.00    +0.000 C 
BRANCH  39  40
ATOM     40  C   UNL     1       9.229   1.904   0.000  0.00  0.00    +0.000 C 
ATOM     41  F   UNL     1       9.350   1.088   0.000  0.00  0.00    +0.000 F 
ATOM     42  F   UNL     1       9.109   2.720   0.000  0.00  0.00    +0.000 F 
ATOM     43  F   UNL     1      10.045   2.025   0.000  0.00  0.00    +0.000 F 
ENDBRANCH  39  40
ENDBRANCH   8  39
TORSDOF 5
