REMARK  Name = 
REMARK  13 active torsions:
REMARK  status: ('A' for Active; 'I' for Inactive)
REMARK    1  A    between atoms: SG_1  and  CB_14
REMARK    2  A    between atoms: SG_1  and  C_18
REMARK    3  A    between atoms: N_8  and  CA_11
REMARK    4  A    between atoms: N_9  and  CA_21
REMARK    5  A    between atoms: N_10  and  CA_15
REMARK    6  A    between atoms: CA_11  and  CB_14
REMARK    7  A    between atoms: CA_11  and  C_17
REMARK    8  A    between atoms: C_12  and  C_13
REMARK    9  A    between atoms: C_12  and  CA_15
REMARK   10  A    between atoms: C_13  and  C_16
REMARK   11  A    between atoms: CA_15  and  C_19
REMARK   12  A    between atoms: C_18  and  C_20
REMARK   13  A    between atoms: CA_21  and  C_26
REMARK                            x       y       z     vdW  Elec       q    Type
REMARK                         _______ _______ _______ _____ _____    ______ ____
ROOT
ATOM      1  CA  UNL     1      -1.429   0.412   0.000  0.00  0.00    +0.000 C 
ENDROOT
BRANCH   1   3
ATOM      2  O   UNL     1       0.000   1.238   0.000  0.00  0.00    +0.000 OA
ATOM      3  N   UNL     1      -0.714   0.000   0.000  0.00  0.00    +0.000 N 
ATOM      4  C   UNL     1       0.000   0.412   0.000  0.00  0.00    +0.000 C 
ATOM      5  H   UNL     1      -0.714  -0.511   0.000  0.00  0.00    +0.000 HD
BRANCH   4   6
ATOM      6  C   UNL     1       0.714   0.000   0.000  0.00  0.00    +0.000 C 
BRANCH   6   7
ATOM      7  C   UNL     1       1.429   0.412   0.000  0.00  0.00    +0.000 C 
BRANCH   7   8
ATOM      8  CA  UNL     1       2.143   0.000   0.000  0.00  0.00    +0.000 C 
BRANCH   8  11
ATOM      9  O   UNL     1       3.572   0.000   0.000  0.00  0.00    +0.000 OA
ATOM     10  OXT UNL     1       2.858   1.238   0.000  0.00  0.00    +0.000 OA
ATOM     11  C   UNL     1       2.858   0.412   0.000  0.00  0.00    +0.000 C 
ENDBRANCH   8  11
BRANCH   8  12
ATOM     12  N   UNL     1       2.143  -0.825   0.000  0.00  0.00    +0.000 NA
ATOM     13  H1  UNL     1       2.586  -1.081   0.000  0.00  0.00    +0.000 HD
ATOM     14  H2  UNL     1       1.700  -1.081   0.000  0.00  0.00    +0.000 HD
ENDBRANCH   8  12
ENDBRANCH   7   8
ENDBRANCH   6   7
ENDBRANCH   4   6
ENDBRANCH   1   3
BRANCH   1  17
ATOM     15  O   UNL     1      -0.714   1.650   0.000  0.00  0.00    +0.000 OA
ATOM     16  N   UNL     1      -2.143   1.650   0.000  0.00  0.00    +0.000 N 
ATOM     17  C   ACE A   1      -1.429   1.238   0.000  0.00  0.00    +0.000 C 
ATOM     18  H   UNL     1      -2.586   1.394   0.000  0.00  0.00    +0.000 HD
BRANCH  16  19
ATOM     19  CA  UNL     1      -2.143   2.475   0.000  0.00  0.00    +0.000 C 
BRANCH  19  22
ATOM     20  O   UNL     1      -2.858   3.712   0.000  0.00  0.00    +0.000 OA
ATOM     21  OXT UNL     1      -3.572   2.475   0.000  0.00  0.00    +0.000 OA
ATOM     22  C   UNL     1      -2.858   2.888   0.000  0.00  0.00    +0.000 C 
ENDBRANCH  19  22
ENDBRANCH  16  19
ENDBRANCH   1  17
BRANCH   1  23
ATOM     23  CB  UNL     1      -2.143   0.000   0.000  0.00  0.00    +0.000 C 
BRANCH  23  24
ATOM     24  SG  UNL     1      -2.143  -0.825   0.000  0.00  0.00    +0.000 S 
BRANCH  24  25
ATOM     25  C   UNL     1      -2.858  -1.238   0.000  0.00  0.00    +0.000 C 
BRANCH  25  26
ATOM     26  C   UNL     1      -2.858  -2.062   0.000  0.00  0.00    +0.000 A 
ATOM     27  C   UNL     1      -2.143  -2.475   0.000  0.00  0.00    +0.000 A 
ATOM     28  C   UNL     1      -3.572  -2.475   0.000  0.00  0.00    +0.000 A 
ATOM     29  C   UNL     1      -2.143  -3.300   0.000  0.00  0.00    +0.000 A 
ATOM     30  C   UNL     1      -3.572  -3.300   0.000  0.00  0.00    +0.000 A 
ATOM     31  C   UNL     1      -2.858  -3.712   0.000  0.00  0.00    +0.000 A 
ENDBRANCH  25  26
ENDBRANCH  24  25
ENDBRANCH  23  24
ENDBRANCH   1  23
TORSDOF 13
