REMARK  Name = 
REMARK  8 active torsions:
REMARK  status: ('A' for Active; 'I' for Inactive)
REMARK    1  A    between atoms: C_2  and  C_4
REMARK    2  A    between atoms: C_6  and  C_7
REMARK    3  A    between atoms: C_7  and  N_8
REMARK    4  A    between atoms: C_10  and  C_21
REMARK    5  A    between atoms: N_11  and  C_12
REMARK    6  A    between atoms: C_12  and  C_13
REMARK    7  A    between atoms: C_13  and  C_15
REMARK    8  A    between atoms: N_29  and  C_30
REMARK                            x       y       z     vdW  Elec       q    Type
REMARK                         _______ _______ _______ _____ _____    ______ ____
ROOT
ATOM      1  N   UNL     1       2.432  -3.088   0.000  0.00  0.00    +0.000 N 
ATOM      2  N   UNL     1       2.845  -2.374   0.000  0.00  0.00    +0.000 NA
ATOM      3  C   UNL     1       3.652  -2.545   0.000  0.00  0.00    +0.000 A 
ATOM      4  N   UNL     1       3.738  -3.366   0.000  0.00  0.00    +0.000 N 
ATOM      5  C   UNL     1       2.984  -3.701   0.000  0.00  0.00    +0.000 A 
ATOM      6  O   UNL     1       2.813  -4.508   0.000  0.00  0.00    +0.000 OA
ENDROOT
BRANCH   3   7
ATOM      7  C   UNL     1       4.265  -1.993   0.000  0.00  0.00    +0.000 A 
ATOM      8  C   UNL     1       4.093  -1.186   0.000  0.00  0.00    +0.000 A 
ATOM      9  C   UNL     1       4.707  -0.634   0.000  0.00  0.00    +0.000 A 
ATOM     10  C   UNL     1       5.491  -0.889   0.000  0.00  0.00    +0.000 A 
ATOM     11 CL   UNL     1       6.104  -0.337   0.000  0.00  0.00    +0.000 Cl
ATOM     12  C   UNL     1       5.663  -1.696   0.000  0.00  0.00    +0.000 A 
ATOM     13  C   UNL     1       5.050  -2.248   0.000  0.00  0.00    +0.000 A 
ENDBRANCH   3   7
BRANCH   1  14
ATOM     14  C   UNL     1       1.612  -3.175   0.000  0.00  0.00    +0.000 C 
BRANCH  14  17
ATOM     15  C   UNL     1       0.715  -1.238   0.000  0.00  0.00    +0.000 A 
ATOM     16  N   UNL     1       1.382  -1.722   0.000  0.00  0.00    +0.000 NA
ATOM     17  C   UNL     1       1.127  -2.507   0.000  0.00  0.00    +0.000 A 
ATOM     18  N   UNL     1       0.302  -2.507   0.000  0.00  0.00    +0.000 NA
ATOM     19  N   UNL     1       0.047  -1.722   0.000  0.00  0.00    +0.000 N 
BRANCH  19  20
ATOM     20  C   UNL     1      -0.738  -1.468   0.000  0.00  0.00    +0.000 A 
ATOM     21  C   UNL     1      -1.351  -2.019   0.000  0.00  0.00    +0.000 A 
ATOM     22  C   UNL     1      -2.135  -1.765   0.000  0.00  0.00    +0.000 A 
ATOM     23 CL   UNL     1      -2.748  -2.317   0.000  0.00  0.00    +0.000 Cl
ATOM     24  C   UNL     1      -2.307  -0.958   0.000  0.00  0.00    +0.000 A 
ATOM     25  C   UNL     1      -1.694  -0.406   0.000  0.00  0.00    +0.000 A 
ATOM     26  C   UNL     1      -0.909  -0.660   0.000  0.00  0.00    +0.000 A 
ENDBRANCH  19  20
BRANCH  15  28
ATOM     27  C   UNL     1       0.000   0.000   0.000  0.00  0.00    +0.000 C 
ATOM     28  C   UNL     1       0.715  -0.412   0.000  0.00  0.00    +0.000 C 
ATOM     29  O   UNL     1       1.429   0.000   0.000  0.00  0.00    +0.000 OA
ENDBRANCH  15  28
ENDBRANCH  14  17
ENDBRANCH   1  14
BRANCH   4  30
ATOM     30  C   UNL     1       4.453  -3.778   0.000  0.00  0.00    +0.000 C 
BRANCH  30  31
ATOM     31  C   UNL     1       4.453  -4.603   0.000  0.00  0.00    +0.000 C 
ATOM     32  O   UNL     1       5.167  -5.016   0.000  0.00  0.00    +0.000 OA
BRANCH  31  33
ATOM     33  C   UNL     1       3.738  -5.016   0.000  0.00  0.00    +0.000 C 
ATOM     34  F   UNL     1       3.326  -4.301   0.000  0.00  0.00    +0.000 F 
ATOM     35  F   UNL     1       4.151  -5.730   0.000  0.00  0.00    +0.000 F 
ATOM     36  F   UNL     1       3.024  -5.428   0.000  0.00  0.00    +0.000 F 
ENDBRANCH  31  33
ENDBRANCH  30  31
ENDBRANCH   4  30
TORSDOF 8
