REMARK  Name = 
REMARK  5 active torsions:
REMARK  status: ('A' for Active; 'I' for Inactive)
REMARK    1  A    between atoms: C_7  and  O_14
REMARK    2  A    between atoms: C_8  and  S_17
REMARK    3  A    between atoms: O_12  and  P_15
REMARK    4  A    between atoms: O_13  and  P_15
REMARK    5  A    between atoms: O_14  and  P_15
REMARK                            x       y       z     vdW  Elec       q    Type
REMARK                         _______ _______ _______ _____ _____    ______ ____
ROOT
ATOM      1  C   UNL     1       1.429   0.000   0.000  0.00  0.00    +0.000 A 
ATOM      2  C   UNL     1       0.000   0.000   0.000  0.00  0.00    +0.000 A 
ATOM      3  C   UNL     1       1.429   0.825   0.000  0.00  0.00    +0.000 A 
ATOM      4  C   UNL     1       0.000   0.825   0.000  0.00  0.00    +0.000 A 
ATOM      5  C   UNL     1       0.715  -0.412   0.000  0.00  0.00    +0.000 A 
ATOM      6  C   UNL     1       0.715   1.238   0.000  0.00  0.00    +0.000 A 
ENDROOT
BRANCH   6  10
ATOM      7  N   UNL     1       0.715   2.888   0.000  0.00  0.00    +0.000 NA
ATOM      8  O   UNL     1       1.540   2.062   0.000  0.00  0.00    +0.000 OA
ATOM      9  O   UNL     1      -0.111   2.062   0.000  0.00  0.00    +0.000 OA
ATOM     10  S   UNL     1       0.715   2.062   0.000  0.00  0.00    +0.000 S 
ENDBRANCH   6  10
BRANCH   5  11
ATOM     11  O   UNL     1       0.715  -1.238   0.000  0.00  0.00    +0.000 OA
BRANCH  11  12
ATOM     12  P   UNL     1       0.000  -1.650   0.000  0.00  0.00    +0.000 P 
ATOM     13  S   UNL     1      -0.715  -2.062   0.000  0.00  0.00    +0.000 S 
BRANCH  12  15
ATOM     14  C   UNL     1      -1.238  -0.935   0.000  0.00  0.00    +0.000 C 
ATOM     15  O   UNL     1      -0.412  -0.935   0.000  0.00  0.00    +0.000 OA
ENDBRANCH  12  15
BRANCH  12  17
ATOM     16  C   UNL     1       0.000  -3.079   0.000  0.00  0.00    +0.000 C 
ATOM     17  O   UNL     1       0.412  -2.365   0.000  0.00  0.00    +0.000 OA
ENDBRANCH  12  17
ENDBRANCH  11  12
ENDBRANCH   5  11
TORSDOF 5
