REMARK  Name = 
REMARK  8 active torsions:
REMARK  status: ('A' for Active; 'I' for Inactive)
REMARK    1  A    between atoms: C_1  and  S_7
REMARK    2  A    between atoms: S_7  and  N_8
REMARK    3  A    between atoms: N_8  and  C_11
REMARK    4  A    between atoms: N_8  and  C_18
REMARK    5  A    between atoms: C_11  and  C_12
REMARK    6  A    between atoms: C_13  and  C_19
REMARK    7  A    between atoms: C_19  and  C_20
REMARK    8  A    between atoms: C_19  and  C_22
REMARK                            x       y       z     vdW  Elec       q    Type
REMARK                         _______ _______ _______ _____ _____    ______ ____
ROOT
ATOM      1  C   UNL     1       1.344   0.917   0.000  0.00  0.00    +0.000 A 
ATOM      2  C   UNL     1       1.758   0.204   0.000  0.00  0.00    +0.000 A 
ATOM      3  C   UNL     1       0.522   0.917   0.000  0.00  0.00    +0.000 A 
ATOM      4  C   UNL     1       1.344  -0.510   0.000  0.00  0.00    +0.000 A 
ATOM      5  C   UNL     1       0.108   0.204   0.000  0.00  0.00    +0.000 A 
ATOM      6  C   UNL     1       0.522  -0.510   0.000  0.00  0.00    +0.000 A 
ENDROOT
BRANCH   1   7
ATOM      7  C   UNL     1       1.758   1.631   0.000  0.00  0.00    +0.000 C 
ATOM      8  O   UNL     1       2.172   2.344   0.000  0.00  0.00    +0.000 OA
BRANCH   7   9
ATOM      9  C   UNL     1       1.045   2.045   0.000  0.00  0.00    +0.000 C 
ATOM     10  F   UNL     1       0.331   2.459   0.000  0.00  0.00    +0.000 F 
ATOM     11  F   UNL     1       0.631   1.331   0.000  0.00  0.00    +0.000 F 
ATOM     12  F   UNL     1       1.459   2.759   0.000  0.00  0.00    +0.000 F 
ENDBRANCH   7   9
BRANCH   7  13
ATOM     13  C   UNL     1       2.472   1.223   0.000  0.00  0.00    +0.000 C 
ATOM     14  F   UNL     1       3.185   0.803   0.000  0.00  0.00    +0.000 F 
ATOM     15  F   UNL     1       2.058   0.510   0.000  0.00  0.00    +0.000 F 
ATOM     16  F   UNL     1       2.886   1.937   0.000  0.00  0.00    +0.000 F 
ENDBRANCH   7  13
ENDBRANCH   1   7
BRANCH   6  17
ATOM     17  N   UNL     1       0.108  -1.223   0.000  0.00  0.00    +0.000 N 
BRANCH  17  18
ATOM     18  S   UNL     1      -0.714  -1.223   0.000  0.00  0.00    +0.000 S 
ATOM     19  O   UNL     1      -0.714  -2.045   0.000  0.00  0.00    +0.000 OA
ATOM     20  O   UNL     1      -0.714  -0.395   0.000  0.00  0.00    +0.000 OA
BRANCH  18  21
ATOM     21  C   UNL     1      -1.535  -1.223   0.000  0.00  0.00    +0.000 A 
ATOM     22  C   UNL     1      -1.950  -1.937   0.000  0.00  0.00    +0.000 A 
ATOM     23  C   UNL     1      -1.950  -0.510   0.000  0.00  0.00    +0.000 A 
ATOM     24  C   UNL     1      -2.771  -1.937   0.000  0.00  0.00    +0.000 A 
ATOM     25  C   UNL     1      -2.771  -0.510   0.000  0.00  0.00    +0.000 A 
ATOM     26  C   UNL     1      -3.185  -1.223   0.000  0.00  0.00    +0.000 A 
ENDBRANCH  18  21
ENDBRANCH  17  18
BRANCH  17  27
ATOM     27  C   UNL     1       0.522  -1.937   0.000  0.00  0.00    +0.000 C 
BRANCH  27  28
ATOM     28  C   UNL     1       1.344  -1.937   0.000  0.00  0.00    +0.000 C 
ATOM     29  F   UNL     1       1.344  -2.759   0.000  0.00  0.00    +0.000 F 
ATOM     30  F   UNL     1       1.344  -1.109   0.000  0.00  0.00    +0.000 F 
ATOM     31  F   UNL     1       2.172  -1.937   0.000  0.00  0.00    +0.000 F 
ENDBRANCH  27  28
ENDBRANCH  17  27
ENDBRANCH   6  17
TORSDOF 8
