REMARK  Name = 
REMARK  10 active torsions:
REMARK  status: ('A' for Active; 'I' for Inactive)
REMARK    1  A    between atoms: C_6  and  C_7
REMARK    2  A    between atoms: C_11  and  C_13
REMARK    3  A    between atoms: C_15  and  C_31
REMARK    4  A    between atoms: C_17  and  C_20
REMARK    5  A    between atoms: C_22  and  S_27
REMARK    6  A    between atoms: C_31  and  C_32
REMARK    7  A    between atoms: N_34  and  CA_35
REMARK    8  A    between atoms: CA_35  and  CB_36
REMARK    9  A    between atoms: CA_35  and  C_40
REMARK   10  A    between atoms: CB_36  and  CG_37
REMARK                            x       y       z     vdW  Elec       q    Type
REMARK                         _______ _______ _______ _____ _____    ______ ____
ROOT
ATOM      1  C   UNK A   0      -6.023   4.274   0.000  0.00  0.00    +0.000 A 
ATOM      2  C   UNK A   0      -5.308   4.687   0.000  0.00  0.00    +0.000 A 
ATOM      3  C   UNK A   0      -4.594   4.274   0.000  0.00  0.00    +0.000 A 
ATOM      4  C   UNK A   0      -4.594   3.449   0.000  0.00  0.00    +0.000 A 
ATOM      5  C   UNK A   0      -5.308   3.037   0.000  0.00  0.00    +0.000 A 
ATOM      6  C   UNK A   0      -6.023   3.449   0.000  0.00  0.00    +0.000 A 
ATOM      7  O   UNK A   0      -6.737   3.037   0.000  0.00  0.00    +0.000 OA
ENDROOT
BRANCH   1  15
ATOM      8  C   UNK A   0      -8.868   6.393   0.000  0.00  0.00    +0.000 A 
ATOM      9  C   UNK A   0      -8.043   6.393   0.000  0.00  0.00    +0.000 A 
ATOM     10  C   UNK A   0      -7.631   5.679   0.000  0.00  0.00    +0.000 A 
ATOM     11  C   UNK A   0      -8.043   4.964   0.000  0.00  0.00    +0.000 A 
ATOM     12  C   UNK A   0      -8.868   4.964   0.000  0.00  0.00    +0.000 A 
ATOM     13  C   UNK A   0      -9.281   5.679   0.000  0.00  0.00    +0.000 A 
ATOM     14  N   UNK A   0      -7.491   4.351   0.000  0.00  0.00    +0.000 NA
ATOM     15  C   UNK A   0      -6.737   4.687   0.000  0.00  0.00    +0.000 A 
ATOM     16  N   UNK A   0      -6.824   5.507   0.000  0.00  0.00    +0.000 NA
BRANCH  13  17
ATOM     17  C   UNK A   0     -10.106   5.679   0.000  0.00  0.00    +0.000 C 
ATOM     18  N   UNK A   0     -10.518   6.393   0.000  0.00  0.00    +0.000 NA
ATOM     19  N   UNK A   0     -10.518   4.964   0.000  0.00  0.00    +0.000 NA
ENDBRANCH  13  17
ENDBRANCH   1  15
BRANCH   5  20
ATOM     20  C   UNK A   0      -5.308   2.212   0.000  0.00  0.00    +0.000 A 
ATOM     21  C   UNK A   0      -4.594   1.799   0.000  0.00  0.00    +0.000 A 
ATOM     22  C   UNK A   0      -4.594   0.974   0.000  0.00  0.00    +0.000 A 
ATOM     23  C   UNK A   0      -5.308   0.562   0.000  0.00  0.00    +0.000 A 
ATOM     24  C   UNK A   0      -6.023   0.974   0.000  0.00  0.00    +0.000 A 
ATOM     25  C   UNK A   0      -6.023   1.799   0.000  0.00  0.00    +0.000 A 
ATOM     26  O   UNK A   0      -6.737   2.212   0.000  0.00  0.00    +0.000 OA
BRANCH  22  27
ATOM     27  S   UNK A   0      -3.880   0.562   0.000  0.00  0.00    +0.000 S 
ATOM     28  O   UNK A   0      -3.165   0.149   0.000  0.00  0.00    +0.000 OA
ATOM     29  O   UNK A   0      -4.292  -0.153   0.000  0.00  0.00    +0.000 OA
ATOM     30  N   UNK A   0      -3.467   1.276   0.000  0.00  0.00    +0.000 NA
ENDBRANCH  22  27
ENDBRANCH   5  20
BRANCH   3  31
ATOM     31  C   UNK A   0      -3.880   4.687   0.000  0.00  0.00    +0.000 C 
BRANCH  31  32
ATOM     32  C   UNK A   0      -3.165   4.274   0.000  0.00  0.00    +0.000 C 
ATOM     33  O   UNK A   0      -3.165   3.449   0.000  0.00  0.00    +0.000 OA
ATOM     34  N   ASP A   1      -2.451   4.687   0.000  0.00  0.00    +0.000 NA
BRANCH  34  35
ATOM     35  CA  ASP A   1      -1.736   4.274   0.000  0.00  0.00    +0.000 C 
BRANCH  35  36
ATOM     36  C   ASP A   1      -1.736   3.449   0.000  0.00  0.00    +0.000 C 
ATOM     37  O   ASP A   1      -1.022   3.037   0.000  0.00  0.00    +0.000 OA
ATOM     38  OXT ASP A   1      -2.451   3.037   0.000  0.00  0.00    +0.000 OA
ENDBRANCH  35  36
BRANCH  35  39
ATOM     39  CB  ASP A   1      -1.022   4.687   0.000  0.00  0.00    +0.000 C 
BRANCH  39  40
ATOM     40  CG  ASP A   1      -0.307   4.274   0.000  0.00  0.00    +0.000 C 
ATOM     41  OD1 ASP A   1       0.407   4.687   0.000  0.00  0.00    +0.000 OA
ATOM     42  OD2 ASP A   1      -0.307   3.449   0.000  0.00  0.00    +0.000 OA
ENDBRANCH  39  40
ENDBRANCH  35  39
ENDBRANCH  34  35
ENDBRANCH  31  32
ENDBRANCH   3  31
TORSDOF 10
