REMARK  Name = 
REMARK  6 active torsions:
REMARK  status: ('A' for Active; 'I' for Inactive)
REMARK    1  A    between atoms: N_5  and  C_9
REMARK    2  A    between atoms: N_6  and  C_11
REMARK    3  A    between atoms: N_6  and  C_18
REMARK    4  A    between atoms: C_8  and  C_11
REMARK    5  A    between atoms: C_13  and  C_15
REMARK    6  A    between atoms: C_16  and  C_18
REMARK                            x       y       z     vdW  Elec       q    Type
REMARK                         _______ _______ _______ _____ _____    ______ ____
ROOT
ATOM      1 CL   UNL     1       1.785  -2.475   0.000  0.00  0.00    +0.000 Cl
ATOM      2  C   UNL     1       1.070  -1.240   0.000  0.00  0.00    +0.000 A 
ATOM      3  C   UNL     1       1.070  -0.405   0.000  0.00  0.00    +0.000 A 
ATOM      4  C   UNL     1       1.785  -1.650   0.000  0.00  0.00    +0.000 A 
ATOM      5  C   UNL     1       1.785   0.000   0.000  0.00  0.00    +0.000 A 
ATOM      6  C   UNL     1       2.500  -1.240   0.000  0.00  0.00    +0.000 A 
ATOM      7  C   UNL     1       2.500  -0.415   0.000  0.00  0.00    +0.000 A 
ENDROOT
BRANCH   3   9
ATOM      8  O   UNL     1      -0.355   1.245   0.000  0.00  0.00    +0.000 OA
ATOM      9  N   UNL     1       0.355   0.000   0.000  0.00  0.00    +0.000 NA
ATOM     10  C   UNL     1       0.355   0.825   0.000  0.00  0.00    +0.000 C 
BRANCH  10  11
ATOM     11  C   UNL     1       1.070   1.245   0.000  0.00  0.00    +0.000 A 
ATOM     12  C   UNL     1       1.785   0.825   0.000  0.00  0.00    +0.000 A 
ATOM     13  C   UNL     1       1.070   2.070   0.000  0.00  0.00    +0.000 A 
ATOM     14  C   UNL     1       2.500   1.245   0.000  0.00  0.00    +0.000 A 
ATOM     15  C   UNL     1       1.785   2.475   0.000  0.00  0.00    +0.000 A 
ATOM     16  C   UNL     1       2.500   2.070   0.000  0.00  0.00    +0.000 A 
ENDBRANCH  10  11
ENDBRANCH   3   9
BRANCH   2  17
ATOM     17  C   UNL     1       0.355  -1.650   0.000  0.00  0.00    +0.000 C 
BRANCH  17  18
ATOM     18  N   UNL     1      -0.355  -1.240   0.000  0.00  0.00    +0.000 NA
ATOM     19  C   UNL     1      -0.355  -0.405   0.000  0.00  0.00    +0.000 C 
BRANCH  18  20
ATOM     20  C   UNL     1      -1.070  -1.650   0.000  0.00  0.00    +0.000 C 
BRANCH  20  24
ATOM     21  O   UNL     1      -2.500  -1.650   0.000  0.00  0.00    +0.000 OA
ATOM     22  O   UNL     1      -1.785   1.245   0.000  0.00  0.00    +0.000 OA
ATOM     23  N   UNL     1      -1.785  -0.415   0.000  0.00  0.00    +0.000 N 
ATOM     24  C   UNL     1      -1.785  -1.240   0.000  0.00  0.00    +0.000 C 
ATOM     25  C   UNL     1      -2.500   0.000   0.000  0.00  0.00    +0.000 C 
ATOM     26  C   UNL     1      -1.070   0.000   0.000  0.00  0.00    +0.000 C 
ATOM     27  C   UNL     1      -2.500   0.825   0.000  0.00  0.00    +0.000 C 
ATOM     28  C   UNL     1      -1.070   0.825   0.000  0.00  0.00    +0.000 C 
ENDBRANCH  20  24
ENDBRANCH  18  20
ENDBRANCH  17  18
ENDBRANCH   2  17
TORSDOF 6
