REMARK  Name = 
REMARK  4 active torsions:
REMARK  status: ('A' for Active; 'I' for Inactive)
REMARK    1  A    between atoms: C_4  and  C_9
REMARK    2  A    between atoms: C_5  and  C_11
REMARK    3  A    between atoms: C_8  and  CA_10
REMARK    4  A    between atoms: C_12  and  N_14
REMARK                            x       y       z     vdW  Elec       q    Type
REMARK                         _______ _______ _______ _____ _____    ______ ____
ROOT
ATOM      1  C   UNL     1       3.618  -2.752   0.000  0.00  0.00    +0.000 C 
ATOM      2  C   UNL     1       3.283  -1.999   0.000  0.00  0.00    +0.000 C 
ENDROOT
BRANCH   1   6
ATOM      3  C   UNL     1       2.984  -4.841   0.000  0.00  0.00    +0.000 A 
ATOM      4  C   UNL     1       3.469  -4.173   0.000  0.00  0.00    +0.000 A 
ATOM      5  C   UNL     1       2.163  -4.755   0.000  0.00  0.00    +0.000 A 
ATOM      6  C   UNL     1       3.133  -3.420   0.000  0.00  0.00    +0.000 A 
ATOM      7  CA  UNL     1       1.828  -4.001   0.000  0.00  0.00    +0.000 A 
ATOM      8  N   UNL     1       2.313  -3.333   0.000  0.00  0.00    +0.000 NA
BRANCH   7   9
ATOM      9  C   UNL     1       1.007  -3.915   0.000  0.00  0.00    +0.000 C 
ATOM     10  O   UNL     1       0.522  -4.582   0.000  0.00  0.00    +0.000 OA
ENDBRANCH   7   9
ENDBRANCH   1   6
BRANCH   2  13
ATOM     11  C   UNL     1       4.593  -1.331   0.000  0.00  0.00    +0.000 A 
ATOM     12  C   UNL     1       4.848  -0.546   0.000  0.00  0.00    +0.000 A 
ATOM     13  C   UNL     1       3.768  -1.331   0.000  0.00  0.00    +0.000 A 
ATOM     14  C   UNL     1       4.180  -0.062   0.000  0.00  0.00    +0.000 A 
ATOM     15  O   UNL     1       3.513  -0.546   0.000  0.00  0.00    +0.000 OA
BRANCH  14  16
ATOM     16  N   UNL     1       4.180   0.763   0.000  0.00  0.00    +0.000 N 
ATOM     17  O   UNL     1       3.466   1.176   0.000  0.00  0.00    +0.000 OA
ATOM     18  O   UNL     1       4.895   1.176   0.000  0.00  0.00    +0.000 OA
ENDBRANCH  14  16
ENDBRANCH   2  13
TORSDOF 4
