REMARK  Name = 
REMARK  26 active torsions:
REMARK  status: ('A' for Active; 'I' for Inactive)
REMARK    1  A    between atoms: CG_8  and  CD_9
REMARK    2  A    between atoms: CG_8  and  CB_14
REMARK    3  A    between atoms: CD_9  and  CE_19
REMARK    4  A    between atoms: CB_14  and  CA_46
REMARK    5  A    between atoms: CB_28  and  CG_40
REMARK    6  A    between atoms: CB_28  and  CA_47
REMARK    7  A    between atoms: CB_29  and  CG_41
REMARK    8  A    between atoms: CB_29  and  CA_48
REMARK    9  A    between atoms: CB_30  and  CG_42
REMARK   10  A    between atoms: CB_30  and  CA_49
REMARK   11  A    between atoms: C_32  and  C_52
REMARK   12  A    between atoms: C_32  and  N_79
REMARK   13  A    between atoms: C_33  and  C_53
REMARK   14  A    between atoms: C_33  and  N_80
REMARK   15  A    between atoms: C_34  and  C_54
REMARK   16  A    between atoms: C_34  and  N_81
REMARK   17  A    between atoms: C_35  and  C_55
REMARK   18  A    between atoms: C_35  and  N_82
REMARK   19  A    between atoms: CB_38  and  CA_56
REMARK   20  A    between atoms: CB_39  and  CA_57
REMARK   21  A    between atoms: CA_47  and  C_59
REMARK   22  A    between atoms: CA_47  and  N_71
REMARK   23  A    between atoms: CA_50  and  N_75
REMARK   24  A    between atoms: CA_51  and  C_63
REMARK   25  A    between atoms: CA_57  and  C_65
REMARK   26  A    between atoms: CA_57  and  N_78
REMARK                            x       y       z     vdW  Elec       q    Type
REMARK                         _______ _______ _______ _____ _____    ______ ____
ROOT
ATOM      1  CB  CYS A   2       0.419  -1.241   0.000  0.00  0.00    +0.000 C 
ATOM      2  CB  CYS A   7      -0.684  -0.015   0.000  0.00  0.00    +0.000 C 
ATOM      3  CA  LYS A   5      -0.769   4.349   0.000  0.00  0.00    +0.000 C 
ATOM      4  CA  TYR A   3       1.184   1.113   0.000  0.00  0.00    +0.000 C 
ATOM      5  CA  TRP A   4       1.142   3.295   0.000  0.00  0.00    +0.000 C 
ATOM      6  CA  CYS A   2       0.674  -0.457   0.000  0.00  0.00    +0.000 C 
ATOM      7  CA  CYS A   7      -1.236   0.598   0.000  0.00  0.00    +0.000 C 
ATOM      8  CA  THR A   6      -1.279   2.780   0.000  0.00  0.00    +0.000 C 
ATOM      9  C   LYS A   5      -1.576   4.178   0.000  0.00  0.00    +0.000 C 
ATOM     10  C   TYR A   3       1.439   1.897   0.000  0.00  0.00    +0.000 C 
ATOM     11  C   TRP A   4       0.590   3.908   0.000  0.00  0.00    +0.000 C 
ATOM     12  C   CYS A   2       1.481  -0.285   0.000  0.00  0.00    +0.000 C 
ATOM     13  C   THR A   6      -1.534   1.996   0.000  0.00  0.00    +0.000 C 
ATOM     14  N   LYS A   5      -0.217   3.736   0.000  0.00  0.00    +0.000 NA
ATOM     15  N   TYR A   3       1.736   0.499   0.000  0.00  0.00    +0.000 NA
ATOM     16  N   TRP A   4       0.887   2.510   0.000  0.00  0.00    +0.000 NA
ATOM     17  N   CYS A   7      -0.982   1.383   0.000  0.00  0.00    +0.000 NA
ATOM     18  N   THR A   6      -1.831   3.393   0.000  0.00  0.00    +0.000 NA
ATOM     19  O   LYS A   5      -2.128   4.791   0.000  0.00  0.00    +0.000 OA
ATOM     20  O   TYR A   3       2.246   2.069   0.000  0.00  0.00    +0.000 OA
ATOM     21  O   TRP A   4       0.845   4.692   0.000  0.00  0.00    +0.000 OA
ATOM     22  O   CYS A   2       2.034  -0.898   0.000  0.00  0.00    +0.000 OA
ATOM     23  O   THR A   6      -2.086   1.383   0.000  0.00  0.00    +0.000 OA
ATOM     24  SG  CYS A   2      -0.387  -1.413   0.000  0.00  0.00    +0.000 S 
ATOM     25  SG  CYS A   7      -0.939  -0.800   0.000  0.00  0.00    +0.000 S 
ENDROOT
BRANCH   7  26
ATOM     26  C   CYS A   7      -2.043   0.426   0.000  0.00  0.00    +0.000 C 
ATOM     27  N   THR A   8      -2.298  -0.358   0.000  0.00  0.00    +0.000 NA
ATOM     28  O   CYS A   7      -2.595   1.040   0.000  0.00  0.00    +0.000 OA
BRANCH  27  29
ATOM     29  CA  THR A   8      -3.105  -0.530   0.000  0.00  0.00    +0.000 C 
BRANCH  29  30
ATOM     30  C   THR A   8      -3.657   0.083   0.000  0.00  0.00    +0.000 C 
ATOM     31  O   THR A   8      -4.464  -0.088   0.000  0.00  0.00    +0.000 OA
ATOM     32  OXT THR A   8      -3.402   0.868   0.000  0.00  0.00    +0.000 OA
ENDBRANCH  29  30
BRANCH  29  34
ATOM     33  CG2 THR A   8      -2.808  -1.927   0.000  0.00  0.00    +0.000 C 
ATOM     34  CB  THR A   8      -3.360  -1.314   0.000  0.00  0.00    +0.000 C 
ATOM     35  OG1 THR A   8      -4.167  -1.486   0.000  0.00  0.00    +0.000 OA
ENDBRANCH  29  34
ENDBRANCH  27  29
ENDBRANCH   7  26
BRANCH   6  37
ATOM     36  C   PHE A   1       0.972  -1.854   0.000  0.00  0.00    +0.000 C 
ATOM     37  N   CYS A   2       1.226  -1.070   0.000  0.00  0.00    +0.000 NA
ATOM     38  O   PHE A   1       0.165  -2.026   0.000  0.00  0.00    +0.000 OA
BRANCH  36  39
ATOM     39  CA  PHE A   1       1.524  -2.467   0.000  0.00  0.00    +0.000 C 
BRANCH  39  41
ATOM     40  C   UNK A   0       0.462  -3.424   0.000  0.00  0.00    +0.000 C 
ATOM     41  N   PHE A   1       1.269  -3.252   0.000  0.00  0.00    +0.000 NA
ATOM     42  O   UNK A   0      -0.090  -2.811   0.000  0.00  0.00    +0.000 OA
BRANCH  40  43
ATOM     43  C   UNK A   0       0.207  -4.208   0.000  0.00  0.00    +0.000 C 
BRANCH  43  55
ATOM     44  C   UNK A   0      -3.257  -4.130   0.000  0.00  0.00    +0.000 C 
ATOM     45  C   UNK A   0      -2.926  -5.689   0.000  0.00  0.00    +0.000 C 
ATOM     46  C   UNK A   0      -2.808  -3.438   0.000  0.00  0.00    +0.000 C 
ATOM     47  C   UNK A   0      -2.234  -6.138   0.000  0.00  0.00    +0.000 C 
ATOM     48  C   UNK A   0      -1.249  -3.107   0.000  0.00  0.00    +0.000 C 
ATOM     49  C   UNK A   0      -0.675  -5.807   0.000  0.00  0.00    +0.000 C 
ATOM     50  C   UNK A   0      -0.557  -3.556   0.000  0.00  0.00    +0.000 C 
ATOM     51  C   UNK A   0      -0.226  -5.115   0.000  0.00  0.00    +0.000 C 
ATOM     52  N   UNK A   0      -2.883  -4.865   0.000  0.00  0.00    +0.000 NA
ATOM     53  N   UNK A   0      -1.984  -3.481   0.000  0.00  0.00    +0.000 NA
ATOM     54  N   UNK A   0      -1.499  -5.764   0.000  0.00  0.00    +0.000 NA
ATOM     55  N   UNK A   0      -0.600  -4.380   0.000  0.00  0.00    +0.000 NA
BRANCH  54  56
ATOM     56  C   UNK A   0      -1.327  -6.571   0.000  0.00  0.00    +0.000 C 
BRANCH  56  57
ATOM     57  C   UNK A   0      -1.940  -7.123   0.000  0.00  0.00    +0.000 C 
ATOM     58  N   UNK A   0      -1.769  -7.929   0.000  0.00  0.00    +0.000 NA
ATOM     59  O   UNK A   0      -2.725  -6.868   0.000  0.00  0.00    +0.000 OA
ENDBRANCH  56  57
ENDBRANCH  54  56
BRANCH  53  60
ATOM     60  C   UNK A   0      -2.155  -2.674   0.000  0.00  0.00    +0.000 C 
BRANCH  60  61
ATOM     61  C   UNK A   0      -1.542  -2.122   0.000  0.00  0.00    +0.000 C 
ATOM     62  N   UNK A   0      -1.714  -1.315   0.000  0.00  0.00    +0.000 NA
ATOM     63  O   UNK A   0      -0.758  -2.377   0.000  0.00  0.00    +0.000 OA
ENDBRANCH  60  61
ENDBRANCH  53  60
BRANCH  52  64
ATOM     64  C   UNK A   0      -3.690  -5.036   0.000  0.00  0.00    +0.000 C 
BRANCH  64  65
ATOM     65  C   UNK A   0      -3.945  -5.821   0.000  0.00  0.00    +0.000 C 
ATOM     66  N   UNK A   0      -4.752  -5.993   0.000  0.00  0.00    +0.000 NA
ATOM     67  O   UNK A   0      -3.393  -6.434   0.000  0.00  0.00    +0.000 OA
ENDBRANCH  64  65
ENDBRANCH  52  64
ENDBRANCH  43  55
ENDBRANCH  40  43
ENDBRANCH  39  41
BRANCH  39  68
ATOM     68  CB  PHE A   1       2.331  -2.296   0.000  0.00  0.00    +0.000 C 
BRANCH  68  74
ATOM     69  CZ  PHE A   1       3.987  -4.135   0.000  0.00  0.00    +0.000 A 
ATOM     70  CE1 PHE A   1       4.242  -3.351   0.000  0.00  0.00    +0.000 A 
ATOM     71  CE2 PHE A   1       3.180  -4.307   0.000  0.00  0.00    +0.000 A 
ATOM     72  CD1 PHE A   1       3.690  -2.737   0.000  0.00  0.00    +0.000 A 
ATOM     73  CD2 PHE A   1       2.628  -3.694   0.000  0.00  0.00    +0.000 A 
ATOM     74  CG  PHE A   1       2.883  -2.909   0.000  0.00  0.00    +0.000 A 
ENDBRANCH  68  74
ENDBRANCH  39  68
ENDBRANCH  36  39
ENDBRANCH   6  37
BRANCH   8  76
ATOM     75  CG2 THR A   6      -2.638   3.222   0.000  0.00  0.00    +0.000 C 
ATOM     76  CB  THR A   6      -2.086   2.609   0.000  0.00  0.00    +0.000 C 
ATOM     77  OG1 THR A   6      -2.341   1.824   0.000  0.00  0.00    +0.000 OA
ENDBRANCH   8  76
BRANCH   5  78
ATOM     78  CB  TRP A   4       1.949   3.466   0.000  0.00  0.00    +0.000 C 
BRANCH  78  84
ATOM     79  CZ3 TRP A   4       4.418   4.506   0.000  0.00  0.00    +0.000 A 
ATOM     80  CH2 TRP A   4       4.418   5.331   0.000  0.00  0.00    +0.000 A 
ATOM     81  CE3 TRP A   4       3.703   4.093   0.000  0.00  0.00    +0.000 A 
ATOM     82  CZ2 TRP A   4       3.703   5.743   0.000  0.00  0.00    +0.000 A 
ATOM     83  CD1 TRP A   4       1.719   4.918   0.000  0.00  0.00    +0.000 A 
ATOM     84  CG  TRP A   4       2.204   4.251   0.000  0.00  0.00    +0.000 A 
ATOM     85  CD2 TRP A   4       2.989   4.506   0.000  0.00  0.00    +0.000 A 
ATOM     86  CE2 TRP A   4       2.989   5.331   0.000  0.00  0.00    +0.000 A 
ATOM     87  NE1 TRP A   4       2.204   5.586   0.000  0.00  0.00    +0.000 NA
ENDBRANCH  78  84
ENDBRANCH   5  78
BRANCH   4  88
ATOM     88  CB  TYR A   3       1.991   1.284   0.000  0.00  0.00    +0.000 C 
BRANCH  88  93
ATOM     89  CD1 TYR A   3       2.288  -0.114   0.000  0.00  0.00    +0.000 A 
ATOM     90  CD2 TYR A   3       3.350   0.843   0.000  0.00  0.00    +0.000 A 
ATOM     91  CE1 TYR A   3       2.840  -0.727   0.000  0.00  0.00    +0.000 A 
ATOM     92  CE2 TYR A   3       3.902   0.229   0.000  0.00  0.00    +0.000 A 
ATOM     93  CG  TYR A   3       2.543   0.671   0.000  0.00  0.00    +0.000 A 
ATOM     94  CZ  TYR A   3       3.647  -0.555   0.000  0.00  0.00    +0.000 A 
ATOM     95  OH  TYR A   3       4.199  -1.168   0.000  0.00  0.00    +0.000 OA
ENDBRANCH  88  93
ENDBRANCH   4  88
BRANCH   3  96
ATOM     96  CB  LYS A   5      -0.514   5.134   0.000  0.00  0.00    +0.000 C 
BRANCH  96  97
ATOM     97  CG  LYS A   5      -1.066   5.747   0.000  0.00  0.00    +0.000 C 
BRANCH  97  98
ATOM     98  CD  LYS A   5      -0.811   6.532   0.000  0.00  0.00    +0.000 C 
BRANCH  98  99
ATOM     99  CE  LYS A   5      -1.363   7.145   0.000  0.00  0.00    +0.000 C 
ATOM    100  NZ  LYS A   5      -1.108   7.929   0.000  0.00  0.00    +0.000 NA
ENDBRANCH  98  99
ENDBRANCH  97  98
ENDBRANCH  96  97
ENDBRANCH   3  96
TORSDOF 26
REMARK  Name = 
REMARK  26 active torsions:
REMARK  status: ('A' for Active; 'I' for Inactive)
REMARK    1  A    between atoms: CG_8  and  CD_9
REMARK    2  A    between atoms: CG_8  and  CB_14
REMARK    3  A    between atoms: CD_9  and  CE_19
REMARK    4  A    between atoms: CB_14  and  CA_46
REMARK    5  A    between atoms: CB_28  and  CG_40
REMARK    6  A    between atoms: CB_28  and  CA_47
REMARK    7  A    between atoms: CB_29  and  CG_41
REMARK    8  A    between atoms: CB_29  and  CA_48
REMARK    9  A    between atoms: CB_30  and  CG_42
REMARK   10  A    between atoms: CB_30  and  CA_49
REMARK   11  A    between atoms: C_32  and  C_52
REMARK   12  A    between atoms: C_32  and  N_79
REMARK   13  A    between atoms: C_33  and  C_53
REMARK   14  A    between atoms: C_33  and  N_80
REMARK   15  A    between atoms: C_34  and  C_54
REMARK   16  A    between atoms: C_34  and  N_81
REMARK   17  A    between atoms: C_35  and  C_55
REMARK   18  A    between atoms: C_35  and  N_82
REMARK   19  A    between atoms: CB_38  and  CA_56
REMARK   20  A    between atoms: CB_39  and  CA_57
REMARK   21  A    between atoms: CA_47  and  C_59
REMARK   22  A    between atoms: CA_47  and  N_71
REMARK   23  A    between atoms: CA_50  and  N_75
REMARK   24  A    between atoms: CA_51  and  C_63
REMARK   25  A    between atoms: CA_57  and  C_65
REMARK   26  A    between atoms: CA_57  and  N_78
REMARK                            x       y       z     vdW  Elec       q    Type
REMARK                         _______ _______ _______ _____ _____    ______ ____
ROOT
ATOM      1 PB   UNL     1       4.752  -1.781   0.000  0.00  0.00    +0.000 Pb
ENDROOT
TORSDOF 0
