REMARK  Name = 
REMARK  3 active torsions:
REMARK  status: ('A' for Active; 'I' for Inactive)
REMARK    1  A    between atoms: C_3  and  C_4
REMARK    2  A    between atoms: C_4  and  C_5
REMARK    3  A    between atoms: C_4  and  N_8
REMARK                            x       y       z     vdW  Elec       q    Type
REMARK                         _______ _______ _______ _____ _____    ______ ____
ROOT
ATOM      1  C   UNL     1       2.249  -1.147   0.000  0.00  0.00    +0.000 C 
ENDROOT
BRANCH   1   2
ATOM      2  N   UNL     1       1.534  -0.735   0.000  0.00  0.00    +0.000 NA
ATOM      3  C   UNL     1       1.534   0.090   0.000  0.00  0.00    +0.000 C 
ATOM      4  N   UNL     1       0.867   0.575   0.000  0.00  0.00    +0.000 NA
ATOM      5  C   UNL     1       1.122   1.360   0.000  0.00  0.00    +0.000 C 
ATOM      6  C   UNL     1       1.947   1.360   0.000  0.00  0.00    +0.000 C 
ATOM      7  O   UNL     1       2.202   0.575   0.000  0.00  0.00    +0.000 OA
ENDBRANCH   1   2
BRANCH   1  10
ATOM      8  C   UNL     1       2.661  -2.687   0.000  0.00  0.00    +0.000 C 
ATOM      9  C   UNL     1       1.836  -2.687   0.000  0.00  0.00    +0.000 C 
ATOM     10  C   UNL     1       2.249  -1.972   0.000  0.00  0.00    +0.000 C 
ENDBRANCH   1  10
BRANCH   1  11
ATOM     11  C   UNL     1       2.963  -0.735   0.000  0.00  0.00    +0.000 C 
ATOM     12  C   UNL     1       3.376  -0.020   0.000  0.00  0.00    +0.000 C 
ATOM     13  C   UNL     1       3.788  -0.735   0.000  0.00  0.00    +0.000 C 
ENDBRANCH   1  11
TORSDOF 3
