REMARK  Name = 
REMARK  4 active torsions:
REMARK  status: ('A' for Active; 'I' for Inactive)
REMARK    1  A    between atoms: C_6  and  C_7
REMARK    2  A    between atoms: N_9  and  N_10
REMARK    3  A    between atoms: C_11  and  C_12
REMARK    4  A    between atoms: C_15  and  N_17
REMARK                            x       y       z     vdW  Elec       q    Type
REMARK                         _______ _______ _______ _____ _____    ______ ____
ROOT
ATOM      1  C   UNL     1       4.895   1.176   0.000  0.00  0.00    +0.000 C 
ATOM      2  O   UNL     1       4.180   0.763   0.000  0.00  0.00    +0.000 OA
ATOM      3  N   UNL     1       5.609   0.763   0.000  0.00  0.00    +0.000 NA
ENDROOT
BRANCH   1   9
ATOM      4  C   UNL     1       4.180   2.413   0.000  0.00  0.00    +0.000 A 
ATOM      5  C   UNL     1       4.180   3.238   0.000  0.00  0.00    +0.000 A 
ATOM      6  C   UNL     1       4.895   3.651   0.000  0.00  0.00    +0.000 A 
ATOM      7  C   UNL     1       5.609   3.238   0.000  0.00  0.00    +0.000 A 
ATOM      8  C   UNL     1       5.609   2.413   0.000  0.00  0.00    +0.000 A 
ATOM      9  C   UNL     1       4.895   2.001   0.000  0.00  0.00    +0.000 A 
ATOM     10  O   UNL     1       4.895   4.476   0.000  0.00  0.00    +0.000 OA
ENDBRANCH   1   9
BRANCH   3  11
ATOM     11  N   UNL     1       5.609  -0.062   0.000  0.00  0.00    +0.000 NA
ATOM     12  C   UNL     1       4.895  -0.474   0.000  0.00  0.00    +0.000 C 
BRANCH  12  13
ATOM     13  C   UNL     1       4.895  -1.299   0.000  0.00  0.00    +0.000 A 
ATOM     14  C   UNL     1       5.562  -1.784   0.000  0.00  0.00    +0.000 A 
ATOM     15  C   UNL     1       5.307  -2.569   0.000  0.00  0.00    +0.000 A 
ATOM     16  C   UNL     1       4.482  -2.569   0.000  0.00  0.00    +0.000 A 
ATOM     17  O   UNL     1       4.227  -1.784   0.000  0.00  0.00    +0.000 OA
BRANCH  16  18
ATOM     18  N   UNL     1       3.997  -3.236   0.000  0.00  0.00    +0.000 N 
ATOM     19  O   UNL     1       4.333  -3.990   0.000  0.00  0.00    +0.000 OA
ATOM     20  O   UNL     1       3.177  -3.150   0.000  0.00  0.00    +0.000 OA
ENDBRANCH  16  18
ENDBRANCH  12  13
ENDBRANCH   3  11
TORSDOF 4
