REMARK  Name = 
REMARK  6 active torsions:
REMARK  status: ('A' for Active; 'I' for Inactive)
REMARK    1  A    between atoms: C_2  and  C_4
REMARK    2  A    between atoms: N_6  and  C_7
REMARK    3  A    between atoms: C_7  and  C_8
REMARK    4  A    between atoms: C_15  and  C_16
REMARK    5  A    between atoms: N_18  and  C_19
REMARK    6  A    between atoms: C_29  and  C_32
REMARK                            x       y       z     vdW  Elec       q    Type
REMARK                         _______ _______ _______ _____ _____    ______ ____
ROOT
ATOM      1  C   UNL     1      -0.143  -0.030   0.000  0.00  0.00    +0.000 A 
ATOM      2  N   UNL     1      -0.628  -0.698   0.000  0.00  0.00    +0.000 NA
ATOM      3  N   UNL     1      -0.143  -1.365   0.000  0.00  0.00    +0.000 N 
ATOM      4  C   UNL     1       0.641  -1.110   0.000  0.00  0.00    +0.000 A 
ATOM      5  C   UNL     1       0.641  -0.285   0.000  0.00  0.00    +0.000 A 
ATOM      6  C   UNL     1       1.356   0.127   0.000  0.00  0.00    +0.000 A 
ATOM      7  C   UNL     1       2.070  -0.285   0.000  0.00  0.00    +0.000 A 
ATOM      8  C   UNL     1       2.070  -1.110   0.000  0.00  0.00    +0.000 A 
ATOM      9  C   UNL     1       1.356  -1.523   0.000  0.00  0.00    +0.000 A 
ENDROOT
BRANCH   7  10
ATOM     10  C   UNL     1       2.784   0.127   0.000  0.00  0.00    +0.000 A 
ATOM     11  C   UNL     1       2.784   0.952   0.000  0.00  0.00    +0.000 A 
ATOM     12  N   UNL     1       3.499   1.365   0.000  0.00  0.00    +0.000 NA
ATOM     13  C   UNL     1       4.213   0.952   0.000  0.00  0.00    +0.000 A 
ATOM     14  C   UNL     1       4.928   1.365   0.000  0.00  0.00    +0.000 C 
ATOM     15  N   UNL     1       4.213   0.127   0.000  0.00  0.00    +0.000 NA
ATOM     16  C   UNL     1       3.499  -0.285   0.000  0.00  0.00    +0.000 A 
ENDBRANCH   7  10
BRANCH   1  18
ATOM     17  C   UNL     1       0.154   1.367   0.000  0.00  0.00    +0.000 C 
ATOM     18  C   UNL     1      -0.398   0.754   0.000  0.00  0.00    +0.000 C 
ATOM     19  O   UNL     1      -1.205   0.926   0.000  0.00  0.00    +0.000 OA
ENDBRANCH   1  18
BRANCH   3  20
ATOM     20  C   UNL     1      -0.398  -2.150   0.000  0.00  0.00    +0.000 C 
BRANCH  20  21
ATOM     21  C   UNL     1      -1.205  -2.321   0.000  0.00  0.00    +0.000 C 
ATOM     22  O   UNL     1      -1.758  -1.708   0.000  0.00  0.00    +0.000 OA
ATOM     23  N   UNL     1      -1.460  -3.106   0.000  0.00  0.00    +0.000 N 
ATOM     24  C   UNL     1      -0.975  -3.774   0.000  0.00  0.00    +0.000 C 
ATOM     25  C   UNL     1      -1.460  -4.441   0.000  0.00  0.00    +0.000 C 
ATOM     26  F   UNL     1      -1.205  -5.226   0.000  0.00  0.00    +0.000 F 
ATOM     27  C   UNL     1      -2.245  -4.186   0.000  0.00  0.00    +0.000 C 
ATOM     28  C   UNL     1      -2.245  -3.361   0.000  0.00  0.00    +0.000 C 
BRANCH  28  29
ATOM     29  C   UNL     1      -2.912  -2.876   0.000  0.00  0.00    +0.000 C 
ATOM     30  O   UNL     1      -2.826  -2.056   0.000  0.00  0.00    +0.000 OA
ATOM     31  N   UNL     1      -3.666  -3.212   0.000  0.00  0.00    +0.000 NA
BRANCH  31  32
ATOM     32  C   UNL     1      -4.333  -2.727   0.000  0.00  0.00    +0.000 A 
ATOM     33  C   UNL     1      -5.087  -3.062   0.000  0.00  0.00    +0.000 A 
ATOM     34  C   UNL     1      -5.755  -2.577   0.000  0.00  0.00    +0.000 A 
ATOM     35  C   UNL     1      -5.668  -1.757   0.000  0.00  0.00    +0.000 A 
ATOM     36  C   UNL     1      -4.915  -1.421   0.000  0.00  0.00    +0.000 A 
ATOM     37 BR   UNL     1      -4.829  -0.601   0.000  0.00  0.00    +0.000 Br
ATOM     38  N   UNL     1      -4.247  -1.906   0.000  0.00  0.00    +0.000 NA
ENDBRANCH  31  32
ENDBRANCH  28  29
ENDBRANCH  20  21
ENDBRANCH   3  20
TORSDOF 6
