REMARK  Name = 
REMARK  3 active torsions:
REMARK  status: ('A' for Active; 'I' for Inactive)
REMARK    1  A    between atoms: C_10  and  C_12
REMARK    2  A    between atoms: C_12  and  C_13
REMARK    3  A    between atoms: C_18  and  C_21
REMARK                            x       y       z     vdW  Elec       q    Type
REMARK                         _______ _______ _______ _____ _____    ______ ____
ROOT
ATOM      1  C   UNL     1       0.662  -0.424   0.000  0.00  0.00    +0.000 A 
ATOM      2  C   UNL     1       1.377  -0.011   0.000  0.00  0.00    +0.000 A 
ATOM      3  N   UNL     1       2.091  -0.424   0.000  0.00  0.00    +0.000 NA
ATOM      4  C   UNL     1       2.091  -1.249   0.000  0.00  0.00    +0.000 A 
ATOM      5  N   UNL     1       1.377  -1.661   0.000  0.00  0.00    +0.000 NA
ATOM      6  C   UNL     1       0.662  -1.249   0.000  0.00  0.00    +0.000 A 
ATOM      7  O   UNL     1       1.861   0.656   0.000  0.00  0.00    +0.000 OA
ATOM      8  S   UNL     1       2.805  -1.661   0.000  0.00  0.00    +0.000 S 
ENDROOT
BRANCH   6   9
ATOM      9  C   UNL     1      -0.052  -1.661   0.000  0.00  0.00    +0.000 A 
ATOM     10  C   UNL     1      -0.052  -2.486   0.000  0.00  0.00    +0.000 A 
ATOM     11  C   UNL     1      -0.767  -2.899   0.000  0.00  0.00    +0.000 A 
ATOM     12  C   UNL     1      -1.481  -2.486   0.000  0.00  0.00    +0.000 A 
ATOM     13  C   UNL     1      -1.481  -1.661   0.000  0.00  0.00    +0.000 A 
ATOM     14  C   UNL     1      -0.767  -1.249   0.000  0.00  0.00    +0.000 A 
ENDBRANCH   6   9
BRANCH   1  15
ATOM     15  C   UNL     1      -0.052  -0.011   0.000  0.00  0.00    +0.000 C 
BRANCH  15  25
ATOM     16  C   UNL     1      -2.196   1.226   0.000  0.00  0.00    +0.000 A 
ATOM     17  C   UNL     1      -2.196   2.051   0.000  0.00  0.00    +0.000 A 
ATOM     18  C   UNL     1      -1.481   2.463   0.000  0.00  0.00    +0.000 A 
ATOM     19  C   UNL     1      -1.481   0.814   0.000  0.00  0.00    +0.000 A 
ATOM     20  C   UNL     1      -0.767   1.226   0.000  0.00  0.00    +0.000 A 
ATOM     21  C   UNL     1      -0.767   2.051   0.000  0.00  0.00    +0.000 A 
ATOM     22  C   UNL     1      -0.052   2.463   0.000  0.00  0.00    +0.000 A 
ATOM     23  C   UNL     1       0.662   2.051   0.000  0.00  0.00    +0.000 A 
ATOM     24  C   UNL     1       0.662   1.226   0.000  0.00  0.00    +0.000 A 
ATOM     25  C   UNL     1      -0.052   0.814   0.000  0.00  0.00    +0.000 A 
ATOM     26  O   UNL     1       1.377   0.814   0.000  0.00  0.00    +0.000 OA
ENDBRANCH  15  25
ENDBRANCH   1  15
TORSDOF 3
