REMARK  Name = 
REMARK  3 active torsions:
REMARK  status: ('A' for Active; 'I' for Inactive)
REMARK    1  A    between atoms: C_4  and  C_11
REMARK    2  A    between atoms: C_11  and  CA_12
REMARK    3  A    between atoms: CA_12  and  C_13
REMARK                            x       y       z     vdW  Elec       q    Type
REMARK                         _______ _______ _______ _____ _____    ______ ____
ROOT
ATOM      1  C   UNL     1      -0.398   0.754   0.000  0.00  0.00    +0.000 C 
ATOM      2  N   UNL     1      -0.143  -0.030   0.000  0.00  0.00    +0.000 N 
ATOM      3  C   UNL     1      -0.628  -0.698   0.000  0.00  0.00    +0.000 A 
ATOM      4  C   UNL     1      -0.143  -1.365   0.000  0.00  0.00    +0.000 A 
ATOM      5  C   UNL     1       0.641  -1.110   0.000  0.00  0.00    +0.000 A 
ATOM      6  C   UNL     1       0.641  -0.285   0.000  0.00  0.00    +0.000 A 
ATOM      7  C   UNL     1       1.356   0.127   0.000  0.00  0.00    +0.000 A 
ATOM      8  C   UNL     1       2.070  -0.285   0.000  0.00  0.00    +0.000 A 
ATOM      9  C   UNL     1       2.070  -1.110   0.000  0.00  0.00    +0.000 A 
ATOM     10  C   UNL     1       1.356  -1.523   0.000  0.00  0.00    +0.000 A 
ENDROOT
BRANCH   4  11
ATOM     11  C   UNL     1      -0.398  -2.150   0.000  0.00  0.00    +0.000 C 
BRANCH  11  12
ATOM     12  CA  UNL     1       0.154  -2.763   0.000  0.00  0.00    +0.000 C 
ATOM     13  N   UNL     1       0.961  -2.592   0.000  0.00  0.00    +0.000 NA
BRANCH  12  14
ATOM     14  C   UNL     1      -0.101  -3.548   0.000  0.00  0.00    +0.000 C 
ATOM     15  O   UNL     1       0.451  -4.161   0.000  0.00  0.00    +0.000 OA
ATOM     16  OXT UNL     1      -0.908  -3.719   0.000  0.00  0.00    +0.000 OA
ENDBRANCH  12  14
ENDBRANCH  11  12
ENDBRANCH   4  11
TORSDOF 3
