REMARK  Name = 
REMARK  17 active torsions:
REMARK  status: ('A' for Active; 'I' for Inactive)
REMARK    1  A    between atoms: C_2  and  C_3
REMARK    2  A    between atoms: C_3  and  C_4
REMARK    3  A    between atoms: C_5  and  O_20
REMARK    4  A    between atoms: C_8  and  C_17
REMARK    5  A    between atoms: C_9  and  O_10
REMARK    6  A    between atoms: O_10  and  C_11
REMARK    7  A    between atoms: C_11  and  C_12
REMARK    8  A    between atoms: C_12  and  C_13
REMARK    9  A    between atoms: C_13  and  C_14
REMARK   10  A    between atoms: O_20  and  C_21
REMARK   11  A    between atoms: C_21  and  C_22
REMARK   12  A    between atoms: C_22  and  C_23
REMARK   13  A    between atoms: C_23  and  S_24
REMARK   14  A    between atoms: S_24  and  C_25
REMARK   15  A    between atoms: C_28  and  C_35
REMARK   16  A    between atoms: C_30  and  C_31
REMARK   17  A    between atoms: C_31  and  C_32
REMARK                            x       y       z     vdW  Elec       q    Type
REMARK                         _______ _______ _______ _____ _____    ______ ____
ROOT
ATOM      1  C   UNL     1       0.715  -3.712   0.000  0.00  0.00    +0.000 A 
ATOM      2  C   UNL     1       1.429  -4.125   0.000  0.00  0.00    +0.000 A 
ATOM      3  C   UNL     1       1.429  -4.950   0.000  0.00  0.00    +0.000 A 
ATOM      4  C   UNL     1       0.715  -5.362   0.000  0.00  0.00    +0.000 A 
ATOM      5  C   UNL     1       0.000  -4.950   0.000  0.00  0.00    +0.000 A 
ATOM      6  C   UNL     1       0.000  -4.125   0.000  0.00  0.00    +0.000 A 
ENDROOT
BRANCH   5   7
ATOM      7  C   UNL     1      -0.715  -5.362   0.000  0.00  0.00    +0.000 C 
ATOM      8  O   UNL     1      -1.429  -4.950   0.000  0.00  0.00    +0.000 OA
ATOM      9  C   UNL     1      -0.715  -6.188   0.000  0.00  0.00    +0.000 C 
ENDBRANCH   5   7
BRANCH   6  10
ATOM     10  O   UNL     1      -0.715  -3.712   0.000  0.00  0.00    +0.000 OA
BRANCH  10  11
ATOM     11  C   UNL     1      -1.429  -4.125   0.000  0.00  0.00    +0.000 C 
BRANCH  11  12
ATOM     12  C   UNL     1      -2.143  -3.712   0.000  0.00  0.00    +0.000 C 
BRANCH  12  13
ATOM     13  C   UNL     1      -2.858  -4.125   0.000  0.00  0.00    +0.000 C 
BRANCH  13  14
ATOM     14  C   UNL     1      -3.572  -3.712   0.000  0.00  0.00    +0.000 C 
ATOM     15  O   UNL     1      -4.287  -4.125   0.000  0.00  0.00    +0.000 OA
ATOM     16  O   UNL     1      -3.572  -2.888   0.000  0.00  0.00    +0.000 OA
ENDBRANCH  13  14
ENDBRANCH  12  13
ENDBRANCH  11  12
ENDBRANCH  10  11
ENDBRANCH   6  10
BRANCH   1  17
ATOM     17  C   UNL     1       0.715  -2.888   0.000  0.00  0.00    +0.000 C 
BRANCH  17  19
ATOM     18  C   UNL     1       0.000  -1.650   0.000  0.00  0.00    +0.000 C 
ATOM     19  C   UNL     1       0.000  -2.475   0.000  0.00  0.00    +0.000 C 
ENDBRANCH  17  19
ENDBRANCH   1  17
BRANCH   2  20
ATOM     20  O   UNL     1       2.143  -3.712   0.000  0.00  0.00    +0.000 OA
BRANCH  20  21
ATOM     21  C   UNL     1       2.858  -4.125   0.000  0.00  0.00    +0.000 C 
BRANCH  21  22
ATOM     22  C   UNL     1       3.572  -3.712   0.000  0.00  0.00    +0.000 C 
BRANCH  22  23
ATOM     23  C   UNL     1       4.287  -4.125   0.000  0.00  0.00    +0.000 C 
BRANCH  23  24
ATOM     24  S   UNL     1       5.001  -3.712   0.000  0.00  0.00    +0.000 S 
BRANCH  24  25
ATOM     25  C   UNL     1       5.716  -4.125   0.000  0.00  0.00    +0.000 A 
ATOM     26  C   UNL     1       6.430  -3.712   0.000  0.00  0.00    +0.000 A 
ATOM     27  C   UNL     1       7.145  -4.125   0.000  0.00  0.00    +0.000 A 
ATOM     28  C   UNL     1       7.145  -4.950   0.000  0.00  0.00    +0.000 A 
ATOM     29  C   UNL     1       6.430  -5.362   0.000  0.00  0.00    +0.000 A 
ATOM     30  C   UNL     1       5.716  -4.950   0.000  0.00  0.00    +0.000 A 
ATOM     31  O   UNL     1       6.430  -6.188   0.000  0.00  0.00    +0.000 OA
BRANCH  28  32
ATOM     32  C   UNL     1       7.859  -5.362   0.000  0.00  0.00    +0.000 C 
ATOM     33  O   UNL     1       8.574  -4.950   0.000  0.00  0.00    +0.000 OA
ATOM     34  C   UNL     1       7.859  -6.188   0.000  0.00  0.00    +0.000 C 
ENDBRANCH  28  32
BRANCH  30  35
ATOM     35  C   UNL     1       5.001  -5.362   0.000  0.00  0.00    +0.000 C 
BRANCH  35  36
ATOM     36  C   UNL     1       5.001  -6.188   0.000  0.00  0.00    +0.000 C 
ATOM     37  C   UNL     1       4.287  -6.600   0.000  0.00  0.00    +0.000 C 
ENDBRANCH  35  36
ENDBRANCH  30  35
ENDBRANCH  24  25
ENDBRANCH  23  24
ENDBRANCH  22  23
ENDBRANCH  21  22
ENDBRANCH  20  21
ENDBRANCH   2  20
TORSDOF 17
