REMARK  Name = 
REMARK  6 active torsions:
REMARK  status: ('A' for Active; 'I' for Inactive)
REMARK    1  A    between atoms: C_2  and  C_3
REMARK    2  A    between atoms: C_2  and  C_10
REMARK    3  A    between atoms: C_3  and  C_4
REMARK    4  A    between atoms: C_4  and  C_5
REMARK    5  A    between atoms: C_5  and  C_6
REMARK    6  A    between atoms: C_19  and  C_20
REMARK                            x       y       z     vdW  Elec       q    Type
REMARK                         _______ _______ _______ _____ _____    ______ ____
ROOT
ATOM      1  C   UNL     1      -2.135   0.032   0.000  0.00  0.00    +0.000 C 
ATOM      2  C   UNL     1      -2.221   0.853   0.000  0.00  0.00    +0.000 C 
ATOM      3  C   UNL     1      -3.028   1.024   0.000  0.00  0.00    +0.000 C 
ATOM      4  C   UNL     1      -3.440   0.309   0.000  0.00  0.00    +0.000 C 
ATOM      5  C   UNL     1      -2.888  -0.304   0.000  0.00  0.00    +0.000 C 
ATOM      6  C   UNL     1      -3.143  -1.088   0.000  0.00  0.00    +0.000 C 
ATOM      7  C   UNL     1      -3.950  -1.260   0.000  0.00  0.00    +0.000 C 
ATOM      8  C   UNL     1      -4.502  -0.647   0.000  0.00  0.00    +0.000 C 
ATOM      9  C   UNL     1      -4.247   0.138   0.000  0.00  0.00    +0.000 C 
ATOM     10  C   UNL     1      -4.799   0.751   0.000  0.00  0.00    +0.000 C 
ATOM     11  C   UNL     1      -2.275  -0.856   0.000  0.00  0.00    +0.000 C 
ENDROOT
BRANCH  10  12
ATOM     12  C   UNL     1      -5.606   0.580   0.000  0.00  0.00    +0.000 C 
ATOM     13  C   UNL     1      -6.158   1.193   0.000  0.00  0.00    +0.000 C 
ATOM     14  C   UNL     1      -6.965   1.021   0.000  0.00  0.00    +0.000 C 
ATOM     15  C   UNL     1      -7.517   1.634   0.000  0.00  0.00    +0.000 C 
ATOM     16  C   UNL     1      -7.262   2.419   0.000  0.00  0.00    +0.000 C 
ATOM     17  C   UNL     1      -6.455   2.590   0.000  0.00  0.00    +0.000 C 
ATOM     18  C   UNL     1      -5.903   1.977   0.000  0.00  0.00    +0.000 C 
ATOM     19  C   UNL     1      -5.096   2.149   0.000  0.00  0.00    +0.000 C 
ATOM     20  O   UNL     1      -6.200   3.375   0.000  0.00  0.00    +0.000 OA
ATOM     21  O   UNL     1      -8.324   1.463   0.000  0.00  0.00    +0.000 OA
ENDBRANCH  10  12
BRANCH   1  23
ATOM     22  C   UNL     1      -1.420  -1.206   0.000  0.00  0.00    +0.000 C 
ATOM     23  C   UNL     1      -1.420  -0.381   0.000  0.00  0.00    +0.000 C 
BRANCH  23  24
ATOM     24  C   UNL     1      -0.706   0.032   0.000  0.00  0.00    +0.000 C 
BRANCH  24  25
ATOM     25  C   UNL     1       0.009  -0.381   0.000  0.00  0.00    +0.000 C 
BRANCH  25  26
ATOM     26  C   UNL     1       0.723   0.032   0.000  0.00  0.00    +0.000 C 
ATOM     27  O   UNL     1       0.723   0.857   0.000  0.00  0.00    +0.000 OA
BRANCH  26  28
ATOM     28  C   UNL     1       1.438  -0.381   0.000  0.00  0.00    +0.000 C 
ATOM     29  C   UNL     1       2.152   0.032   0.000  0.00  0.00    +0.000 C 
ATOM     30  C   UNL     1       1.438  -1.206   0.000  0.00  0.00    +0.000 C 
ENDBRANCH  26  28
ENDBRANCH  25  26
ENDBRANCH  24  25
ENDBRANCH  23  24
ENDBRANCH   1  23
TORSDOF 6
