REMARK  Name = 
REMARK  1 active torsions:
REMARK  status: ('A' for Active; 'I' for Inactive)
REMARK    1  A    between atoms: C_1  and  C_4
REMARK                            x       y       z     vdW  Elec       q    Type
REMARK                         _______ _______ _______ _____ _____    ______ ____
ROOT
ATOM      1  C   UNL     1      -0.344  -0.615   0.000  0.00  0.00    +0.000 A 
ATOM      2  C   UNL     1       0.348  -0.213   0.000  0.00  0.00    +0.000 A 
ATOM      3  C   UNL     1      -1.067  -0.194   0.000  0.00  0.00    +0.000 A 
ATOM      4  C   UNL     1       0.355   0.610   0.000  0.00  0.00    +0.000 A 
ATOM      5  C   UNL     1      -1.060   0.622   0.000  0.00  0.00    +0.000 A 
ATOM      6  C   UNL     1      -0.337   1.036   0.000  0.00  0.00    +0.000 A 
ATOM      7  O   UNL     1       1.082   1.029   0.000  0.00  0.00    +0.000 OA
ATOM      8  C   UNL     1      -0.330   1.865   0.000  0.00  0.00    +0.000 C 
ENDROOT
BRANCH   1   9
ATOM      9  C   UNL     1      -0.351  -1.440   0.000  0.00  0.00    +0.000 C 
ATOM     10  C   UNL     1       0.353  -1.865   0.000  0.00  0.00    +0.000 C 
ATOM     11  C   UNL     1      -1.082  -1.852   0.000  0.00  0.00    +0.000 C 
ENDBRANCH   1   9
TORSDOF 1
