REMARK  Name = 
REMARK  8 active torsions:
REMARK  status: ('A' for Active; 'I' for Inactive)
REMARK    1  A    between atoms: N_7  and  C_10
REMARK    2  A    between atoms: C_10  and  C_11
REMARK    3  A    between atoms: C_11  and  N_12
REMARK    4  A    between atoms: N_12  and  C_13
REMARK    5  A    between atoms: C_13  and  C_14
REMARK    6  A    between atoms: C_14  and  C_15
REMARK    7  A    between atoms: C_15  and  C_16
REMARK    8  A    between atoms: C_16  and  C_17
REMARK                            x       y       z     vdW  Elec       q    Type
REMARK                         _______ _______ _______ _____ _____    ______ ____
ROOT
ATOM      1  C   UNL     1       1.886  -1.797   0.000  0.00  0.00    +0.000 A 
ATOM      2  N   UNL     1       1.079  -1.969   0.000  0.00  0.00    +0.000 NA
ATOM      3  C   UNL     1       0.527  -1.356   0.000  0.00  0.00    +0.000 A 
ATOM      4  C   UNL     1       0.782  -0.571   0.000  0.00  0.00    +0.000 A 
ATOM      5  C   UNL     1       1.589  -0.400   0.000  0.00  0.00    +0.000 A 
ATOM      6  N   UNL     1       2.141  -1.013   0.000  0.00  0.00    +0.000 NA
ATOM      7  N   UNL     1       1.675   0.421   0.000  0.00  0.00    +0.000 N 
ATOM      8  C   UNL     1       0.921   0.756   0.000  0.00  0.00    +0.000 A 
ATOM      9  N   UNL     1       0.369   0.143   0.000  0.00  0.00    +0.000 NA
ATOM     10  N   UNL     1      -0.280  -1.527   0.000  0.00  0.00    +0.000 NA
ENDROOT
BRANCH   7  11
ATOM     11  C   UNL     1       2.389   0.833   0.000  0.00  0.00    +0.000 C 
BRANCH  11  12
ATOM     12  C   UNL     1       3.104   0.421   0.000  0.00  0.00    +0.000 C 
BRANCH  12  13
ATOM     13  N   UNL     1       3.818   0.833   0.000  0.00  0.00    +0.000 NA
BRANCH  13  14
ATOM     14  C   UNL     1       4.533   0.421   0.000  0.00  0.00    +0.000 C 
BRANCH  14  15
ATOM     15  C   UNL     1       5.247   0.833   0.000  0.00  0.00    +0.000 C 
BRANCH  15  16
ATOM     16  C   UNL     1       5.962   0.421   0.000  0.00  0.00    +0.000 C 
BRANCH  16  17
ATOM     17  C   UNL     1       6.676   0.833   0.000  0.00  0.00    +0.000 C 
BRANCH  17  18
ATOM     18  C   UNL     1       7.391   0.421   0.000  0.00  0.00    +0.000 C 
ATOM     19  O   UNL     1       8.105   0.833   0.000  0.00  0.00    +0.000 OA
ENDBRANCH  17  18
ENDBRANCH  16  17
ENDBRANCH  15  16
ENDBRANCH  14  15
ENDBRANCH  13  14
ENDBRANCH  12  13
ENDBRANCH  11  12
ENDBRANCH   7  11
TORSDOF 8
