REMARK  Name = 
REMARK  14 active torsions:
REMARK  status: ('A' for Active; 'I' for Inactive)
REMARK    1  A    between atoms: P_1  and  C_37
REMARK    2  A    between atoms: O_2  and  C_21
REMARK    3  A    between atoms: O_2  and  C_22
REMARK    4  A    between atoms: O_5  and  C_38
REMARK    5  A    between atoms: O_5  and  C_42
REMARK    6  A    between atoms: N_12  and  C_26
REMARK    7  A    between atoms: N_13  and  C_29
REMARK    8  A    between atoms: C_15  and  C_21
REMARK    9  A    between atoms: C_23  and  C_33
REMARK   10  A    between atoms: C_25  and  C_26
REMARK   11  A    between atoms: C_29  and  C_30
REMARK   12  A    between atoms: C_29  and  C_31
REMARK   13  A    between atoms: C_30  and  C_34
REMARK   14  A    between atoms: C_42  and  C_43
REMARK                            x       y       z     vdW  Elec       q    Type
REMARK                         _______ _______ _______ _____ _____    ______ ____
ROOT
ATOM      1  O   UNL     1      -0.714  -2.475   0.000  0.00  0.00    +0.000 OA
ATOM      2  N   UNL     1       0.000  -1.238   0.000  0.00  0.00    +0.000 N 
ATOM      3  C   UNL     1      -0.714  -1.650   0.000  0.00  0.00    +0.000 C 
ATOM      4  H   UNL     1       0.000  -0.726   0.000  0.00  0.00    +0.000 HD
ENDROOT
BRANCH   2   5
ATOM      5  C   UNL     1       0.714  -1.650   0.000  0.00  0.00    +0.000 C 
ATOM      6  C   UNL     1       0.714  -2.475   0.000  0.00  0.00    +0.000 C 
BRANCH   5  10
ATOM      7  C   UNL     1       2.858  -0.412   0.000  0.00  0.00    +0.000 A 
ATOM      8  C   UNL     1       2.143   0.000   0.000  0.00  0.00    +0.000 A 
ATOM      9  C   UNL     1       2.858  -1.238   0.000  0.00  0.00    +0.000 A 
ATOM     10  C   UNL     1       1.429  -1.238   0.000  0.00  0.00    +0.000 A 
ATOM     11  C   UNL     1       1.429  -0.412   0.000  0.00  0.00    +0.000 A 
ATOM     12  C   UNL     1       2.143  -1.650   0.000  0.00  0.00    +0.000 A 
BRANCH   8  15
ATOM     13  O   UNL     1       1.429   1.238   0.000  0.00  0.00    +0.000 OA
ATOM     14  N   UNL     1       2.858   1.238   0.000  0.00  0.00    +0.000 N 
ATOM     15  C   UNL     1       2.143   0.825   0.000  0.00  0.00    +0.000 C 
ATOM     16  H   UNL     1       3.301   0.982   0.000  0.00  0.00    +0.000 HD
ATOM     17  H   UNL     1       2.858   1.749   0.000  0.00  0.00    +0.000 HD
ENDBRANCH   8  15
BRANCH   7  18
ATOM     18  O   UNL     1       3.572   0.000   0.000  0.00  0.00    +0.000 OA
BRANCH  18  19
ATOM     19  C   UNL     1       4.287  -0.412   0.000  0.00  0.00    +0.000 C 
BRANCH  19  20
ATOM     20  C   UNL     1       5.001   0.000   0.000  0.00  0.00    +0.000 C 
ATOM     21  C   UNL     1       5.001   0.825   0.000  0.00  0.00    +0.000 C 
ATOM     22  C   UNL     1       5.716  -0.412   0.000  0.00  0.00    +0.000 C 
ATOM     23  C   UNL     1       5.716   1.238   0.000  0.00  0.00    +0.000 C 
ATOM     24  C   UNL     1       6.430   0.000   0.000  0.00  0.00    +0.000 C 
ATOM     25  C   UNL     1       6.430   0.825   0.000  0.00  0.00    +0.000 C 
ENDBRANCH  19  20
ENDBRANCH  18  19
ENDBRANCH   7  18
ENDBRANCH   5  10
ENDBRANCH   2   5
BRANCH   3  26
ATOM     26  C   UNL     1      -1.429  -1.238   0.000  0.00  0.00    +0.000 C 
BRANCH  26  28
ATOM     27  O   UNL     1      -1.429  -2.888   0.000  0.00  0.00    +0.000 OA
ATOM     28  N   UNL     1      -2.143  -1.650   0.000  0.00  0.00    +0.000 N 
ATOM     29  C   UNL     1      -2.143  -2.475   0.000  0.00  0.00    +0.000 C 
ATOM     30  C   UNL     1      -2.858  -2.888   0.000  0.00  0.00    +0.000 C 
ATOM     31  H   UNL     1      -2.586  -1.394   0.000  0.00  0.00    +0.000 HD
ENDBRANCH  26  28
BRANCH  26  32
ATOM     32  C   UNL     1      -1.429  -0.412   0.000  0.00  0.00    +0.000 C 
BRANCH  32  33
ATOM     33  C   UNL     1      -2.143   0.000   0.000  0.00  0.00    +0.000 A 
ATOM     34  C   UNL     1      -2.143   0.825   0.000  0.00  0.00    +0.000 A 
ATOM     35  C   UNL     1      -2.858  -0.412   0.000  0.00  0.00    +0.000 A 
ATOM     36  C   UNL     1      -2.858   1.238   0.000  0.00  0.00    +0.000 A 
ATOM     37  C   UNL     1      -3.572   0.825   0.000  0.00  0.00    +0.000 A 
ATOM     38  C   UNL     1      -3.572   0.000   0.000  0.00  0.00    +0.000 A 
BRANCH  36  39
ATOM     39  P   UNL     1      -2.858   2.062   0.000  0.00  0.00    +0.000 P 
ATOM     40  O   UNL     1      -2.858   2.888   0.000  0.00  0.00    +0.000 OA
ATOM     41  O   UNL     1      -2.033   2.062   0.000  0.00  0.00    +0.000 OA
ATOM     42  O   UNL     1      -3.683   2.062   0.000  0.00  0.00    +0.000 OA
ENDBRANCH  36  39
BRANCH  37  43
ATOM     43  O   UNL     1      -4.287   1.238   0.000  0.00  0.00    +0.000 OA
BRANCH  43  44
ATOM     44  C   UNL     1      -5.001   0.825   0.000  0.00  0.00    +0.000 C 
BRANCH  44  47
ATOM     45  O   UNL     1      -6.430   0.825   0.000  0.00  0.00    +0.000 OA
ATOM     46  O   UNL     1      -5.716   2.062   0.000  0.00  0.00    +0.000 OA
ATOM     47  C   UNL     1      -5.716   1.238   0.000  0.00  0.00    +0.000 C 
ENDBRANCH  44  47
ENDBRANCH  43  44
ENDBRANCH  37  43
ENDBRANCH  32  33
ENDBRANCH  26  32
ENDBRANCH   3  26
TORSDOF 14
