REMARK  Name = 
REMARK  5 active torsions:
REMARK  status: ('A' for Active; 'I' for Inactive)
REMARK    1  A    between atoms: N_10  and  C_18
REMARK    2  A    between atoms: C_12  and  C_16
REMARK    3  A    between atoms: C_15  and  C_17
REMARK    4  A    between atoms: C_21  and  C_24
REMARK    5  A    between atoms: C_22  and  C_25
REMARK                            x       y       z     vdW  Elec       q    Type
REMARK                         _______ _______ _______ _____ _____    ______ ____
ROOT
ATOM      1  O   UNL     1      -0.651  -1.562   0.000  0.00  0.00    +0.000 OA
ATOM      2  N   UNL     1       0.063  -0.329   0.000  0.00  0.00    +0.000 N 
ATOM      3  C   UNL     1       0.063  -1.148   0.000  0.00  0.00    +0.000 C 
ATOM      4  H   UNL     1       0.504  -0.070   0.000  0.00  0.00    +0.000 HD
ENDROOT
BRANCH   3   7
ATOM      5  N   UNL     1       1.183  -0.847   0.000  0.00  0.00    +0.000 N 
ATOM      6  N   UNL     1       1.989  -1.022   0.000  0.00  0.00    +0.000 NA
ATOM      7  C   UNL     1       0.777  -1.562   0.000  0.00  0.00    +0.000 C 
ATOM      8  C   UNL     1       1.323  -2.171   0.000  0.00  0.00    +0.000 C 
ATOM      9  C   UNL     1       0.161  -2.115   0.000  0.00  0.00    +0.000 C 
ATOM     10  C   UNL     1       2.073  -1.835   0.000  0.00  0.00    +0.000 C 
ATOM     11  H   UNL     1       0.980  -0.385   0.000  0.00  0.00    +0.000 HD
BRANCH  10  15
ATOM     12  F   UNL     1       2.381  -2.962   0.000  0.00  0.00    +0.000 F 
ATOM     13  F   UNL     1       3.200  -1.534   0.000  0.00  0.00    +0.000 F 
ATOM     14  F   UNL     1       3.501  -2.661   0.000  0.00  0.00    +0.000 F 
ATOM     15  C   UNL     1       2.787  -2.248   0.000  0.00  0.00    +0.000 C 
ENDBRANCH  10  15
ENDBRANCH   3   7
BRANCH   2  16
ATOM     16  C   UNL     1      -0.651   0.084   0.000  0.00  0.00    +0.000 A 
ATOM     17  C   UNL     1      -0.651   0.910   0.000  0.00  0.00    +0.000 A 
ATOM     18  C   UNL     1      -1.365  -0.329   0.000  0.00  0.00    +0.000 A 
ATOM     19  C   UNL     1      -1.365   1.316   0.000  0.00  0.00    +0.000 A 
ATOM     20  C   UNL     1      -2.073   0.910   0.000  0.00  0.00    +0.000 A 
ATOM     21  C   UNL     1      -2.073   0.084   0.000  0.00  0.00    +0.000 A 
BRANCH  19  25
ATOM     22  F   UNL     1      -2.185   2.143   0.000  0.00  0.00    +0.000 F 
ATOM     23  F   UNL     1      -0.539   2.143   0.000  0.00  0.00    +0.000 F 
ATOM     24  F   UNL     1      -1.365   2.962   0.000  0.00  0.00    +0.000 F 
ATOM     25  C   UNL     1      -1.365   2.143   0.000  0.00  0.00    +0.000 C 
ENDBRANCH  19  25
BRANCH  20  27
ATOM     26  N   UNL     1      -3.501   1.730   0.000  0.00  0.00    +0.000 NA
ATOM     27  C   UNL     1      -2.787   1.316   0.000  0.00  0.00    +0.000 C 
ENDBRANCH  20  27
ENDBRANCH   2  16
TORSDOF 5
