REMARK  Name = 
REMARK  4 active torsions:
REMARK  status: ('A' for Active; 'I' for Inactive)
REMARK    1  A    between atoms: C_15  and  C_17
REMARK    2  A    between atoms: N_18  and  C_22
REMARK    3  A    between atoms: C_27  and  C_38
REMARK    4  A    between atoms: C_38  and  C_39
REMARK                            x       y       z     vdW  Elec       q    Type
REMARK                         _______ _______ _______ _____ _____    ______ ____
ROOT
ATOM      1  C   UNL     1      -0.353   0.417   0.000  0.00  0.00    +0.000 C 
ATOM      2  C   UNL     1      -0.849   1.083   0.000  0.00  0.00    +0.000 C 
ATOM      3  O   UNL     1      -0.836  -0.255   0.000  0.00  0.00    +0.000 OA
ATOM      4  C   UNL     1      -1.625  -0.007   0.000  0.00  0.00    +0.000 C 
ATOM      5  N   UNL     1      -1.629   0.816   0.000  0.00  0.00    +0.000 N 
ATOM      6  C   UNL     1      -2.339   1.222   0.000  0.00  0.00    +0.000 C 
ATOM      7  C   UNL     1      -3.050   0.810   0.000  0.00  0.00    +0.000 C 
ATOM      8  C   UNL     1      -2.332  -0.424   0.000  0.00  0.00    +0.000 C 
ATOM      9  N   UNL     1      -3.048  -0.015   0.000  0.00  0.00    +0.000 N 
ATOM     10  C   UNL     1      -3.658  -0.570   0.000  0.00  0.00    +0.000 C 
ATOM     11  C   UNL     1      -3.319  -1.322   0.000  0.00  0.00    +0.000 C 
ATOM     12  C   UNL     1      -2.499  -1.231   0.000  0.00  0.00    +0.000 C 
ATOM     13  O   UNL     1      -1.620  -0.838   0.000  0.00  0.00    +0.000 OA
ATOM     14  O   UNL     1      -0.604   1.873   0.000  0.00  0.00    +0.000 OA
ATOM     15  O   UNL     1      -3.767   1.222   0.000  0.00  0.00    +0.000 OA
ATOM     16  C   UNL     1       0.162   0.927   0.000  0.00  0.00    +0.000 C 
ENDROOT
BRANCH   1  18
ATOM     17  C   UNL     1       1.086   0.424   0.000  0.00  0.00    +0.000 C 
ATOM     18  N   UNL     1       0.369   0.012   0.000  0.00  0.00    +0.000 NA
ATOM     19  O   UNL     1       1.088   1.251   0.000  0.00  0.00    +0.000 OA
BRANCH  17  34
ATOM     20  C   UNL     1       1.798  -2.458   0.000  0.00  0.00    +0.000 A 
ATOM     21  C   UNL     1       1.795  -3.283   0.000  0.00  0.00    +0.000 A 
ATOM     22  C   UNL     1       2.512  -3.697   0.000  0.00  0.00    +0.000 A 
ATOM     23  C   UNL     1       3.225  -3.287   0.000  0.00  0.00    +0.000 A 
ATOM     24  N   UNL     1       4.055  -3.448   0.000  0.00  0.00    +0.000 NA
ATOM     25  C   UNL     1       4.491  -2.689   0.000  0.00  0.00    +0.000 A 
ATOM     26  C   UNL     1       3.935  -2.059   0.000  0.00  0.00    +0.000 A 
ATOM     27  C   UNL     1       2.512  -2.049   0.000  0.00  0.00    +0.000 A 
ATOM     28  C   UNL     1       3.225  -2.465   0.000  0.00  0.00    +0.000 A 
ATOM     29  C   UNL     1       3.944  -1.234   0.000  0.00  0.00    +0.000 C 
ATOM     30  C   UNL     1       2.512  -1.226   0.000  0.00  0.00    +0.000 C 
ATOM     31  C   UNL     1       3.227  -0.815   0.000  0.00  0.00    +0.000 C 
ATOM     32  N   UNL     1       3.228   0.005   0.000  0.00  0.00    +0.000 NA
ATOM     33  C   UNL     1       2.516   0.420   0.000  0.00  0.00    +0.000 C 
ATOM     34  C   UNL     1       1.802   0.009   0.000  0.00  0.00    +0.000 C 
ATOM     35  C   UNL     1       1.799  -0.817   0.000  0.00  0.00    +0.000 C 
ATOM     36  C   UNL     1       3.946   0.417   0.000  0.00  0.00    +0.000 C 
ENDBRANCH  17  34
ENDBRANCH   1  18
BRANCH   6  37
ATOM     37  C   UNL     1      -2.341   2.049   0.000  0.00  0.00    +0.000 C 
BRANCH  37  38
ATOM     38  C   UNL     1      -3.059   2.460   0.000  0.00  0.00    +0.000 A 
ATOM     39  C   UNL     1      -3.058   3.286   0.000  0.00  0.00    +0.000 A 
ATOM     40  C   UNL     1      -3.775   3.697   0.000  0.00  0.00    +0.000 A 
ATOM     41  C   UNL     1      -4.491   3.282   0.000  0.00  0.00    +0.000 A 
ATOM     42  C   UNL     1      -4.486   2.450   0.000  0.00  0.00    +0.000 A 
ATOM     43  C   UNL     1      -3.769   2.043   0.000  0.00  0.00    +0.000 A 
ENDBRANCH  37  38
ENDBRANCH   6  37
TORSDOF 4
