REMARK  Name = 
REMARK  8 active torsions:
REMARK  status: ('A' for Active; 'I' for Inactive)
REMARK    1  A    between atoms: N_9  and  C_36
REMARK    2  A    between atoms: C_13  and  N_14
REMARK    3  A    between atoms: N_14  and  C_21
REMARK    4  A    between atoms: C_21  and  C_22
REMARK    5  A    between atoms: C_24  and  C_32
REMARK    6  A    between atoms: C_26  and  C_28
REMARK    7  A    between atoms: C_36  and  C_37
REMARK    8  A    between atoms: C_40  and  C_43
REMARK                            x       y       z     vdW  Elec       q    Type
REMARK                         _______ _______ _______ _____ _____    ______ ____
ROOT
ATOM      1  C   UNL     1      -1.552  -1.641   0.000  0.00  0.00    +0.000 C 
ATOM      2  C   UNL     1      -0.837  -1.228   0.000  0.00  0.00    +0.000 A 
ATOM      3  C   UNL     1      -0.123  -1.641   0.000  0.00  0.00    +0.000 A 
ATOM      4  C   UNL     1       0.592  -1.228   0.000  0.00  0.00    +0.000 A 
ATOM      5  C   UNL     1       0.592  -0.403   0.000  0.00  0.00    +0.000 A 
ATOM      6  C   UNL     1      -0.123   0.009   0.000  0.00  0.00    +0.000 A 
ATOM      7  C   UNL     1      -0.837  -0.403   0.000  0.00  0.00    +0.000 A 
ATOM      8  C   UNL     1      -0.123   0.834   0.000  0.00  0.00    +0.000 C 
ATOM      9  N   UNL     1       1.236   0.111   0.000  0.00  0.00    +0.000 N 
ATOM     10  C   UNL     1       2.041  -0.072   0.000  0.00  0.00    +0.000 C 
ATOM     11  C   UNL     1       2.399  -0.816   0.000  0.00  0.00    +0.000 C 
ATOM     12  C   UNL     1       2.041  -1.559   0.000  0.00  0.00    +0.000 C 
ATOM     13  C   UNL     1       1.236  -1.743   0.000  0.00  0.00    +0.000 C 
ENDROOT
BRANCH  13  14
ATOM     14  N   UNL     1       1.053  -2.547   0.000  0.00  0.00    +0.000 N 
ATOM     15  C   UNL     1       0.265  -2.790   0.000  0.00  0.00    +0.000 A 
ATOM     16  N   UNL     1      -0.002  -3.571   0.000  0.00  0.00    +0.000 NA
ATOM     17  N   UNL     1      -0.827  -3.558   0.000  0.00  0.00    +0.000 N 
ATOM     18  N   UNL     1      -1.070  -2.770   0.000  0.00  0.00    +0.000 NA
ATOM     19  N   UNL     1      -0.396  -2.295   0.000  0.00  0.00    +0.000 NA
ATOM     20  C   UNL     1      -1.322  -4.219   0.000  0.00  0.00    +0.000 C 
BRANCH  14  21
ATOM     21  C   UNL     1       1.658  -3.108   0.000  0.00  0.00    +0.000 C 
BRANCH  21  22
ATOM     22  C   UNL     1       1.474  -3.912   0.000  0.00  0.00    +0.000 A 
ATOM     23  C   UNL     1       2.079  -4.474   0.000  0.00  0.00    +0.000 A 
ATOM     24  C   UNL     1       1.895  -5.278   0.000  0.00  0.00    +0.000 A 
ATOM     25  C   UNL     1       1.107  -5.521   0.000  0.00  0.00    +0.000 A 
ATOM     26  C   UNL     1       0.502  -4.960   0.000  0.00  0.00    +0.000 A 
ATOM     27  C   UNL     1       0.686  -4.156   0.000  0.00  0.00    +0.000 A 
BRANCH  26  28
ATOM     28  C   UNL     1      -0.286  -5.203   0.000  0.00  0.00    +0.000 C 
ATOM     29  F   UNL     1      -1.075  -5.446   0.000  0.00  0.00    +0.000 F 
ATOM     30  F   UNL     1      -0.043  -5.991   0.000  0.00  0.00    +0.000 F 
ATOM     31  F   UNL     1      -0.529  -4.415   0.000  0.00  0.00    +0.000 F 
ENDBRANCH  26  28
BRANCH  24  32
ATOM     32  C   UNL     1       2.500  -5.839   0.000  0.00  0.00    +0.000 C 
ATOM     33  F   UNL     1       3.105  -6.400   0.000  0.00  0.00    +0.000 F 
ATOM     34  F   UNL     1       1.939  -6.444   0.000  0.00  0.00    +0.000 F 
ATOM     35  F   UNL     1       3.061  -5.234   0.000  0.00  0.00    +0.000 F 
ENDBRANCH  24  32
ENDBRANCH  21  22
ENDBRANCH  14  21
ENDBRANCH  13  14
BRANCH   9  36
ATOM     36  C   UNL     1       1.053   0.915   0.000  0.00  0.00    +0.000 C 
BRANCH  36  37
ATOM     37  C   UNL     1       1.658   1.477   0.000  0.00  0.00    +0.000 C 
ATOM     38  C   UNL     1       1.474   2.281   0.000  0.00  0.00    +0.000 C 
ATOM     39  C   UNL     1       2.079   2.842   0.000  0.00  0.00    +0.000 C 
ATOM     40  C   UNL     1       2.867   2.599   0.000  0.00  0.00    +0.000 C 
ATOM     41  C   UNL     1       3.051   1.794   0.000  0.00  0.00    +0.000 C 
ATOM     42  C   UNL     1       2.446   1.233   0.000  0.00  0.00    +0.000 C 
BRANCH  40  43
ATOM     43  C   UNL     1       3.472   3.160   0.000  0.00  0.00    +0.000 C 
ATOM     44  O   UNL     1       3.288   3.964   0.000  0.00  0.00    +0.000 OA
ATOM     45  O   UNL     1       4.260   2.917   0.000  0.00  0.00    +0.000 OA
ENDBRANCH  40  43
ENDBRANCH  36  37
ENDBRANCH   9  36
TORSDOF 8
