REMARK  Name = 
REMARK  9 active torsions:
REMARK  status: ('A' for Active; 'I' for Inactive)
REMARK    1  A    between atoms: O_5  and  C_14
REMARK    2  A    between atoms: O_5  and  C_19
REMARK    3  A    between atoms: N_8  and  C_17
REMARK    4  A    between atoms: C_14  and  C_15
REMARK    5  A    between atoms: C_14  and  C_16
REMARK    6  A    between atoms: C_25  and  C_29
REMARK    7  A    between atoms: C_32  and  C_37
REMARK    8  A    between atoms: CA_36  and  C_37
REMARK    9  A    between atoms: CA_36  and  C_38
REMARK                            x       y       z     vdW  Elec       q    Type
REMARK                         _______ _______ _______ _____ _____    ______ ____
ROOT
ATOM      1  O   UNL     1       2.861  -0.576   0.000  0.00  0.00    +0.000 OA
ENDROOT
BRANCH   1   5
ATOM      2  N   UNL     1       2.147  -1.816   0.000  0.00  0.00    +0.000 NA
ATOM      3  N   UNL     1       0.718  -1.816   0.000  0.00  0.00    +0.000 NA
ATOM      4  N   UNL     1       1.432  -2.888   0.000  0.00  0.00    +0.000 NA
ATOM      5  C   UNL     1       2.147  -0.991   0.000  0.00  0.00    +0.000 A 
ATOM      6  C   UNL     1       1.432  -0.578   0.000  0.00  0.00    +0.000 A 
ATOM      7  C   UNL     1       0.718  -0.991   0.000  0.00  0.00    +0.000 A 
ATOM      8  C   UNL     1       1.432  -2.228   0.000  0.00  0.00    +0.000 A 
BRANCH   7   9
ATOM      9  C   UNL     1       0.003  -0.578   0.000  0.00  0.00    +0.000 A 
ATOM     10  C   UNL     1       0.002   0.247   0.000  0.00  0.00    +0.000 A 
ATOM     11  C   UNL     1      -0.711  -0.992   0.000  0.00  0.00    +0.000 A 
ATOM     12  C   UNL     1      -1.427   0.245   0.000  0.00  0.00    +0.000 A 
ATOM     13  C   UNL     1      -0.714   0.658   0.000  0.00  0.00    +0.000 A 
ATOM     14  C   UNL     1      -1.426  -0.580   0.000  0.00  0.00    +0.000 A 
BRANCH  12  15
ATOM     15  C   UNL     1      -2.144   0.655   0.000  0.00  0.00    +0.000 C 
BRANCH  15  17
ATOM     16  N   UNL     1      -2.855  -0.420   0.000  0.00  0.00    +0.000 NA
ATOM     17  CA  UNL     1      -2.857   0.240   0.000  0.00  0.00    +0.000 C 
BRANCH  17  20
ATOM     18  O   UNL     1      -4.287   0.235   0.000  0.00  0.00    +0.000 OA
ATOM     19  OXT UNL     1      -3.575   1.310   0.000  0.00  0.00    +0.000 OA
ATOM     20  C   UNL     1      -3.573   0.650   0.000  0.00  0.00    +0.000 C 
ENDBRANCH  17  20
ENDBRANCH  15  17
ENDBRANCH  12  15
ENDBRANCH   7   9
ENDBRANCH   1   5
BRANCH   1  21
ATOM     21  C   UNL     1       2.860   0.249   0.000  0.00  0.00    +0.000 C 
BRANCH  21  23
ATOM     22 CL   UNL     1       5.574   1.818   0.000  0.00  0.00    +0.000 Cl
ATOM     23  C   UNL     1       3.573   0.663   0.000  0.00  0.00    +0.000 A 
ATOM     24  C   UNL     1       3.573   1.488   0.000  0.00  0.00    +0.000 A 
ATOM     25  C   UNL     1       4.288   0.251   0.000  0.00  0.00    +0.000 A 
ATOM     26  C   UNL     1       4.288   1.901   0.000  0.00  0.00    +0.000 A 
ATOM     27  C   UNL     1       5.002   1.488   0.000  0.00  0.00    +0.000 A 
ATOM     28  C   UNL     1       5.002   0.663   0.000  0.00  0.00    +0.000 A 
BRANCH  24  29
ATOM     29  N   UNL     1       2.859   1.901   0.000  0.00  0.00    +0.000 N 
ATOM     30  N   UNL     1       2.115   1.560   0.000  0.00  0.00    +0.000 NA
ATOM     31  C   UNL     1       2.784   2.715   0.000  0.00  0.00    +0.000 A 
ATOM     32  C   UNL     1       1.564   2.174   0.000  0.00  0.00    +0.000 A 
ATOM     33  C   UNL     1       1.977   2.888   0.000  0.00  0.00    +0.000 A 
ATOM     34  C   UNL     1       0.907   2.106   0.000  0.00  0.00    +0.000 C 
ENDBRANCH  24  29
ENDBRANCH  21  23
BRANCH  21  38
ATOM     35  F   UNL     1       2.145   1.212   0.000  0.00  0.00    +0.000 F 
ATOM     36  F   UNL     1       1.573   0.992   0.000  0.00  0.00    +0.000 F 
ATOM     37  F   UNL     1       1.573   0.332   0.000  0.00  0.00    +0.000 F 
ATOM     38  C   UNL     1       2.145   0.662   0.000  0.00  0.00    +0.000 C 
ENDBRANCH  21  38
ENDBRANCH   1  21
TORSDOF 9
