REMARK  Name = 
REMARK  3 active torsions:
REMARK  status: ('A' for Active; 'I' for Inactive)
REMARK    1  A    between atoms: C_1  and  O_2
REMARK    2  A    between atoms: C_1  and  C_9
REMARK    3  A    between atoms: O_2  and  C_3
REMARK                            x       y       z     vdW  Elec       q    Type
REMARK                         _______ _______ _______ _____ _____    ______ ____
ROOT
ATOM      1  C   UNL     1       0.715  -1.238   0.000  0.00  0.00    +0.000 A 
ATOM      2  C   UNL     1       0.715  -0.412   0.000  0.00  0.00    +0.000 A 
ATOM      3  C   UNL     1       1.429   0.000   0.000  0.00  0.00    +0.000 A 
ATOM      4  C   UNL     1       2.143  -0.412   0.000  0.00  0.00    +0.000 A 
ATOM      5  C   UNL     1       2.858   0.000   0.000  0.00  0.00    +0.000 A 
ATOM      6  C   UNL     1       3.572  -0.412   0.000  0.00  0.00    +0.000 A 
ATOM      7  C   UNL     1       3.572  -1.238   0.000  0.00  0.00    +0.000 A 
ATOM      8  C   UNL     1       2.858  -1.650   0.000  0.00  0.00    +0.000 A 
ATOM      9  C   UNL     1       2.143  -1.238   0.000  0.00  0.00    +0.000 A 
ATOM     10  C   UNL     1       1.429  -1.650   0.000  0.00  0.00    +0.000 A 
ENDROOT
BRANCH   1  11
ATOM     11  C   UNL     1       0.000  -1.650   0.000  0.00  0.00    +0.000 C 
BRANCH  11  12
ATOM     12  O   UNL     1       0.000  -2.475   0.000  0.00  0.00    +0.000 OA
BRANCH  12  13
ATOM     13  C   UNL     1      -0.715  -2.888   0.000  0.00  0.00    +0.000 C 
ATOM     14  C   UNL     1      -0.715  -3.712   0.000  0.00  0.00    +0.000 C 
ATOM     15  C   UNL     1      -1.429  -4.125   0.000  0.00  0.00    +0.000 C 
ATOM     16  N   UNL     1      -2.143  -3.712   0.000  0.00  0.00    +0.000 NA
ATOM     17  C   UNL     1      -2.143  -2.888   0.000  0.00  0.00    +0.000 C 
ATOM     18  C   UNL     1      -1.429  -2.475   0.000  0.00  0.00    +0.000 C 
ENDBRANCH  12  13
ENDBRANCH  11  12
ENDBRANCH   1  11
TORSDOF 3
