REMARK  Name = 
REMARK  2 active torsions:
REMARK  status: ('A' for Active; 'I' for Inactive)
REMARK    1  A    between atoms: N_2  and  C1*_5
REMARK    2  A    between atoms: C4*_15  and  C5*_18
REMARK                            x       y       z     vdW  Elec       q    Type
REMARK                         _______ _______ _______ _____ _____    ______ ____
ROOT
ATOM      1  C   UNL     1       0.482   0.525   0.000  0.00  0.00    +0.000 A 
ATOM      2  N   UNL     1       1.269   0.279   0.000  0.00  0.00    +0.000 N 
ATOM      3  C   UNL     1       0.482   1.359   0.000  0.00  0.00    +0.000 A 
ATOM      4  N   UNL     1      -0.224   0.120   0.000  0.00  0.00    +0.000 NA
ATOM      5  C   UNL     1       1.743   0.942   0.000  0.00  0.00    +0.000 A 
ATOM      6  N   UNL     1       1.269   1.609   0.000  0.00  0.00    +0.000 NA
ATOM      7  C   UNL     1      -0.224   1.768   0.000  0.00  0.00    +0.000 A 
ATOM      8  C   UNL     1      -0.950   0.525   0.000  0.00  0.00    +0.000 A 
ATOM      9  N   UNL     1      -0.950   1.359   0.000  0.00  0.00    +0.000 NA
ATOM     10  N   UNL     1      -0.224   2.597   0.000  0.00  0.00    +0.000 NA
ATOM     11  F   UNL     1      -1.663   0.120   0.000  0.00  0.00    +0.000 F 
ENDROOT
BRANCH   2  12
ATOM     12  C1* UNL     1       1.228  -1.155   0.000  0.00  0.00    +0.000 C 
ATOM     13  O4* UNL     1       0.564  -0.664   0.000  0.00  0.00    +0.000 OA
ATOM     14  C2* UNL     1       0.973  -1.934   0.000  0.00  0.00    +0.000 C 
ATOM     15  C4* UNL     1      -0.096  -1.143   0.000  0.00  0.00    +0.000 C 
ATOM     16  C3* UNL     1       0.151  -1.938   0.000  0.00  0.00    +0.000 C 
ATOM     17  O2* UNL     1       1.440  -2.597   0.000  0.00  0.00    +0.000 OA
ATOM     18  O3* UNL     1      -0.343  -2.586   0.000  0.00  0.00    +0.000 OA
BRANCH  15  19
ATOM     19  C5* UNL     1      -0.759  -0.459   0.000  0.00  0.00    +0.000 C 
ATOM     20  O5* UNL     1      -1.743  -0.840   0.000  0.00  0.00    +0.000 OA
ENDBRANCH  15  19
ENDBRANCH   2  12
TORSDOF 2
