REMARK  Name = 
REMARK  5 active torsions:
REMARK  status: ('A' for Active; 'I' for Inactive)
REMARK    1  A    between atoms: C_8  and  C_13
REMARK    2  A    between atoms: C_8  and  C_14
REMARK    3  A    between atoms: C_13  and  C_19
REMARK    4  A    between atoms: C_14  and  N_20
REMARK    5  A    between atoms: C_15  and  N_21
REMARK                            x       y       z     vdW  Elec       q    Type
REMARK                         _______ _______ _______ _____ _____    ______ ____
ROOT
ATOM      1  C   UNL     1      -1.015   2.221   0.000  0.00  0.00    +0.000 C 
ATOM      2  C   UNL     1      -2.893   1.212   0.000  0.00  0.00    +0.000 A 
ATOM      3  C   UNL     1      -2.893   0.388   0.000  0.00  0.00    +0.000 A 
ATOM      4  C   UNL     1      -2.178   1.625   0.000  0.00  0.00    +0.000 A 
ATOM      5  C   UNL     1      -2.178  -0.025   0.000  0.00  0.00    +0.000 A 
ATOM      6  C   UNL     1      -1.464   1.212   0.000  0.00  0.00    +0.000 A 
ATOM      7  C   UNL     1      -1.464   0.388   0.000  0.00  0.00    +0.000 A 
ATOM      8  C   UNL     1      -0.194   0.800   0.000  0.00  0.00    +0.000 C 
ATOM      9  C   UNL     1      -0.679   1.468   0.000  0.00  0.00    +0.000 C 
ATOM     10  N   UNL     1      -0.679   0.133   0.000  0.00  0.00    +0.000 N 
ATOM     11  O   UNL     1       0.630   0.800   0.000  0.00  0.00    +0.000 OA
ENDROOT
BRANCH  10  17
ATOM     12  C   UNL     1       0.085  -2.221   0.000  0.00  0.00    +0.000 A 
ATOM     13  C   UNL     1       0.637  -1.608   0.000  0.00  0.00    +0.000 A 
ATOM     14  C   UNL     1      -0.722  -2.050   0.000  0.00  0.00    +0.000 A 
ATOM     15  C   UNL     1       0.383  -0.823   0.000  0.00  0.00    +0.000 A 
ATOM     16  C   UNL     1      -0.976  -1.265   0.000  0.00  0.00    +0.000 A 
ATOM     17  C   UNL     1      -0.424  -0.652   0.000  0.00  0.00    +0.000 A 
ENDBRANCH  10  17
BRANCH   9  18
ATOM     18  C   UNL     1       0.035   1.880   0.000  0.00  0.00    +0.000 C 
BRANCH  18  19
ATOM     19  C   UNL     1       0.750   1.468   0.000  0.00  0.00    +0.000 C 
BRANCH  19  20
ATOM     20  C   UNL     1       1.464   1.880   0.000  0.00  0.00    +0.000 C 
BRANCH  20  22
ATOM     21  C   UNL     1       2.893   1.880   0.000  0.00  0.00    +0.000 C 
ATOM     22  N   UNL     1       2.178   1.468   0.000  0.00  0.00    +0.000 NA
ENDBRANCH  20  22
ENDBRANCH  19  20
ENDBRANCH  18  19
ENDBRANCH   9  18
TORSDOF 5
