REMARK  Name = 
REMARK  3 active torsions:
REMARK  status: ('A' for Active; 'I' for Inactive)
REMARK    1  A    between atoms: C_4  and  C_18
REMARK    2  A    between atoms: N_19  and  C_21
REMARK    3  A    between atoms: C_21  and  C_22
REMARK                            x       y       z     vdW  Elec       q    Type
REMARK                         _______ _______ _______ _____ _____    ______ ____
ROOT
ATOM      1  C   UNL     1       2.845  -0.922   0.000  0.00  0.00    +0.000 A 
ATOM      2  N   UNL     1       2.845  -0.097   0.000  0.00  0.00    +0.000 N 
ATOM      3  C   UNL     1       3.546   0.316   0.000  0.00  0.00    +0.000 A 
ATOM      4  C   UNL     1       4.289  -0.097   0.000  0.00  0.00    +0.000 A 
ATOM      5  C   UNL     1       4.289  -0.922   0.000  0.00  0.00    +0.000 A 
ATOM      6  C   UNL     1       3.546  -1.334   0.000  0.00  0.00    +0.000 A 
ATOM      7  C   UNL     1       2.144  -1.334   0.000  0.00  0.00    +0.000 C 
ATOM      8  N   UNL     1       1.401  -0.922   0.000  0.00  0.00    +0.000 N 
ATOM      9  C   UNL     1       1.401  -0.097   0.000  0.00  0.00    +0.000 C 
ATOM     10  C   UNL     1       2.144   0.316   0.000  0.00  0.00    +0.000 C 
ATOM     11  C   UNL     1       0.659  -1.334   0.000  0.00  0.00    +0.000 C 
ATOM     12  C   UNL     1      -0.042  -0.922   0.000  0.00  0.00    +0.000 C 
ATOM     13  C   UNL     1      -0.042  -0.097   0.000  0.00  0.00    +0.000 C 
ATOM     14  O   UNL     1       0.659   0.316   0.000  0.00  0.00    +0.000 OA
ATOM     15  O   UNL     1       2.144  -2.159   0.000  0.00  0.00    +0.000 OA
ATOM     16  O   UNL     1       3.546  -2.159   0.000  0.00  0.00    +0.000 OA
ATOM     17  O   UNL     1       4.990  -1.334   0.000  0.00  0.00    +0.000 OA
ATOM     18  C   UNL     1       0.649  -2.159   0.000  0.00  0.00    +0.000 C 
ENDROOT
BRANCH   4  19
ATOM     19  C   UNL     1       4.990   0.316   0.000  0.00  0.00    +0.000 C 
ATOM     20  N   UNL     1       5.691  -0.097   0.000  0.00  0.00    +0.000 NA
ATOM     21  O   UNL     1       4.990   1.141   0.000  0.00  0.00    +0.000 OA
BRANCH  20  22
ATOM     22  C   UNL     1       6.393   0.316   0.000  0.00  0.00    +0.000 C 
BRANCH  22  23
ATOM     23  C   UNL     1       7.094  -0.097   0.000  0.00  0.00    +0.000 A 
ATOM     24  C   UNL     1       7.795   0.316   0.000  0.00  0.00    +0.000 A 
ATOM     25  C   UNL     1       8.538  -0.097   0.000  0.00  0.00    +0.000 A 
ATOM     26  C   UNL     1       8.538  -0.922   0.000  0.00  0.00    +0.000 A 
ATOM     27  C   UNL     1       7.837  -1.334   0.000  0.00  0.00    +0.000 A 
ATOM     28  C   UNL     1       7.094  -0.922   0.000  0.00  0.00    +0.000 A 
ATOM     29  F   UNL     1       6.393  -1.334   0.000  0.00  0.00    +0.000 F 
ATOM     30  F   UNL     1       9.239  -1.334   0.000  0.00  0.00    +0.000 F 
ENDBRANCH  22  23
ENDBRANCH  20  22
ENDBRANCH   4  19
TORSDOF 3
