REMARK  Name = 
REMARK  6 active torsions:
REMARK  status: ('A' for Active; 'I' for Inactive)
REMARK    1  A    between atoms: N_8  and  C_9
REMARK    2  A    between atoms: C_12  and  C_13
REMARK    3  A    between atoms: C_20  and  O_21
REMARK    4  A    between atoms: O_21  and  C_22
REMARK    5  A    between atoms: N_27  and  C_28
REMARK    6  A    between atoms: C_28  and  C_29
REMARK                            x       y       z     vdW  Elec       q    Type
REMARK                         _______ _______ _______ _____ _____    ______ ____
ROOT
ATOM      1  C   UNL     1      -4.170   1.773   0.000  0.00  0.00    +0.000 C 
ATOM      2  C   UNL     1      -3.455   1.360   0.000  0.00  0.00    +0.000 A 
ATOM      3  C   UNL     1      -2.741   1.773   0.000  0.00  0.00    +0.000 A 
ATOM      4  C   UNL     1      -2.026   1.360   0.000  0.00  0.00    +0.000 A 
ATOM      5  C   UNL     1      -1.312   1.773   0.000  0.00  0.00    +0.000 A 
ATOM      6  N   UNL     1      -0.598   1.360   0.000  0.00  0.00    +0.000 NA
ATOM      7  C   UNL     1      -0.598   0.535   0.000  0.00  0.00    +0.000 A 
ATOM      8  N   UNL     1       0.117   0.123   0.000  0.00  0.00    +0.000 NA
ATOM      9  N   UNL     1      -1.312   0.123   0.000  0.00  0.00    +0.000 NA
ATOM     10  C   UNL     1      -2.026   0.535   0.000  0.00  0.00    +0.000 A 
ATOM     11  C   UNL     1      -2.741   0.123   0.000  0.00  0.00    +0.000 A 
ATOM     12  N   UNL     1      -2.741  -0.702   0.000  0.00  0.00    +0.000 NA
ATOM     13  N   UNL     1      -3.455   0.535   0.000  0.00  0.00    +0.000 NA
ENDROOT
BRANCH   8  14
ATOM     14  C   UNL     1       0.831   0.535   0.000  0.00  0.00    +0.000 A 
ATOM     15  C   UNL     1       0.831   1.360   0.000  0.00  0.00    +0.000 A 
ATOM     16  C   UNL     1       1.546   1.773   0.000  0.00  0.00    +0.000 A 
ATOM     17  C   UNL     1       2.260   1.360   0.000  0.00  0.00    +0.000 A 
ATOM     18  C   UNL     1       2.260   0.535   0.000  0.00  0.00    +0.000 A 
ATOM     19  C   UNL     1       1.546   0.123   0.000  0.00  0.00    +0.000 A 
BRANCH  17  20
ATOM     20  C   UNL     1       2.975   1.773   0.000  0.00  0.00    +0.000 A 
ATOM     21  N   UNL     1       3.061   2.593   0.000  0.00  0.00    +0.000 NA
ATOM     22  N   UNL     1       3.868   2.765   0.000  0.00  0.00    +0.000 NA
ATOM     23  C   UNL     1       4.280   2.050   0.000  0.00  0.00    +0.000 A 
ATOM     24  N   UNL     1       3.728   1.437   0.000  0.00  0.00    +0.000 N 
ATOM     25  C   UNL     1       3.900   0.630   0.000  0.00  0.00    +0.000 C 
ENDBRANCH  17  20
BRANCH  19  26
ATOM     26  O   UNL     1       1.546  -0.702   0.000  0.00  0.00    +0.000 OA
BRANCH  26  27
ATOM     27  C   UNL     1       2.260  -1.115   0.000  0.00  0.00    +0.000 C 
ATOM     28  C   UNL     1       2.260  -1.940   0.000  0.00  0.00    +0.000 C 
ENDBRANCH  26  27
ENDBRANCH  19  26
ENDBRANCH   8  14
BRANCH  12  29
ATOM     29  C   UNL     1      -3.455  -1.115   0.000  0.00  0.00    +0.000 C 
BRANCH  29  30
ATOM     30  C   UNL     1      -3.455  -1.940   0.000  0.00  0.00    +0.000 C 
ATOM     31  C   UNL     1      -3.455  -2.765   0.000  0.00  0.00    +0.000 C 
ATOM     32  C   UNL     1      -4.280  -1.940   0.000  0.00  0.00    +0.000 C 
ATOM     33  C   UNL     1      -2.630  -1.940   0.000  0.00  0.00    +0.000 C 
ENDBRANCH  29  30
ENDBRANCH  12  29
TORSDOF 6
