REMARK  Name = 
REMARK  5 active torsions:
REMARK  status: ('A' for Active; 'I' for Inactive)
REMARK    1  A    between atoms: C_2  and  C_9
REMARK    2  A    between atoms: C_2  and  O_14
REMARK    3  A    between atoms: C_11  and  O_21
REMARK    4  A    between atoms: O_14  and  C_19
REMARK    5  A    between atoms: O_21  and  C_25
REMARK                            x       y       z     vdW  Elec       q    Type
REMARK                         _______ _______ _______ _____ _____    ______ ____
ROOT
ATOM      1  C   UNL     1       1.868   0.099   0.000  0.00  0.00    +0.000 C 
ATOM      2  C   UNL     1       2.671   0.377   0.000  0.00  0.00    +0.000 C 
ATOM      3  C   UNL     1      -0.264  -1.926   0.000  0.00  0.00    +0.000 C 
ATOM      4  C   UNL     1       1.868  -0.691   0.000  0.00  0.00    +0.000 C 
ATOM      5  C   UNL     1       1.139  -1.077   0.000  0.00  0.00    +0.000 C 
ATOM      6  C   UNL     1       0.453  -0.691   0.000  0.00  0.00    +0.000 C 
ATOM      7  C   UNL     1      -0.264  -1.103   0.000  0.00  0.00    +0.000 C 
ATOM      8  C   UNL     1      -0.985  -2.325   0.000  0.00  0.00    +0.000 C 
ATOM      9  C   UNL     1       0.453  -2.334   0.000  0.00  0.00    +0.000 C 
ATOM     10  C   UNL     1      -1.705  -1.926   0.000  0.00  0.00    +0.000 C 
ATOM     11  C   UNL     1       1.152   0.519   0.000  0.00  0.00    +0.000 C 
ATOM     12  C   UNL     1       1.152  -1.926   0.000  0.00  0.00    +0.000 C 
ATOM     13  C   UNL     1       0.440   0.099   0.000  0.00  0.00    +0.000 C 
ATOM     14  C   UNL     1       2.722  -0.922   0.000  0.00  0.00    +0.000 C 
ATOM     15  C   UNL     1      -0.985  -0.686   0.000  0.00  0.00    +0.000 C 
ATOM     16  C   UNL     1       3.143  -0.330   0.000  0.00  0.00    +0.000 C 
ATOM     17  C   UNL     1      -1.705  -1.103   0.000  0.00  0.00    +0.000 C 
ATOM     18  C   UNL     1       1.868   0.892   0.000  0.00  0.00    +0.000 C 
ENDROOT
BRANCH   2  19
ATOM     19  C   UNL     1       3.675   0.905   0.000  0.00  0.00    +0.000 C 
ATOM     20  C   UNL     1       4.473   1.291   0.000  0.00  0.00    +0.000 C 
ENDBRANCH   2  19
BRANCH   2  21
ATOM     21  O   UNL     1       2.722   1.381   0.000  0.00  0.00    +0.000 OA
BRANCH  21  22
ATOM     22  C   UNL     1       1.796   1.562   0.000  0.00  0.00    +0.000 C 
ATOM     23  O   UNL     1       1.075   1.047   0.000  0.00  0.00    +0.000 OA
ATOM     24  C   UNL     1       1.628   2.334   0.000  0.00  0.00    +0.000 C 
ENDBRANCH  21  22
ENDBRANCH   2  21
BRANCH  10  25
ATOM     25  O   UNL     1      -2.443  -2.334   0.000  0.00  0.00    +0.000 OA
BRANCH  25  26
ATOM     26  C   UNL     1      -3.160  -1.901   0.000  0.00  0.00    +0.000 C 
ATOM     27  C   UNL     1      -3.945  -2.235   0.000  0.00  0.00    +0.000 C 
ATOM     28  C   UNL     1      -3.211  -1.085   0.000  0.00  0.00    +0.000 C 
ATOM     29  C   UNL     1      -4.473  -1.605   0.000  0.00  0.00    +0.000 C 
ATOM     30  C   UNL     1      -4.035  -0.905   0.000  0.00  0.00    +0.000 C 
ENDBRANCH  25  26
ENDBRANCH  10  25
TORSDOF 5
