REMARK  Name = 
REMARK  4 active torsions:
REMARK  status: ('A' for Active; 'I' for Inactive)
REMARK    1  A    between atoms: C_3  and  C_6
REMARK    2  A    between atoms: C_3  and  C_7
REMARK    3  A    between atoms: C_6  and  CA_9
REMARK    4  A    between atoms: CA_9  and  C_10
REMARK                            x       y       z     vdW  Elec       q    Type
REMARK                         _______ _______ _______ _____ _____    ______ ____
ROOT
ATOM      1  C   UNL     1       0.000   0.412   0.000  0.00  0.00    +0.000 C 
ENDROOT
BRANCH   1   6
ATOM      2  C   UNL     1      -1.429   0.412   0.000  0.00  0.00    +0.000 C 
ATOM      3  C   UNL     1      -0.714  -0.825   0.000  0.00  0.00    +0.000 C 
ATOM      4  C   UNL     1      -2.143   0.000   0.000  0.00  0.00    +0.000 C 
ATOM      5  C   UNL     1      -1.429  -1.238   0.000  0.00  0.00    +0.000 C 
ATOM      6  C   UNL     1      -0.714   0.000   0.000  0.00  0.00    +0.000 C 
ATOM      7  C   UNL     1      -2.143  -0.825   0.000  0.00  0.00    +0.000 C 
ATOM      8  N   UNL     1      -2.858  -1.238   0.000  0.00  0.00    +0.000 NA
ENDBRANCH   1   6
BRANCH   1   9
ATOM      9  C   UNL     1       0.714   0.000   0.000  0.00  0.00    +0.000 C 
BRANCH   9  10
ATOM     10  CA  UNL     1       1.429   0.412   0.000  0.00  0.00    +0.000 C 
ATOM     11  N   UNL     1       1.429   1.238   0.000  0.00  0.00    +0.000 NA
BRANCH  10  12
ATOM     12  C   UNL     1       2.143   0.000   0.000  0.00  0.00    +0.000 C 
ATOM     13  O   UNL     1       2.858   0.412   0.000  0.00  0.00    +0.000 OA
ATOM     14  OXT UNL     1       2.143  -0.825   0.000  0.00  0.00    +0.000 OA
ENDBRANCH  10  12
ENDBRANCH   9  10
ENDBRANCH   1   9
TORSDOF 4
