REMARK  Name = 
REMARK  7 active torsions:
REMARK  status: ('A' for Active; 'I' for Inactive)
REMARK    1  A    between atoms: O_2  and  C_3
REMARK    2  A    between atoms: C_6  and  C_19
REMARK    3  A    between atoms: C_8  and  C_9
REMARK    4  A    between atoms: N_11  and  C_12
REMARK    5  A    between atoms: C_12  and  C_13
REMARK    6  A    between atoms: N_21  and  C_22
REMARK    7  A    between atoms: C_22  and  C_23
REMARK                            x       y       z     vdW  Elec       q    Type
REMARK                         _______ _______ _______ _____ _____    ______ ____
ROOT
ATOM      1  C   UNL     1      -2.143  -1.238   0.000  0.00  0.00    +0.000 A 
ATOM      2  C   UNL     1      -1.429  -1.650   0.000  0.00  0.00    +0.000 A 
ATOM      3  C   UNL     1      -1.429  -2.475   0.000  0.00  0.00    +0.000 A 
ATOM      4  C   UNL     1      -2.143  -2.888   0.000  0.00  0.00    +0.000 A 
ATOM      5  C   UNL     1      -2.858  -2.475   0.000  0.00  0.00    +0.000 A 
ATOM      6  C   UNL     1      -2.858  -1.650   0.000  0.00  0.00    +0.000 A 
ENDROOT
BRANCH   6   7
ATOM      7  C   UNL     1      -3.572  -1.238   0.000  0.00  0.00    +0.000 C 
ATOM      8  O   UNL     1      -4.287  -1.650   0.000  0.00  0.00    +0.000 OA
ATOM      9  N   UNL     1      -3.572  -0.412   0.000  0.00  0.00    +0.000 NA
BRANCH   9  10
ATOM     10  C   UNL     1      -4.287   0.000   0.000  0.00  0.00    +0.000 C 
BRANCH  10  11
ATOM     11  C   UNL     1      -4.287   0.825   0.000  0.00  0.00    +0.000 A 
ATOM     12  C   UNL     1      -5.001   1.238   0.000  0.00  0.00    +0.000 A 
ATOM     13  C   UNL     1      -5.001   2.062   0.000  0.00  0.00    +0.000 A 
ATOM     14  C   UNL     1      -4.287   2.475   0.000  0.00  0.00    +0.000 A 
ATOM     15  N   UNL     1      -3.572   2.062   0.000  0.00  0.00    +0.000 NA
ATOM     16  C   UNL     1      -3.572   1.238   0.000  0.00  0.00    +0.000 A 
ENDBRANCH  10  11
ENDBRANCH   9  10
ENDBRANCH   6   7
BRANCH   4  17
ATOM     17  C   UNL     1      -2.143  -3.712   0.000  0.00  0.00    +0.000 C 
ATOM     18  O   UNL     1      -1.429  -4.125   0.000  0.00  0.00    +0.000 OA
ATOM     19  N   UNL     1      -2.858  -4.125   0.000  0.00  0.00    +0.000 NA
BRANCH  19  20
ATOM     20  C   UNL     1      -2.858  -4.950   0.000  0.00  0.00    +0.000 C 
BRANCH  20  21
ATOM     21  C   UNL     1      -2.143  -5.362   0.000  0.00  0.00    +0.000 A 
ATOM     22  C   UNL     1      -1.429  -4.950   0.000  0.00  0.00    +0.000 A 
ATOM     23  C   UNL     1      -0.715  -5.362   0.000  0.00  0.00    +0.000 A 
ATOM     24  C   UNL     1      -0.715  -6.188   0.000  0.00  0.00    +0.000 A 
ATOM     25  N   UNL     1      -1.429  -6.600   0.000  0.00  0.00    +0.000 NA
ATOM     26  C   UNL     1      -2.143  -6.188   0.000  0.00  0.00    +0.000 A 
ENDBRANCH  20  21
ENDBRANCH  19  20
ENDBRANCH   4  17
BRANCH   1  28
ATOM     27  C   UNL     1      -2.858   0.000   0.000  0.00  0.00    +0.000 C 
ATOM     28  O   UNL     1      -2.143  -0.412   0.000  0.00  0.00    +0.000 OA
ENDBRANCH   1  28
TORSDOF 7
