REMARK  Name = 
REMARK  5 active torsions:
REMARK  status: ('A' for Active; 'I' for Inactive)
REMARK    1  A    between atoms: O_1  and  C_13
REMARK    2  A    between atoms: O_1  and  C_17
REMARK    3  A    between atoms: N_12  and  C_15
REMARK    4  A    between atoms: C_16  and  C_23
REMARK    5  A    between atoms: C_22  and  C_24
REMARK                            x       y       z     vdW  Elec       q    Type
REMARK                         _______ _______ _______ _____ _____    ______ ____
ROOT
ATOM      1  O   UNL     1       1.429   0.206   0.000  0.00  0.00    +0.000 OA
ATOM      2  O   UNL     1      -0.714   1.444   0.000  0.00  0.00    +0.000 OA
ATOM      3  O   UNL     1       2.143   1.444   0.000  0.00  0.00    +0.000 OA
ATOM      4  C   UNL     1       0.000   0.206   0.000  0.00  0.00    +0.000 C 
ATOM      5  C   UNL     1       0.000   1.031   0.000  0.00  0.00    +0.000 C 
ATOM      6  C   UNL     1       0.714   1.444   0.000  0.00  0.00    +0.000 C 
ATOM      7  C   UNL     1       0.714  -0.206   0.000  0.00  0.00    +0.000 C 
ATOM      8  C   UNL     1       1.429   1.031   0.000  0.00  0.00    +0.000 C 
ENDROOT
BRANCH   6  10
ATOM      9  O   UNL     1       2.143   2.269   0.000  0.00  0.00    +0.000 OA
ATOM     10  N   UNL     1       0.714   2.269   0.000  0.00  0.00    +0.000 N 
ATOM     11  C   UNL     1       1.429   2.681   0.000  0.00  0.00    +0.000 C 
ATOM     12  C   UNL     1       1.429   3.506   0.000  0.00  0.00    +0.000 C 
ATOM     13  H   UNL     1       0.272   2.525   0.000  0.00  0.00    +0.000 HD
ENDBRANCH   6  10
BRANCH   7  15
ATOM     14  O   UNL     1       1.429  -1.444   0.000  0.00  0.00    +0.000 OA
ATOM     15  C   UNL     1       0.714  -1.031   0.000  0.00  0.00    +0.000 C 
ENDBRANCH   7  15
BRANCH   4  16
ATOM     16  O   UNL     1      -0.714  -0.206   0.000  0.00  0.00    +0.000 OA
BRANCH  16  21
ATOM     17  O   UNL     1       0.000  -1.444   0.000  0.00  0.00    +0.000 OA
ATOM     18  O   UNL     1      -2.143  -1.031   0.000  0.00  0.00    +0.000 OA
ATOM     19  O   UNL     1      -2.143  -2.681   0.000  0.00  0.00    +0.000 OA
ATOM     20  O   UNL     1      -0.714  -3.506   0.000  0.00  0.00    +0.000 OA
ATOM     21  C   UNL     1      -0.714  -1.031   0.000  0.00  0.00    +0.000 C 
ATOM     22  C   UNL     1      -1.429  -1.444   0.000  0.00  0.00    +0.000 C 
ATOM     23  C   UNL     1      -1.429  -2.269   0.000  0.00  0.00    +0.000 C 
ATOM     24  C   UNL     1      -0.714  -2.681   0.000  0.00  0.00    +0.000 C 
ATOM     25  C   UNL     1       0.000  -2.269   0.000  0.00  0.00    +0.000 C 
BRANCH  25  27
ATOM     26  O   UNL     1       0.714  -3.506   0.000  0.00  0.00    +0.000 OA
ATOM     27  C   UNL     1       0.714  -2.681   0.000  0.00  0.00    +0.000 C 
ENDBRANCH  25  27
ENDBRANCH  16  21
ENDBRANCH   4  16
TORSDOF 5
