REMARK  Name = 
REMARK  15 active torsions:
REMARK  status: ('A' for Active; 'I' for Inactive)
REMARK    1  A    between atoms: C_2  and  C_4
REMARK    2  A    between atoms: C_2  and  C_17
REMARK    3  A    between atoms: C_4  and  C_5
REMARK    4  A    between atoms: C_5  and  C_6
REMARK    5  A    between atoms: C_17  and  C_18
REMARK    6  A    between atoms: C_18  and  C_19
REMARK    7  A    between atoms: C_19  and  C_20
REMARK    8  A    between atoms: C_20  and  C_22
REMARK    9  A    between atoms: C_22  and  C_23
REMARK   10  A    between atoms: C_23  and  C_24
REMARK   11  A    between atoms: C_24  and  C_25
REMARK   12  A    between atoms: C_25  and  C_27
REMARK   13  A    between atoms: C_27  and  C_28
REMARK   14  A    between atoms: C_28  and  C_29
REMARK   15  A    between atoms: C_29  and  C_30
REMARK                            x       y       z     vdW  Elec       q    Type
REMARK                         _______ _______ _______ _____ _____    ______ ____
ROOT
ATOM      1  O   UNL     1      -2.088   0.111   0.000  0.00  0.00    +0.000 OA
ATOM      2  C   UNL     1      -2.501   0.825   0.000  0.00  0.00    +0.000 C 
ATOM      3  C   UNL     1      -2.913   1.540   0.000  0.00  0.00    +0.000 C 
ENDROOT
BRANCH   2   4
ATOM      4  C   UNL     1      -1.786   1.238   0.000  0.00  0.00    +0.000 C 
BRANCH   4   5
ATOM      5  C   UNL     1      -1.072   0.825   0.000  0.00  0.00    +0.000 C 
BRANCH   5   6
ATOM      6  C   UNL     1      -0.357   1.238   0.000  0.00  0.00    +0.000 C 
BRANCH   6   7
ATOM      7  C   UNL     1       0.357   0.825   0.000  0.00  0.00    +0.000 C 
ATOM      8  C   UNL     1       0.357   0.000   0.000  0.00  0.00    +0.000 C 
BRANCH   7   9
ATOM      9  C   UNL     1       1.072   1.238   0.000  0.00  0.00    +0.000 C 
BRANCH   9  10
ATOM     10  C   UNL     1       1.786   0.825   0.000  0.00  0.00    +0.000 C 
BRANCH  10  11
ATOM     11  C   UNL     1       2.501   1.238   0.000  0.00  0.00    +0.000 C 
BRANCH  11  12
ATOM     12  C   UNL     1       3.215   0.825   0.000  0.00  0.00    +0.000 C 
ATOM     13  C   UNL     1       3.215   0.000   0.000  0.00  0.00    +0.000 C 
BRANCH  12  14
ATOM     14  C   UNL     1       3.930   1.238   0.000  0.00  0.00    +0.000 C 
BRANCH  14  15
ATOM     15  C   UNL     1       4.644   0.825   0.000  0.00  0.00    +0.000 C 
BRANCH  15  16
ATOM     16  C   UNL     1       5.358   1.238   0.000  0.00  0.00    +0.000 C 
BRANCH  16  17
ATOM     17  C   UNL     1       6.073   0.825   0.000  0.00  0.00    +0.000 C 
ATOM     18  C   UNL     1       6.787   1.238   0.000  0.00  0.00    +0.000 C 
ATOM     19  C   UNL     1       6.073   0.000   0.000  0.00  0.00    +0.000 C 
ENDBRANCH  16  17
ENDBRANCH  15  16
ENDBRANCH  14  15
ENDBRANCH  12  14
ENDBRANCH  11  12
ENDBRANCH  10  11
ENDBRANCH   9  10
ENDBRANCH   7   9
ENDBRANCH   6   7
ENDBRANCH   5   6
ENDBRANCH   4   5
ENDBRANCH   2   4
BRANCH   2  20
ATOM     20  C   UNL     1      -3.215   0.412   0.000  0.00  0.00    +0.000 C 
BRANCH  20  21
ATOM     21  C   UNL     1      -3.930   0.825   0.000  0.00  0.00    +0.000 C 
BRANCH  21  22
ATOM     22  C   UNL     1      -4.644   0.412   0.000  0.00  0.00    +0.000 C 
ATOM     23  C   UNL     1      -4.644  -0.412   0.000  0.00  0.00    +0.000 C 
ATOM     24  C   UNL     1      -3.930  -0.825   0.000  0.00  0.00    +0.000 C 
ATOM     25  C   UNL     1      -5.358   0.825   0.000  0.00  0.00    +0.000 C 
ATOM     26  O   UNL     1      -5.358   1.650   0.000  0.00  0.00    +0.000 OA
ATOM     27  C   UNL     1      -6.073   0.412   0.000  0.00  0.00    +0.000 C 
ATOM     28  C   UNL     1      -6.787   0.825   0.000  0.00  0.00    +0.000 C 
ATOM     29  C   UNL     1      -6.073  -0.412   0.000  0.00  0.00    +0.000 C 
ATOM     30  C   UNL     1      -6.787  -0.825   0.000  0.00  0.00    +0.000 C 
ATOM     31  C   UNL     1      -5.358  -0.825   0.000  0.00  0.00    +0.000 C 
ATOM     32  O   UNL     1      -5.358  -1.650   0.000  0.00  0.00    +0.000 OA
ENDBRANCH  21  22
ENDBRANCH  20  21
ENDBRANCH   2  20
TORSDOF 15
