REMARK  Name = 
REMARK  22 active torsions:
REMARK  status: ('A' for Active; 'I' for Inactive)
REMARK    1  A    between atoms: N_3  and  C_5
REMARK    2  A    between atoms: C_5  and  C_6
REMARK    3  A    between atoms: C_6  and  C_7
REMARK    4  A    between atoms: C_7  and  C_8
REMARK    5  A    between atoms: C_8  and  C_9
REMARK    6  A    between atoms: N_10  and  C_20
REMARK    7  A    between atoms: C_12  and  O_26
REMARK    8  A    between atoms: C_16  and  N_17
REMARK    9  A    between atoms: C_18  and  C_19
REMARK   10  A    between atoms: C_22  and  C_28
REMARK   11  A    between atoms: C_24  and  O_26
REMARK   12  A    between atoms: N_34  and  C_36
REMARK   13  A    between atoms: C_36  and  C_37
REMARK   14  A    between atoms: C_37  and  C_38
REMARK   15  A    between atoms: C_38  and  C_39
REMARK   16  A    between atoms: C_39  and  C_40
REMARK   17  A    between atoms: N_41  and  C_51
REMARK   18  A    between atoms: C_43  and  O_61
REMARK   19  A    between atoms: C_47  and  N_48
REMARK   20  A    between atoms: C_49  and  C_50
REMARK   21  A    between atoms: C_53  and  C_63
REMARK   22  A    between atoms: C_55  and  O_61
REMARK                            x       y       z     vdW  Elec       q    Type
REMARK                         _______ _______ _______ _____ _____    ______ ____
ROOT
ATOM      1  C   UNL     1       0.717  -0.505   0.000  0.00  0.00    +0.000 A 
ATOM      2  C   UNL     1      -0.717  -0.505   0.000  0.00  0.00    +0.000 A 
ATOM      3  N   UNL     1      -0.716  -1.330   0.000  0.00  0.00    +0.000 NA
ATOM      4  C   UNL     1      -0.005  -0.091   0.000  0.00  0.00    +0.000 A 
ATOM      5  N   UNL     1       0.710  -1.334   0.000  0.00  0.00    +0.000 NA
ATOM      6  C   UNL     1      -0.007  -1.744   0.000  0.00  0.00    +0.000 A 
ENDROOT
BRANCH   1   8
ATOM      7  N   UNL     1       2.145  -0.500   0.000  0.00  0.00    +0.000 NA
ATOM      8  C   UNL     1       1.431  -0.091   0.000  0.00  0.00    +0.000 C 
ATOM      9  O   UNL     1       1.438   0.733   0.000  0.00  0.00    +0.000 OA
BRANCH   7  10
ATOM     10  C   UNL     1       2.854  -0.086   0.000  0.00  0.00    +0.000 A 
ATOM     11  C   UNL     1       4.284  -0.082   0.000  0.00  0.00    +0.000 A 
ATOM     12  C   UNL     1       4.286   0.743   0.000  0.00  0.00    +0.000 A 
ATOM     13  C   UNL     1       3.569   1.157   0.000  0.00  0.00    +0.000 A 
ATOM     14  C   UNL     1       2.855   0.742   0.000  0.00  0.00    +0.000 A 
ATOM     15  C   UNL     1       3.571  -0.496   0.000  0.00  0.00    +0.000 A 
BRANCH  13  16
ATOM     16  C   UNL     1       3.568   1.982   0.000  0.00  0.00    +0.000 C 
ATOM     17  F   UNL     1       3.567   2.807   0.000  0.00  0.00    +0.000 F 
ATOM     18  F   UNL     1       2.743   1.981   0.000  0.00  0.00    +0.000 F 
ATOM     19  F   UNL     1       4.393   1.983   0.000  0.00  0.00    +0.000 F 
ENDBRANCH  13  16
BRANCH  11  21
ATOM     20  C   UNL     1       5.716  -0.085   0.000  0.00  0.00    +0.000 C 
ATOM     21  N   UNL     1       5.002  -0.498   0.000  0.00  0.00    +0.000 NA
ATOM     22  O   UNL     1       5.721   0.738   0.000  0.00  0.00    +0.000 OA
BRANCH  20  23
ATOM     23  C   UNL     1       6.430  -0.493   0.000  0.00  0.00    +0.000 C 
BRANCH  23  24
ATOM     24  C   UNL     1       7.139  -0.079   0.000  0.00  0.00    +0.000 C 
BRANCH  24  25
ATOM     25  C   UNL     1       7.853  -0.488   0.000  0.00  0.00    +0.000 C 
BRANCH  25  26
ATOM     26  C   UNL     1       8.567  -0.079   0.000  0.00  0.00    +0.000 C 
BRANCH  26  29
ATOM     27  N   UNL     1      10.704  -0.488   0.000  0.00  0.00    +0.000 NA
ATOM     28  C   UNL     1       9.990  -0.079   0.000  0.00  0.00    +0.000 C 
ATOM     29  N   UNL     1       9.281  -0.488   0.000  0.00  0.00    +0.000 NA
ATOM     30  N   UNL     1       9.995   0.748   0.000  0.00  0.00    +0.000 NA
ENDBRANCH  26  29
ENDBRANCH  25  26
ENDBRANCH  24  25
ENDBRANCH  23  24
ENDBRANCH  20  23
ENDBRANCH  11  21
BRANCH  15  31
ATOM     31  O   UNL     1       3.579  -1.325   0.000  0.00  0.00    +0.000 OA
BRANCH  31  33
ATOM     32  C   UNL     1       5.079  -1.469   0.000  0.00  0.00    +0.000 C 
ATOM     33  C   UNL     1       4.293  -1.739   0.000  0.00  0.00    +0.000 C 
ATOM     34  C   UNL     1       4.304  -2.561   0.000  0.00  0.00    +0.000 C 
ATOM     35  C   UNL     1       5.095  -2.807   0.000  0.00  0.00    +0.000 C 
ATOM     36  N   UNL     1       5.566  -2.133   0.000  0.00  0.00    +0.000 NA
ENDBRANCH  31  33
ENDBRANCH  15  31
ENDBRANCH   7  10
ENDBRANCH   1   8
BRANCH   2  38
ATOM     37  N   UNL     1      -2.145  -0.500   0.000  0.00  0.00    +0.000 NA
ATOM     38  C   UNL     1      -1.431  -0.091   0.000  0.00  0.00    +0.000 C 
ATOM     39  O   UNL     1      -1.438   0.733   0.000  0.00  0.00    +0.000 OA
BRANCH  37  40
ATOM     40  C   UNL     1      -2.854  -0.086   0.000  0.00  0.00    +0.000 A 
ATOM     41  C   UNL     1      -4.284  -0.082   0.000  0.00  0.00    +0.000 A 
ATOM     42  C   UNL     1      -4.286   0.743   0.000  0.00  0.00    +0.000 A 
ATOM     43  C   UNL     1      -3.569   1.157   0.000  0.00  0.00    +0.000 A 
ATOM     44  C   UNL     1      -2.855   0.742   0.000  0.00  0.00    +0.000 A 
ATOM     45  C   UNL     1      -3.571  -0.496   0.000  0.00  0.00    +0.000 A 
BRANCH  43  46
ATOM     46  C   UNL     1      -3.568   1.982   0.000  0.00  0.00    +0.000 C 
ATOM     47  F   UNL     1      -3.567   2.807   0.000  0.00  0.00    +0.000 F 
ATOM     48  F   UNL     1      -2.743   1.981   0.000  0.00  0.00    +0.000 F 
ATOM     49  F   UNL     1      -4.393   1.983   0.000  0.00  0.00    +0.000 F 
ENDBRANCH  43  46
BRANCH  41  51
ATOM     50  C   UNL     1      -5.716  -0.085   0.000  0.00  0.00    +0.000 C 
ATOM     51  N   UNL     1      -5.002  -0.498   0.000  0.00  0.00    +0.000 NA
ATOM     52  O   UNL     1      -5.721   0.738   0.000  0.00  0.00    +0.000 OA
BRANCH  50  53
ATOM     53  C   UNL     1      -6.430  -0.493   0.000  0.00  0.00    +0.000 C 
BRANCH  53  54
ATOM     54  C   UNL     1      -7.139  -0.079   0.000  0.00  0.00    +0.000 C 
BRANCH  54  55
ATOM     55  C   UNL     1      -7.853  -0.488   0.000  0.00  0.00    +0.000 C 
BRANCH  55  56
ATOM     56  C   UNL     1      -8.567  -0.079   0.000  0.00  0.00    +0.000 C 
BRANCH  56  59
ATOM     57  N   UNL     1     -10.704  -0.488   0.000  0.00  0.00    +0.000 NA
ATOM     58  C   UNL     1      -9.990  -0.079   0.000  0.00  0.00    +0.000 C 
ATOM     59  N   UNL     1      -9.281  -0.488   0.000  0.00  0.00    +0.000 NA
ATOM     60  N   UNL     1      -9.995   0.748   0.000  0.00  0.00    +0.000 NA
ENDBRANCH  56  59
ENDBRANCH  55  56
ENDBRANCH  54  55
ENDBRANCH  53  54
ENDBRANCH  50  53
ENDBRANCH  41  51
BRANCH  45  61
ATOM     61  O   UNL     1      -3.579  -1.325   0.000  0.00  0.00    +0.000 OA
BRANCH  61  63
ATOM     62  C   UNL     1      -5.079  -1.469   0.000  0.00  0.00    +0.000 C 
ATOM     63  C   UNL     1      -4.293  -1.739   0.000  0.00  0.00    +0.000 C 
ATOM     64  C   UNL     1      -4.304  -2.561   0.000  0.00  0.00    +0.000 C 
ATOM     65  C   UNL     1      -5.095  -2.807   0.000  0.00  0.00    +0.000 C 
ATOM     66  N   UNL     1      -5.566  -2.133   0.000  0.00  0.00    +0.000 NA
ENDBRANCH  61  63
ENDBRANCH  45  61
ENDBRANCH  37  40
ENDBRANCH   2  38
TORSDOF 22
