REMARK  Name = 
REMARK  10 active torsions:
REMARK  status: ('A' for Active; 'I' for Inactive)
REMARK    1  A    between atoms: C_2  and  C_14
REMARK    2  A    between atoms: C_5  and  C_27
REMARK    3  A    between atoms: C_8  and  O_18
REMARK    4  A    between atoms: C_10  and  C_37
REMARK    5  A    between atoms: C_14  and  O_29
REMARK    6  A    between atoms: C_15  and  O_30
REMARK    7  A    between atoms: O_18  and  C_20
REMARK    8  A    between atoms: C_37  and  C_59
REMARK    9  A    between atoms: C_46  and  C_55
REMARK   10  A    between atoms: C_59  and  O_60
REMARK                            x       y       z     vdW  Elec       q    Type
REMARK                         _______ _______ _______ _____ _____    ______ ____
ROOT
ATOM      1  C   UNL     1       2.327  -0.532   0.000  0.00  0.00    +0.000 C 
ATOM      2  C   UNL     1       2.306  -1.961   0.000  0.00  0.00    +0.000 C 
ATOM      3  C   UNL     1       1.900  -1.247   0.000  0.00  0.00    +0.000 C 
ATOM      4  N   UNL     1       1.076  -1.239   0.000  0.00  0.00    +0.000 N 
ATOM      5  C   UNL     1       3.552  -1.252   0.000  0.00  0.00    +0.000 C 
ATOM      6  C   UNL     1       3.146  -0.538   0.000  0.00  0.00    +0.000 C 
ATOM      7  C   UNL     1       0.678  -0.516   0.000  0.00  0.00    +0.000 A 
ATOM      8  C   UNL     1       3.127  -1.971   0.000  0.00  0.00    +0.000 C 
ATOM      9  C   UNL     1       1.098   0.196   0.000  0.00  0.00    +0.000 A 
ATOM     10  C   UNL     1      -0.158   0.887   0.000  0.00  0.00    +0.000 A 
ATOM     11  C   UNL     1      -0.131  -0.542   0.000  0.00  0.00    +0.000 A 
ATOM     12  C   UNL     1       0.664   0.907   0.000  0.00  0.00    +0.000 A 
ATOM     13  N   UNL     1       3.570   0.175   0.000  0.00  0.00    +0.000 NA
ATOM     14  C   UNL     1      -0.555   0.170   0.000  0.00  0.00    +0.000 A 
ATOM     15  C   UNL     1       1.924   0.193   0.000  0.00  0.00    +0.000 C 
ATOM     16  C   UNL     1       0.654  -1.947   0.000  0.00  0.00    +0.000 C 
ATOM     17  C   UNL     1       4.370  -1.264   0.000  0.00  0.00    +0.000 C 
ATOM     18  C   UNL     1       3.102   0.886   0.000  0.00  0.00    +0.000 C 
ATOM     19  O   UNL     1       2.709  -2.676   0.000  0.00  0.00    +0.000 OA
ATOM     20  C   UNL     1       4.792  -0.556   0.000  0.00  0.00    +0.000 C 
ATOM     21  O   UNL     1      -0.175  -1.932   0.000  0.00  0.00    +0.000 OA
ATOM     22  C   UNL     1       4.394   0.167   0.000  0.00  0.00    +0.000 C 
ENDROOT
BRANCH  10  23
ATOM     23  C   UNL     1      -1.224   2.659   0.000  0.00  0.00    +0.000 C 
ATOM     24  C   UNL     1      -1.942   3.072   0.000  0.00  0.00    +0.000 A 
ATOM     25  C   UNL     1      -1.942   3.897   0.000  0.00  0.00    +0.000 A 
ATOM     26  N   UNL     1      -2.650   2.659   0.000  0.00  0.00    +0.000 NA
ATOM     27  C   UNL     1      -3.367   3.901   0.000  0.00  0.00    +0.000 A 
ATOM     28  C   UNL     1      -3.367   3.076   0.000  0.00  0.00    +0.000 A 
ATOM     29  N   UNL     1       0.124   4.418   0.000  0.00  0.00    +0.000 NA
ATOM     30  C   UNL     1      -0.504   3.072   0.000  0.00  0.00    +0.000 C 
ATOM     31  C   UNL     1      -1.230   4.313   0.000  0.00  0.00    +0.000 C 
ATOM     32  C   UNL     1       1.299   3.505   0.000  0.00  0.00    +0.000 C 
ATOM     33  C   UNL     1       0.145   2.564   0.000  0.00  0.00    +0.000 C 
ATOM     34  C   UNL     1       0.933   4.243   0.000  0.00  0.00    +0.000 C 
ATOM     35  C   UNL     1       0.537   3.538   0.000  0.00  0.00    +0.000 C 
ATOM     36  C   UNL     1      -0.513   3.901   0.000  0.00  0.00    +0.000 C 
ATOM     37  C   UNL     1       0.950   2.764   0.000  0.00  0.00    +0.000 C 
ATOM     38  O   UNL     1       2.191   4.047   0.000  0.00  0.00    +0.000 OA
ATOM     39  C   UNL     1      -4.084   4.309   0.000  0.00  0.00    +0.000 A 
ATOM     40  C   UNL     1      -4.075   2.655   0.000  0.00  0.00    +0.000 A 
ATOM     41  C   UNL     1      -4.792   3.893   0.000  0.00  0.00    +0.000 A 
ATOM     42  C   UNL     1      -4.792   3.068   0.000  0.00  0.00    +0.000 A 
BRANCH  32  43
ATOM     43  C   UNL     1       1.883   2.926   0.000  0.00  0.00    +0.000 C 
ATOM     44  C   UNL     1       2.708   2.930   0.000  0.00  0.00    +0.000 C 
ENDBRANCH  32  43
BRANCH  23  45
ATOM     45  C   UNL     1      -1.817   1.639   0.000  0.00  0.00    +0.000 C 
ATOM     46  O   UNL     1      -1.409   0.930   0.000  0.00  0.00    +0.000 OA
BRANCH  45  47
ATOM     47  O   UNL     1      -2.638   1.643   0.000  0.00  0.00    +0.000 OA
ATOM     48  C   UNL     1      -3.050   0.934   0.000  0.00  0.00    +0.000 C 
ENDBRANCH  45  47
ENDBRANCH  23  45
ENDBRANCH  10  23
BRANCH   5  49
ATOM     49  C   UNL     1       3.951  -1.970   0.000  0.00  0.00    +0.000 C 
ATOM     50  C   UNL     1       4.777  -1.972   0.000  0.00  0.00    +0.000 C 
ENDBRANCH   5  49
BRANCH  14  51
ATOM     51  O   UNL     1      -1.406   0.181   0.000  0.00  0.00    +0.000 OA
ATOM     52  C   UNL     1      -1.899  -0.651   0.000  0.00  0.00    +0.000 C 
ENDBRANCH  14  51
BRANCH   2  53
ATOM     53  C   UNL     1       1.649  -3.046   0.000  0.00  0.00    +0.000 C 
ATOM     54  O   UNL     1       0.895  -3.083   0.000  0.00  0.00    +0.000 OA
BRANCH  53  55
ATOM     55  O   UNL     1       2.065  -3.768   0.000  0.00  0.00    +0.000 OA
ATOM     56  C   UNL     1       1.651  -4.418   0.000  0.00  0.00    +0.000 C 
ENDBRANCH  53  55
ENDBRANCH   2  53
BRANCH   8  57
ATOM     57  O   UNL     1       3.530  -2.686   0.000  0.00  0.00    +0.000 OA
BRANCH  57  58
ATOM     58  C   UNL     1       3.188  -3.269   0.000  0.00  0.00    +0.000 C 
ATOM     59  O   UNL     1       2.513  -3.259   0.000  0.00  0.00    +0.000 OA
ATOM     60  C   UNL     1       3.519  -3.857   0.000  0.00  0.00    +0.000 C 
ENDBRANCH  57  58
ENDBRANCH   8  57
TORSDOF 10
