REMARK  Name = 
REMARK  14 active torsions:
REMARK  status: ('A' for Active; 'I' for Inactive)
REMARK    1  A    between atoms: C_1  and  C_39
REMARK    2  A    between atoms: C_7  and  C_9
REMARK    3  A    between atoms: N_11  and  C_12
REMARK    4  A    between atoms: C_12  and  C_13
REMARK    5  A    between atoms: C_12  and  C_17
REMARK    6  A    between atoms: C_13  and  C_15
REMARK    7  A    between atoms: C_17  and  C_19
REMARK    8  A    between atoms: C_19  and  C_20
REMARK    9  A    between atoms: C_20  and  C_22
REMARK   10  A    between atoms: N_24  and  C_25
REMARK   11  A    between atoms: C_25  and  C_26
REMARK   12  A    between atoms: C_25  and  C_36
REMARK   13  A    between atoms: N_28  and  C_29
REMARK   14  A    between atoms: C_29  and  C_30
REMARK                            x       y       z     vdW  Elec       q    Type
REMARK                         _______ _______ _______ _____ _____    ______ ____
ROOT
ATOM      1  C   UNL     1       0.000   0.418   0.000  0.00  0.00    +0.000 C 
ENDROOT
BRANCH   1   4
ATOM      2  C   UNL     1      -1.432   0.418   0.000  0.00  0.00    +0.000 C 
ATOM      3  O   UNL     1      -1.432  -0.407   0.000  0.00  0.00    +0.000 OA
ATOM      4  N   UNL     1      -0.722   0.831   0.000  0.00  0.00    +0.000 NA
BRANCH   2   8
ATOM      5  C   UNL     1      -2.865  -0.407   0.000  0.00  0.00    +0.000 C 
ATOM      6  O   UNL     1      -2.143  -0.819   0.000  0.00  0.00    +0.000 OA
ATOM      7  N   UNL     1      -2.865   0.418   0.000  0.00  0.00    +0.000 NA
ATOM      8  C   UNL     1      -2.143   0.831   0.000  0.00  0.00    +0.000 C 
ATOM      9  C   UNL     1      -2.143   1.656   0.000  0.00  0.00    +0.000 C 
ATOM     10  C   UNL     1      -3.587  -0.819   0.000  0.00  0.00    +0.000 C 
ATOM     11  N   UNL     1      -4.377  -0.613   0.000  0.00  0.00    +0.000 NA
ATOM     12  C   UNL     1      -2.865   2.068   0.000  0.00  0.00    +0.000 C 
ATOM     13  O   UNL     1      -3.587   1.656   0.000  0.00  0.00    +0.000 OA
ATOM     14  N   UNL     1      -2.865   2.893   0.000  0.00  0.00    +0.000 NA
ATOM     15  C   UNL     1      -3.587   3.306   0.000  0.00  0.00    +0.000 C 
ATOM     16  C   UNL     1      -4.297   2.893   0.000  0.00  0.00    +0.000 C 
ATOM     17  C   UNL     1      -4.297   2.068   0.000  0.00  0.00    +0.000 C 
ATOM     18  C   UNL     1      -5.008   1.656   0.000  0.00  0.00    +0.000 C 
ATOM     19  C   UNL     1      -5.008   0.831   0.000  0.00  0.00    +0.000 C 
ATOM     20  C   UNL     1      -5.729   0.418   0.000  0.00  0.00    +0.000 C 
ATOM     21  O   UNL     1      -5.729  -0.407   0.000  0.00  0.00    +0.000 OA
ATOM     22  C   UNL     1      -5.008  -0.819   0.000  0.00  0.00    +0.000 C 
ATOM     23  O   UNL     1      -5.008  -1.656   0.000  0.00  0.00    +0.000 OA
BRANCH  10  24
ATOM     24  C   UNL     1      -3.587  -1.656   0.000  0.00  0.00    +0.000 C 
ATOM     25  C   UNL     1      -4.297  -2.068   0.000  0.00  0.00    +0.000 C 
ATOM     26  C   UNL     1      -2.865  -2.068   0.000  0.00  0.00    +0.000 C 
ENDBRANCH  10  24
ENDBRANCH   2   8
ENDBRANCH   1   4
BRANCH   1  27
ATOM     27  C   UNL     1       0.722   0.831   0.000  0.00  0.00    +0.000 C 
ATOM     28  O   UNL     1       0.722   1.656   0.000  0.00  0.00    +0.000 OA
BRANCH  27  29
ATOM     29  C   UNL     1       1.432   0.418   0.000  0.00  0.00    +0.000 C 
BRANCH  29  30
ATOM     30  C   UNL     1       2.143   0.831   0.000  0.00  0.00    +0.000 C 
ATOM     31  C   UNL     1       2.143   1.656   0.000  0.00  0.00    +0.000 C 
BRANCH  30  32
ATOM     32  C   UNL     1       2.865   0.418   0.000  0.00  0.00    +0.000 C 
ATOM     33  O   UNL     1       2.865  -0.407   0.000  0.00  0.00    +0.000 OA
ATOM     34  N   UNL     1       3.575   0.831   0.000  0.00  0.00    +0.000 NA
BRANCH  34  35
ATOM     35  C   UNL     1       4.297   0.418   0.000  0.00  0.00    +0.000 C 
BRANCH  35  36
ATOM     36  C   UNL     1       4.297  -0.407   0.000  0.00  0.00    +0.000 C 
ATOM     37  O   UNL     1       5.008  -0.819   0.000  0.00  0.00    +0.000 OA
ATOM     38  N   UNL     1       3.575  -0.819   0.000  0.00  0.00    +0.000 NA
BRANCH  38  39
ATOM     39  C   UNL     1       3.575  -1.656   0.000  0.00  0.00    +0.000 C 
BRANCH  39  40
ATOM     40  C   UNL     1       2.865  -2.068   0.000  0.00  0.00    +0.000 A 
ATOM     41  C   UNL     1       2.143  -1.656   0.000  0.00  0.00    +0.000 A 
ATOM     42  C   UNL     1       1.432  -2.068   0.000  0.00  0.00    +0.000 A 
ATOM     43  C   UNL     1       1.432  -2.893   0.000  0.00  0.00    +0.000 A 
ATOM     44  C   UNL     1       2.143  -3.306   0.000  0.00  0.00    +0.000 A 
ATOM     45  C   UNL     1       2.865  -2.893   0.000  0.00  0.00    +0.000 A 
ENDBRANCH  39  40
ENDBRANCH  38  39
ENDBRANCH  35  36
BRANCH  35  46
ATOM     46  C   UNL     1       5.008   0.831   0.000  0.00  0.00    +0.000 C 
ATOM     47  C   UNL     1       5.729   0.418   0.000  0.00  0.00    +0.000 C 
ATOM     48  C   UNL     1       5.008   1.656   0.000  0.00  0.00    +0.000 C 
ENDBRANCH  35  46
ENDBRANCH  34  35
ENDBRANCH  30  32
ENDBRANCH  29  30
ENDBRANCH  27  29
ENDBRANCH   1  27
BRANCH   1  49
ATOM     49  C   UNL     1       0.000  -0.407   0.000  0.00  0.00    +0.000 C 
BRANCH  49  51
ATOM     50  C   UNL     1      -0.722  -1.656   0.000  0.00  0.00    +0.000 C 
ATOM     51  C   UNL     1      -0.722  -0.819   0.000  0.00  0.00    +0.000 C 
ATOM     52  C   UNL     1       0.000  -1.243   0.000  0.00  0.00    +0.000 C 
ENDBRANCH  49  51
ENDBRANCH   1  49
TORSDOF 14
