REMARK  Name = 
REMARK  3 active torsions:
REMARK  status: ('A' for Active; 'I' for Inactive)
REMARK    1  A    between atoms: C_2  and  C_20
REMARK    2  A    between atoms: C_4  and  O_23
REMARK    3  A    between atoms: O_23  and  C_24
REMARK                            x       y       z     vdW  Elec       q    Type
REMARK                         _______ _______ _______ _____ _____    ______ ____
ROOT
ATOM      1  C   UNL     1      -1.787  -0.822   0.000  0.00  0.00    +0.000 C 
ATOM      2  C   UNL     1      -1.787  -1.647   0.000  0.00  0.00    +0.000 C 
ATOM      3  C   UNL     1      -1.075  -2.055   0.000  0.00  0.00    +0.000 C 
ATOM      4  C   UNL     1      -1.075  -0.405   0.000  0.00  0.00    +0.000 C 
ATOM      5  C   UNL     1      -0.363  -0.822   0.000  0.00  0.00    +0.000 A 
ATOM      6  C   UNL     1      -0.366  -1.647   0.000  0.00  0.00    +0.000 A 
ATOM      7  C   UNL     1       0.343  -2.060   0.000  0.00  0.00    +0.000 A 
ATOM      8  C   UNL     1       0.349  -0.410   0.000  0.00  0.00    +0.000 A 
ATOM      9  C   UNL     1       1.063  -0.828   0.000  0.00  0.00    +0.000 A 
ATOM     10  C   UNL     1       1.059  -1.655   0.000  0.00  0.00    +0.000 A 
ATOM     11  C   UNL     1       1.770  -2.070   0.000  0.00  0.00    +0.000 C 
ATOM     12  C   UNL     1       1.777  -0.415   0.000  0.00  0.00    +0.000 C 
ATOM     13  C   UNL     1       2.493  -0.835   0.000  0.00  0.00    +0.000 A 
ATOM     14  C   UNL     1       2.488  -1.664   0.000  0.00  0.00    +0.000 A 
ATOM     15  C   UNL     1       3.200  -2.080   0.000  0.00  0.00    +0.000 A 
ATOM     16  C   UNL     1       3.921  -1.672   0.000  0.00  0.00    +0.000 A 
ATOM     17  C   UNL     1       3.925  -0.843   0.000  0.00  0.00    +0.000 A 
ATOM     18  C   UNL     1       3.209  -0.422   0.000  0.00  0.00    +0.000 A 
ATOM     19  N   UNL     1      -1.791  -2.472   0.000  0.00  0.00    +0.000 NA
ATOM     20  O   UNL     1       0.352   0.414   0.000  0.00  0.00    +0.000 OA
ATOM     21  O   UNL     1       0.337  -2.885   0.000  0.00  0.00    +0.000 OA
ATOM     22  O   UNL     1       1.780   0.409   0.000  0.00  0.00    +0.000 OA
ATOM     23  O   UNL     1       1.764  -2.895   0.000  0.00  0.00    +0.000 OA
ENDROOT
BRANCH   2  24
ATOM     24  C   UNL     1      -2.587  -1.430   0.000  0.00  0.00    +0.000 C 
ATOM     25  O   UNL     1      -2.798  -0.633   0.000  0.00  0.00    +0.000 OA
ATOM     26  C   UNL     1      -3.171  -2.012   0.000  0.00  0.00    +0.000 C 
ENDBRANCH   2  24
BRANCH   4  27
ATOM     27  O   UNL     1      -1.075   0.419   0.000  0.00  0.00    +0.000 OA
BRANCH  27  28
ATOM     28  C   UNL     1      -1.789   0.832   0.000  0.00  0.00    +0.000 C 
ATOM     29  C   UNL     1      -1.785   1.658   0.000  0.00  0.00    +0.000 C 
ATOM     30  C   UNL     1      -2.495   2.070   0.000  0.00  0.00    +0.000 C 
ATOM     31  C   UNL     1      -3.212   1.661   0.000  0.00  0.00    +0.000 C 
ATOM     32  C   UNL     1      -3.214   0.835   0.000  0.00  0.00    +0.000 C 
ATOM     33  O   UNL     1      -2.499   0.418   0.000  0.00  0.00    +0.000 OA
ATOM     34  O   UNL     1      -3.925   2.076   0.000  0.00  0.00    +0.000 OA
ATOM     35  O   UNL     1      -2.492   2.895   0.000  0.00  0.00    +0.000 OA
ENDBRANCH  27  28
ENDBRANCH   4  27
TORSDOF 3
