REMARK  Name = 
REMARK  6 active torsions:
REMARK  status: ('A' for Active; 'I' for Inactive)
REMARK    1  A    between atoms: C_10  and  C_11
REMARK    2  A    between atoms: C_11  and  N_12
REMARK    3  A    between atoms: N_12  and  C_13
REMARK    4  A    between atoms: C_13  and  C_15
REMARK    5  A    between atoms: C_16  and  C_17
REMARK    6  A    between atoms: C_18  and  C_19
REMARK                            x       y       z     vdW  Elec       q    Type
REMARK                         _______ _______ _______ _____ _____    ______ ____
ROOT
ATOM      1  C   UNL     1       2.476   0.208   0.000  0.00  0.00    +0.000 C 
ENDROOT
BRANCH   1  11
ATOM      2  C   UNL     1       0.333  -1.030   0.000  0.00  0.00    +0.000 A 
ATOM      3  C   UNL     1       0.333  -1.855   0.000  0.00  0.00    +0.000 A 
ATOM      4  C   UNL     1       1.047  -2.267   0.000  0.00  0.00    +0.000 A 
ATOM      5  C   UNL     1       1.762  -1.855   0.000  0.00  0.00    +0.000 A 
ATOM      6  C   UNL     1       1.762  -1.030   0.000  0.00  0.00    +0.000 A 
ATOM      7  C   UNL     1       1.047  -0.617   0.000  0.00  0.00    +0.000 A 
ATOM      8  C   UNL     1       2.476  -2.267   0.000  0.00  0.00    +0.000 A 
ATOM      9  C   UNL     1       3.191  -1.855   0.000  0.00  0.00    +0.000 A 
ATOM     10  C   UNL     1       3.191  -1.030   0.000  0.00  0.00    +0.000 A 
ATOM     11  C   UNL     1       2.476  -0.617   0.000  0.00  0.00    +0.000 A 
ENDBRANCH   1  11
BRANCH   1  12
ATOM     12  N   UNL     1       1.760   0.621   0.000  0.00  0.00    +0.000 NA
ATOM     13  C   UNL     1       1.760   1.445   0.000  0.00  0.00    +0.000 C 
BRANCH  12  14
ATOM     14  C   UNL     1       1.055   0.214   0.000  0.00  0.00    +0.000 C 
BRANCH  14  15
ATOM     15  C   UNL     1       0.356   0.618   0.000  0.00  0.00    +0.000 C 
ATOM     16  C   UNL     1      -0.346   0.212   0.000  0.00  0.00    +0.000 C 
BRANCH  16  17
ATOM     17  C   UNL     1      -1.047   0.617   0.000  0.00  0.00    +0.000 C 
ATOM     18  C   UNL     1      -1.762   1.029   0.000  0.00  0.00    +0.000 C 
BRANCH  18  19
ATOM     19  C   UNL     1      -2.476   1.442   0.000  0.00  0.00    +0.000 C 
ATOM     20  C   UNL     1      -3.191   1.855   0.000  0.00  0.00    +0.000 C 
ATOM     21  C   UNL     1      -2.476   2.267   0.000  0.00  0.00    +0.000 C 
ATOM     22  C   UNL     1      -3.191   1.030   0.000  0.00  0.00    +0.000 C 
ENDBRANCH  18  19
ENDBRANCH  16  17
ENDBRANCH  14  15
ENDBRANCH  12  14
ENDBRANCH   1  12
TORSDOF 6
