REMARK  Name = 
REMARK  5 active torsions:
REMARK  status: ('A' for Active; 'I' for Inactive)
REMARK    1  A    between atoms: C_2  and  C_3
REMARK    2  A    between atoms: C_3  and  O_4
REMARK    3  A    between atoms: O_4  and  C_5
REMARK    4  A    between atoms: C_5  and  C_7
REMARK    5  A    between atoms: C_7  and  N_8
REMARK                            x       y       z     vdW  Elec       q    Type
REMARK                         _______ _______ _______ _____ _____    ______ ____
ROOT
ATOM      1  N   UNL     1       5.716  -4.125   0.000  0.00  0.00    +0.000 N 
ATOM      2  C   UNL     1       6.430  -3.712   0.000  0.00  0.00    +0.000 A 
ATOM      3  C   UNL     1       7.145  -4.125   0.000  0.00  0.00    +0.000 A 
ATOM      4  C   UNL     1       7.145  -4.950   0.000  0.00  0.00    +0.000 A 
ATOM      5  O   UNL     1       7.859  -5.362   0.000  0.00  0.00    +0.000 OA
ATOM      6  C   UNL     1       6.430  -5.362   0.000  0.00  0.00    +0.000 A 
ATOM      7  C   UNL     1       5.716  -4.950   0.000  0.00  0.00    +0.000 A 
ATOM      8  I   UNL     1       6.430  -6.188   0.000  0.00  0.00    +0.000 I 
ATOM      9  I   UNL     1       7.859  -3.712   0.000  0.00  0.00    +0.000 I 
ENDROOT
BRANCH   1  10
ATOM     10  C   UNL     1       5.001  -3.712   0.000  0.00  0.00    +0.000 C 
BRANCH  10  11
ATOM     11  C   UNL     1       4.287  -4.125   0.000  0.00  0.00    +0.000 C 
ATOM     12  O   UNL     1       4.287  -4.950   0.000  0.00  0.00    +0.000 OA
BRANCH  11  13
ATOM     13  O   UNL     1       3.572  -3.712   0.000  0.00  0.00    +0.000 OA
BRANCH  13  14
ATOM     14  C   UNL     1       2.858  -4.125   0.000  0.00  0.00    +0.000 C 
BRANCH  14  16
ATOM     15  C   UNL     1       1.429  -4.125   0.000  0.00  0.00    +0.000 C 
ATOM     16  C   UNL     1       2.143  -3.712   0.000  0.00  0.00    +0.000 C 
ENDBRANCH  14  16
ENDBRANCH  13  14
ENDBRANCH  11  13
ENDBRANCH  10  11
ENDBRANCH   1  10
TORSDOF 5
