REMARK  Name = 
REMARK  5 active torsions:
REMARK  status: ('A' for Active; 'I' for Inactive)
REMARK    1  A    between atoms: C_9  and  C_20
REMARK    2  A    between atoms: C_20  and  N_21
REMARK    3  A    between atoms: C_22  and  O_23
REMARK    4  A    between atoms: O_23  and  C_24
REMARK    5  A    between atoms: C_24  and  C_26
REMARK                            x       y       z     vdW  Elec       q    Type
REMARK                         _______ _______ _______ _____ _____    ______ ____
ROOT
ATOM      1  C   UNL     1       2.195   0.394   0.000  0.00  0.00    +0.000 C 
ATOM      2  C   UNL     1       2.195  -0.431   0.000  0.00  0.00    +0.000 A 
ATOM      3  C   UNL     1       2.916   0.794   0.000  0.00  0.00    +0.000 C 
ATOM      4  C   UNL     1       1.474   0.818   0.000  0.00  0.00    +0.000 C 
ATOM      5  C   UNL     1       2.917  -0.856   0.000  0.00  0.00    +0.000 A 
ATOM      6  C   UNL     1       1.474  -0.832   0.000  0.00  0.00    +0.000 A 
ATOM      7  N   UNL     1       2.916   1.619   0.000  0.00  0.00    +0.000 NA
ATOM      8  C   UNL     1       3.638   0.370   0.000  0.00  0.00    +0.000 C 
ATOM      9  C   UNL     1       1.510   1.621   0.000  0.00  0.00    +0.000 C 
ATOM     10  C   UNL     1       3.638  -0.455   0.000  0.00  0.00    +0.000 A 
ATOM     11  C   UNL     1       2.917  -1.681   0.000  0.00  0.00    +0.000 A 
ATOM     12  C   UNL     1       1.474  -1.657   0.000  0.00  0.00    +0.000 A 
ATOM     13  C   UNL     1       2.195   2.043   0.000  0.00  0.00    +0.000 C 
ATOM     14  C   UNL     1       3.637   2.020   0.000  0.00  0.00    +0.000 C 
ATOM     15  C   UNL     1       4.228  -1.258   0.000  0.00  0.00    +0.000 A 
ATOM     16  N   UNL     1       3.649  -1.989   0.000  0.00  0.00    +0.000 N 
ATOM     17  C   UNL     1       2.196  -2.081   0.000  0.00  0.00    +0.000 A 
ATOM     18  C   UNL     1       3.812  -2.893   0.000  0.00  0.00    +0.000 C 
ENDROOT
BRANCH   9  19
ATOM     19  C   UNL     1       0.789   2.045   0.000  0.00  0.00    +0.000 C 
BRANCH  19  20
ATOM     20  N   UNL     1       0.061   1.632   0.000  0.00  0.00    +0.000 NA
ATOM     21  C   UNL     1      -0.651   2.050   0.000  0.00  0.00    +0.000 C 
ATOM     22  O   UNL     1      -0.645   2.893   0.000  0.00  0.00    +0.000 OA
BRANCH  21  23
ATOM     23  O   UNL     1      -1.363   1.646   0.000  0.00  0.00    +0.000 OA
BRANCH  23  24
ATOM     24  C   UNL     1      -2.072   2.063   0.000  0.00  0.00    +0.000 C 
BRANCH  24  25
ATOM     25  C   UNL     1      -2.785   1.659   0.000  0.00  0.00    +0.000 A 
ATOM     26  C   UNL     1      -3.494   2.075   0.000  0.00  0.00    +0.000 A 
ATOM     27  C   UNL     1      -4.222   1.663   0.000  0.00  0.00    +0.000 A 
ATOM     28  C   UNL     1      -4.228   0.826   0.000  0.00  0.00    +0.000 A 
ATOM     29  C   UNL     1      -3.519   0.409   0.000  0.00  0.00    +0.000 A 
ATOM     30  C   UNL     1      -2.792   0.822   0.000  0.00  0.00    +0.000 A 
ENDBRANCH  24  25
ENDBRANCH  23  24
ENDBRANCH  21  23
ENDBRANCH  19  20
ENDBRANCH   9  19
TORSDOF 5
