REMARK  Name = 
REMARK  11 active torsions:
REMARK  status: ('A' for Active; 'I' for Inactive)
REMARK    1  A    between atoms: P_1  and  O_8
REMARK    2  A    between atoms: O_8  and  C_30
REMARK    3  A    between atoms: N_13  and  C_17
REMARK    4  A    between atoms: N_14  and  C_23
REMARK    5  A    between atoms: C_17  and  C_18
REMARK    6  A    between atoms: C_18  and  C_21
REMARK    7  A    between atoms: C_21  and  C_24
REMARK    8  A    between atoms: C_23  and  C_25
REMARK    9  A    between atoms: C_24  and  C_28
REMARK   10  A    between atoms: C_25  and  C_27
REMARK   11  A    between atoms: C_27  and  C_30
REMARK                            x       y       z     vdW  Elec       q    Type
REMARK                         _______ _______ _______ _____ _____    ______ ____
ROOT
ATOM      1  O   UNL     1       0.769   0.404   0.000  0.00  0.00    +0.000 OA
ATOM      2  O   UNL     1      -2.032  -1.246   0.000  0.00  0.00    +0.000 OA
ATOM      3  O   UNL     1      -3.461   1.229   0.000  0.00  0.00    +0.000 OA
ATOM      4  N   UNL     1      -0.537   1.068   0.000  0.00  0.00    +0.000 N 
ATOM      5  N   UNL     1      -0.537  -0.260   0.000  0.00  0.00    +0.000 N 
ATOM      6  N   UNL     1      -2.032   1.229   0.000  0.00  0.00    +0.000 N 
ATOM      7  N   UNL     1      -2.747  -0.009   0.000  0.00  0.00    +0.000 N 
ATOM      8  C   UNL     1      -1.318   0.816   0.000  0.00  0.00    +0.000 A 
ATOM      9  C   UNL     1      -1.318  -0.009   0.000  0.00  0.00    +0.000 A 
ATOM     10  C   UNL     1      -0.055   0.404   0.000  0.00  0.00    +0.000 A 
ATOM     11  C   UNL     1      -2.032  -0.421   0.000  0.00  0.00    +0.000 A 
ATOM     12  C   UNL     1      -2.747   0.816   0.000  0.00  0.00    +0.000 A 
ATOM     13  H   UNL     1      -2.032   1.740   0.000  0.00  0.00    +0.000 HD
ATOM     14  H   UNL     1      -3.190  -0.265   0.000  0.00  0.00    +0.000 HD
ENDROOT
BRANCH   4  15
ATOM     15  C   UNL     1      -0.281   1.852   0.000  0.00  0.00    +0.000 C 
BRANCH  15  17
ATOM     16  O   UNL     1       1.078   1.408   0.000  0.00  0.00    +0.000 OA
ATOM     17  C   UNL     1       0.527   2.022   0.000  0.00  0.00    +0.000 C 
BRANCH  17  19
ATOM     18  O   UNL     1       0.232   3.420   0.000  0.00  0.00    +0.000 OA
ATOM     19  C   UNL     1       0.783   2.806   0.000  0.00  0.00    +0.000 C 
BRANCH  19  21
ATOM     20  O   UNL     1       2.141   2.362   0.000  0.00  0.00    +0.000 OA
ATOM     21  C   UNL     1       1.590   2.976   0.000  0.00  0.00    +0.000 C 
BRANCH  21  23
ATOM     22  O   UNL     1       2.654   3.931   0.000  0.00  0.00    +0.000 OA
ATOM     23  C   UNL     1       1.847   3.760   0.000  0.00  0.00    +0.000 C 
ENDBRANCH  21  23
ENDBRANCH  19  21
ENDBRANCH  17  19
ENDBRANCH  15  17
ENDBRANCH   4  15
BRANCH   5  24
ATOM     24  C   UNL     1      -0.281  -1.044   0.000  0.00  0.00    +0.000 C 
BRANCH  24  25
ATOM     25  C   UNL     1       0.527  -1.215   0.000  0.00  0.00    +0.000 C 
BRANCH  25  26
ATOM     26  C   UNL     1       0.783  -1.999   0.000  0.00  0.00    +0.000 C 
BRANCH  26  27
ATOM     27  C   UNL     1       1.590  -2.169   0.000  0.00  0.00    +0.000 C 
BRANCH  27  28
ATOM     28  O   UNL     1       1.847  -2.953   0.000  0.00  0.00    +0.000 OA
BRANCH  28  29
ATOM     29  P   UNL     1       2.654  -3.123   0.000  0.00  0.00    +0.000 P 
ATOM     30  O   UNL     1       2.484  -3.931   0.000  0.00  0.00    +0.000 OA
ATOM     31  O   UNL     1       3.461  -3.293   0.000  0.00  0.00    +0.000 OA
ATOM     32  O   UNL     1       2.824  -2.316   0.000  0.00  0.00    +0.000 OA
ENDBRANCH  28  29
ENDBRANCH  27  28
ENDBRANCH  26  27
ENDBRANCH  25  26
ENDBRANCH  24  25
ENDBRANCH   5  24
TORSDOF 11
