REMARK  Name = 
REMARK  3 active torsions:
REMARK  status: ('A' for Active; 'I' for Inactive)
REMARK    1  A    between atoms: C_2  and  N_3
REMARK    2  A    between atoms: C_8  and  C_10
REMARK    3  A    between atoms: C_13  and  C_17
REMARK                            x       y       z     vdW  Elec       q    Type
REMARK                         _______ _______ _______ _____ _____    ______ ____
ROOT
ATOM      1  N   UNL     1       0.000  -1.650   0.000  0.00  0.00    +0.000 N 
ATOM      2  C   UNL     1       0.715  -1.238   0.000  0.00  0.00    +0.000 A 
ATOM      3  C   UNL     1       0.715  -0.412   0.000  0.00  0.00    +0.000 A 
ATOM      4  N   UNL     1       1.429   0.000   0.000  0.00  0.00    +0.000 NA
ATOM      5  C   UNL     1       2.143  -0.412   0.000  0.00  0.00    +0.000 A 
ATOM      6  C   UNL     1       2.143  -1.238   0.000  0.00  0.00    +0.000 A 
ATOM      7  N   UNL     1       1.429  -1.650   0.000  0.00  0.00    +0.000 NA
ATOM      8  N   UNL     1       0.000   0.000   0.000  0.00  0.00    +0.000 NA
ATOM      9  C   UNL     1      -0.715  -0.412   0.000  0.00  0.00    +0.000 C 
ATOM     10  C   UNL     1      -0.715  -1.238   0.000  0.00  0.00    +0.000 C 
ATOM     11  O   UNL     1      -1.429  -1.650   0.000  0.00  0.00    +0.000 OA
ENDROOT
BRANCH   6  12
ATOM     12  C   UNL     1       2.858  -1.650   0.000  0.00  0.00    +0.000 A 
ATOM     13  C   UNL     1       3.572  -1.238   0.000  0.00  0.00    +0.000 A 
ATOM     14  C   UNL     1       4.287  -1.650   0.000  0.00  0.00    +0.000 A 
ATOM     15  C   UNL     1       4.287  -2.475   0.000  0.00  0.00    +0.000 A 
ATOM     16  N   UNL     1       3.572  -2.888   0.000  0.00  0.00    +0.000 NA
ATOM     17  C   UNL     1       2.858  -2.475   0.000  0.00  0.00    +0.000 A 
ATOM     18  C   UNL     1       2.143  -2.888   0.000  0.00  0.00    +0.000 C 
BRANCH  15  19
ATOM     19  C   UNL     1       5.001  -2.888   0.000  0.00  0.00    +0.000 A 
ATOM     20  N   UNL     1       5.755  -2.552   0.000  0.00  0.00    +0.000 NA
ATOM     21  C   UNL     1       6.307  -3.165   0.000  0.00  0.00    +0.000 A 
ATOM     22  N   UNL     1       5.894  -3.880   0.000  0.00  0.00    +0.000 NA
ATOM     23  N   UNL     1       5.088  -3.708   0.000  0.00  0.00    +0.000 NA
ENDBRANCH  15  19
ENDBRANCH   6  12
BRANCH   1  25
ATOM     24  C   UNL     1      -0.715  -2.888   0.000  0.00  0.00    +0.000 C 
ATOM     25  C   UNL     1       0.000  -2.475   0.000  0.00  0.00    +0.000 C 
ENDBRANCH   1  25
TORSDOF 3
