REMARK  Name = 
REMARK  4 active torsions:
REMARK  status: ('A' for Active; 'I' for Inactive)
REMARK    1  A    between atoms: N_6  and  C_8
REMARK    2  A    between atoms: C_13  and  O_14
REMARK    3  A    between atoms: N_16  and  C_24
REMARK    4  A    between atoms: C_18  and  C_21
REMARK                            x       y       z     vdW  Elec       q    Type
REMARK                         _______ _______ _______ _____ _____    ______ ____
ROOT
ATOM      1  C   UNL     1      -0.715  -0.412   0.000  0.00  0.00    +0.000 A 
ATOM      2  C   UNL     1      -0.715  -1.238   0.000  0.00  0.00    +0.000 A 
ATOM      3  C   UNL     1       0.000  -1.650   0.000  0.00  0.00    +0.000 A 
ATOM      4  C   UNL     1       0.715  -1.238   0.000  0.00  0.00    +0.000 A 
ATOM      5  C   UNL     1       0.715  -0.412   0.000  0.00  0.00    +0.000 A 
ATOM      6  C   UNL     1       0.000   0.000   0.000  0.00  0.00    +0.000 A 
ATOM      7  N   UNL     1       1.429   0.000   0.000  0.00  0.00    +0.000 N 
ATOM      8  C   UNL     1       2.143  -0.412   0.000  0.00  0.00    +0.000 A 
ATOM      9  C   UNL     1       2.143  -1.238   0.000  0.00  0.00    +0.000 A 
ATOM     10  C   UNL     1       1.429  -1.650   0.000  0.00  0.00    +0.000 A 
ATOM     11  O   UNL     1       1.429  -2.475   0.000  0.00  0.00    +0.000 OA
ENDROOT
BRANCH   1  17
ATOM     12  C   UNL     1      -3.572  -0.412   0.000  0.00  0.00    +0.000 C 
ATOM     13  C   UNL     1      -2.858   0.000   0.000  0.00  0.00    +0.000 C 
ATOM     14  C   UNL     1      -2.858   0.825   0.000  0.00  0.00    +0.000 C 
ATOM     15  C   UNL     1      -2.143   1.238   0.000  0.00  0.00    +0.000 C 
ATOM     16  C   UNL     1      -1.429   0.825   0.000  0.00  0.00    +0.000 C 
ATOM     17  N   UNL     1      -1.429   0.000   0.000  0.00  0.00    +0.000 N 
ATOM     18  C   UNL     1      -2.143  -0.412   0.000  0.00  0.00    +0.000 C 
ATOM     19  N   UNL     1      -2.143   2.062   0.000  0.00  0.00    +0.000 NA
ENDBRANCH   1  17
BRANCH   9  20
ATOM     20  C   UNL     1       2.858  -1.650   0.000  0.00  0.00    +0.000 C 
ATOM     21  O   UNL     1       3.572  -1.238   0.000  0.00  0.00    +0.000 OA
ATOM     22  O   UNL     1       2.858  -2.475   0.000  0.00  0.00    +0.000 OA
ENDBRANCH   9  20
BRANCH   7  23
ATOM     23  C   UNL     1       1.429   0.825   0.000  0.00  0.00    +0.000 C 
ATOM     24  C   UNL     1       1.016   1.540   0.000  0.00  0.00    +0.000 C 
ATOM     25  C   UNL     1       1.841   1.540   0.000  0.00  0.00    +0.000 C 
ENDBRANCH   7  23
BRANCH   6  26
ATOM     26  O   UNL     1       0.000   0.825   0.000  0.00  0.00    +0.000 OA
ATOM     27  C   UNL     1      -0.715   1.238   0.000  0.00  0.00    +0.000 C 
ENDBRANCH   6  26
TORSDOF 4
