REMARK  Name = 
REMARK  40 active torsions:
REMARK  status: ('A' for Active; 'I' for Inactive)
REMARK    1  A    between atoms: C_3  and  C_5
REMARK    2  A    between atoms: C_4  and  C_6
REMARK    3  A    between atoms: C_7  and  C_9
REMARK    4  A    between atoms: C_8  and  C_10
REMARK    5  A    between atoms: C_9  and  C_11
REMARK    6  A    between atoms: C_10  and  C_12
REMARK    7  A    between atoms: C_13  and  C_15
REMARK    8  A    between atoms: C_14  and  C_16
REMARK    9  A    between atoms: C_15  and  C_17
REMARK   10  A    between atoms: C_16  and  C_18
REMARK   11  A    between atoms: C_19  and  C_21
REMARK   12  A    between atoms: C_20  and  C_22
REMARK   13  A    between atoms: C_21  and  C_23
REMARK   14  A    between atoms: C_22  and  C_24
REMARK   15  A    between atoms: C_25  and  C_27
REMARK   16  A    between atoms: C_26  and  C_28
REMARK   17  A    between atoms: C_27  and  C_29
REMARK   18  A    between atoms: C_28  and  C_30
REMARK   19  A    between atoms: C_31  and  C_33
REMARK   20  A    between atoms: C_32  and  C_34
REMARK   21  A    between atoms: C_33  and  C_35
REMARK   22  A    between atoms: C_34  and  C_36
REMARK   23  A    between atoms: C_37  and  C_39
REMARK   24  A    between atoms: C_38  and  C_40
REMARK   25  A    between atoms: C_39  and  C_41
REMARK   26  A    between atoms: C_40  and  C_42
REMARK   27  A    between atoms: C_41  and  C_48
REMARK   28  A    between atoms: C_42  and  C_49
REMARK   29  A    between atoms: C_43  and  C_46
REMARK   30  A    between atoms: C_43  and  O_58
REMARK   31  A    between atoms: C_44  and  C_46
REMARK   32  A    between atoms: C_44  and  O_59
REMARK   33  A    between atoms: C_45  and  C_47
REMARK   34  A    between atoms: C_45  and  O_60
REMARK   35  A    between atoms: C_46  and  O_61
REMARK   36  A    between atoms: C_47  and  C_50
REMARK   37  A    between atoms: C_48  and  O_58
REMARK   38  A    between atoms: C_49  and  O_61
REMARK   39  A    between atoms: O_59  and  P_62
REMARK   40  A    between atoms: O_60  and  P_62
REMARK                            x       y       z     vdW  Elec       q    Type
REMARK                         _______ _______ _______ _____ _____    ______ ____
ROOT
ATOM      1  C   UNK     1      -1.786  -0.206   0.000  0.00  0.00    +0.000 C 
ENDROOT
BRANCH   1   2
ATOM      2  C   UNK     1      -2.501   0.206   0.000  0.00  0.00    +0.000 C 
BRANCH   2   3
ATOM      3  O   UNK     1      -3.215  -0.206   0.000  0.00  0.00    +0.000 OA
BRANCH   3   4
ATOM      4  C   UNK     1      -3.929   0.206   0.000  0.00  0.00    +0.000 C 
ATOM      5  O   UNK     1      -3.929   1.031   0.000  0.00  0.00    +0.000 OA
BRANCH   4   6
ATOM      6  C   UNK     1      -4.644  -0.206   0.000  0.00  0.00    +0.000 C 
BRANCH   6   7
ATOM      7  C   UNK     1      -5.359   0.206   0.000  0.00  0.00    +0.000 C 
BRANCH   7   9
ATOM      8  C   UNK     1      -6.787   0.206   0.000  0.00  0.00    +0.000 C 
ATOM      9  C   UNK     1      -6.073  -0.206   0.000  0.00  0.00    +0.000 C 
BRANCH   8  10
ATOM     10  C   UNK     1      -6.787   1.031   0.000  0.00  0.00    +0.000 C 
BRANCH  10  12
ATOM     11  C   UNK     1      -7.502   2.269   0.000  0.00  0.00    +0.000 C 
ATOM     12  C   UNK     1      -7.502   1.444   0.000  0.00  0.00    +0.000 C 
BRANCH  11  13
ATOM     13  C   UNK     1      -6.787   2.681   0.000  0.00  0.00    +0.000 C 
BRANCH  13  15
ATOM     14  C   UNK     1      -6.073   3.919   0.000  0.00  0.00    +0.000 C 
ATOM     15  C   UNK     1      -6.787   3.506   0.000  0.00  0.00    +0.000 C 
BRANCH  14  16
ATOM     16  C   UNK     1      -5.359   3.506   0.000  0.00  0.00    +0.000 C 
BRANCH  16  18
ATOM     17  C   UNK     1      -3.929   3.506   0.000  0.00  0.00    +0.000 C 
ATOM     18  C   UNK     1      -4.644   3.919   0.000  0.00  0.00    +0.000 C 
BRANCH  17  19
ATOM     19  C   UNK     1      -3.929   2.681   0.000  0.00  0.00    +0.000 C 
BRANCH  19  21
ATOM     20  C   UNK     1      -2.501   2.681   0.000  0.00  0.00    +0.000 C 
ATOM     21  C   UNK     1      -3.215   2.269   0.000  0.00  0.00    +0.000 C 
BRANCH  20  22
ATOM     22  C   UNK     1      -2.501   3.506   0.000  0.00  0.00    +0.000 C 
BRANCH  22  24
ATOM     23  C   UNK     1      -3.215   4.744   0.000  0.00  0.00    +0.000 C 
ATOM     24  C   UNK     1      -3.215   3.919   0.000  0.00  0.00    +0.000 C 
BRANCH  23  26
ATOM     25  C   UNK     1      -2.501   5.981   0.000  0.00  0.00    +0.000 C 
ATOM     26  C   UNK     1      -2.501   5.156   0.000  0.00  0.00    +0.000 C 
ENDBRANCH  23  26
ENDBRANCH  22  24
ENDBRANCH  20  22
ENDBRANCH  19  21
ENDBRANCH  17  19
ENDBRANCH  16  18
ENDBRANCH  14  16
ENDBRANCH  13  15
ENDBRANCH  11  13
ENDBRANCH  10  12
ENDBRANCH   8  10
ENDBRANCH   7   9
ENDBRANCH   6   7
ENDBRANCH   4   6
ENDBRANCH   3   4
ENDBRANCH   2   3
ENDBRANCH   1   2
BRANCH   1  27
ATOM     27  C   UNK     1      -1.786  -1.031   0.000  0.00  0.00    +0.000 C 
BRANCH  27  28
ATOM     28  O   UNK     1      -2.501  -1.444   0.000  0.00  0.00    +0.000 OA
BRANCH  28  31
ATOM     29  O   UNK     1      -2.501  -3.094   0.000  0.00  0.00    +0.000 OA
ATOM     30  O   UNK     1      -1.676  -2.269   0.000  0.00  0.00    +0.000 OA
ATOM     31  P   UNK     1      -2.501  -2.269   0.000  0.00  0.00    +0.000 P 
BRANCH  31  32
ATOM     32  O   UNK     1      -3.326  -2.269   0.000  0.00  0.00    +0.000 OA
BRANCH  32  33
ATOM     33  C   UNK     1      -3.738  -2.983   0.000  0.00  0.00    +0.000 C 
BRANCH  33  34
ATOM     34  C   UNK     1      -4.563  -2.983   0.000  0.00  0.00    +0.000 C 
ATOM     35  N   UNK     1      -4.976  -2.269   0.000  0.00  0.00    +0.000 NA
BRANCH  34  36
ATOM     36  C   UNK     1      -4.976  -3.698   0.000  0.00  0.00    +0.000 C 
ATOM     37  O   UNK     1      -5.801  -3.698   0.000  0.00  0.00    +0.000 OA
ATOM     38  O   UNK     1      -4.563  -4.412   0.000  0.00  0.00    +0.000 OA
ENDBRANCH  34  36
ENDBRANCH  33  34
ENDBRANCH  32  33
ENDBRANCH  31  32
ENDBRANCH  28  31
ENDBRANCH  27  28
ENDBRANCH   1  27
BRANCH   1  39
ATOM     39  O   UNK     1      -1.072   0.206   0.000  0.00  0.00    +0.000 OA
BRANCH  39  40
ATOM     40  C   UNK     1      -0.357  -0.206   0.000  0.00  0.00    +0.000 C 
ATOM     41  O   UNK     1      -0.357  -1.031   0.000  0.00  0.00    +0.000 OA
BRANCH  40  42
ATOM     42  C   UNK     1       0.357   0.206   0.000  0.00  0.00    +0.000 C 
BRANCH  42  43
ATOM     43  C   UNK     1       1.072  -0.206   0.000  0.00  0.00    +0.000 C 
BRANCH  43  45
ATOM     44  C   UNK     1       2.501  -0.206   0.000  0.00  0.00    +0.000 C 
ATOM     45  C   UNK     1       1.786   0.206   0.000  0.00  0.00    +0.000 C 
BRANCH  44  46
ATOM     46  C   UNK     1       2.501  -1.031   0.000  0.00  0.00    +0.000 C 
BRANCH  46  48
ATOM     47  C   UNK     1       3.215  -2.269   0.000  0.00  0.00    +0.000 C 
ATOM     48  C   UNK     1       3.215  -1.444   0.000  0.00  0.00    +0.000 C 
BRANCH  47  49
ATOM     49  C   UNK     1       2.501  -2.681   0.000  0.00  0.00    +0.000 C 
BRANCH  49  51
ATOM     50  C   UNK     1       3.215  -3.919   0.000  0.00  0.00    +0.000 C 
ATOM     51  C   UNK     1       2.501  -3.506   0.000  0.00  0.00    +0.000 C 
BRANCH  50  52
ATOM     52  C   UNK     1       3.929  -3.506   0.000  0.00  0.00    +0.000 C 
BRANCH  52  54
ATOM     53  C   UNK     1       4.644  -2.269   0.000  0.00  0.00    +0.000 C 
ATOM     54  C   UNK     1       3.929  -2.681   0.000  0.00  0.00    +0.000 C 
BRANCH  53  55
ATOM     55  C   UNK     1       5.359  -2.681   0.000  0.00  0.00    +0.000 C 
BRANCH  55  57
ATOM     56  C   UNK     1       6.787  -2.681   0.000  0.00  0.00    +0.000 C 
ATOM     57  C   UNK     1       6.073  -2.269   0.000  0.00  0.00    +0.000 C 
BRANCH  56  58
ATOM     58  C   UNK     1       6.787  -3.506   0.000  0.00  0.00    +0.000 C 
BRANCH  58  60
ATOM     59  C   UNK     1       7.502  -4.744   0.000  0.00  0.00    +0.000 C 
ATOM     60  C   UNK     1       7.502  -3.919   0.000  0.00  0.00    +0.000 C 
BRANCH  59  62
ATOM     61  C   UNK     1       6.787  -5.981   0.000  0.00  0.00    +0.000 C 
ATOM     62  C   UNK     1       6.787  -5.156   0.000  0.00  0.00    +0.000 C 
ENDBRANCH  59  62
ENDBRANCH  58  60
ENDBRANCH  56  58
ENDBRANCH  55  57
ENDBRANCH  53  55
ENDBRANCH  52  54
ENDBRANCH  50  52
ENDBRANCH  49  51
ENDBRANCH  47  49
ENDBRANCH  46  48
ENDBRANCH  44  46
ENDBRANCH  43  45
ENDBRANCH  42  43
ENDBRANCH  40  42
ENDBRANCH  39  40
ENDBRANCH   1  39
TORSDOF 40
