REMARK  Name = 
REMARK  14 active torsions:
REMARK  status: ('A' for Active; 'I' for Inactive)
REMARK    1  A    between atoms: C_2  and  C_3
REMARK    2  A    between atoms: C_3  and  C_4
REMARK    3  A    between atoms: C_4  and  C_5
REMARK    4  A    between atoms: C_5  and  C_6
REMARK    5  A    between atoms: C_6  and  C_7
REMARK    6  A    between atoms: C_7  and  O_9
REMARK    7  A    between atoms: O_9  and  C_10
REMARK    8  A    between atoms: C_26  and  O_27
REMARK    9  A    between atoms: O_27  and  C_28
REMARK   10  A    between atoms: C_28  and  C_30
REMARK   11  A    between atoms: C_30  and  C_31
REMARK   12  A    between atoms: C_31  and  C_32
REMARK   13  A    between atoms: C_32  and  C_33
REMARK   14  A    between atoms: C_33  and  C_34
REMARK                            x       y       z     vdW  Elec       q    Type
REMARK                         _______ _______ _______ _____ _____    ______ ____
ROOT
ATOM      1  C   UNL     1      -3.493  -0.011   0.000  0.00  0.00    +0.000 A 
ATOM      2  C   UNL     1      -3.748   0.774   0.000  0.00  0.00    +0.000 A 
ATOM      3  C   UNL     1      -3.196   1.387   0.000  0.00  0.00    +0.000 A 
ATOM      4  C   UNL     1      -2.389   1.215   0.000  0.00  0.00    +0.000 A 
ATOM      5  C   UNL     1      -2.134   0.430   0.000  0.00  0.00    +0.000 A 
ATOM      6  C   UNL     1      -2.686  -0.182   0.000  0.00  0.00    +0.000 A 
ATOM      7  C   UNL     1      -1.327   0.259   0.000  0.00  0.00    +0.000 C 
ATOM      8  C   UNL     1      -0.775   0.872   0.000  0.00  0.00    +0.000 C 
ATOM      9  C   UNL     1      -1.030   1.657   0.000  0.00  0.00    +0.000 C 
ATOM     10  C   UNL     1      -1.837   1.828   0.000  0.00  0.00    +0.000 C 
ATOM     11  C   UNL     1      -2.092   2.613   0.000  0.00  0.00    +0.000 C 
ATOM     12  C   UNL     1      -1.540   3.226   0.000  0.00  0.00    +0.000 C 
ATOM     13  C   UNL     1      -0.733   3.054   0.000  0.00  0.00    +0.000 C 
ATOM     14  C   UNL     1      -0.478   2.270   0.000  0.00  0.00    +0.000 C 
ATOM     15  C   UNL     1       0.347   2.270   0.000  0.00  0.00    +0.000 C 
ATOM     16  C   UNL     1       0.602   3.054   0.000  0.00  0.00    +0.000 C 
ATOM     17  C   UNL     1      -0.065   3.539   0.000  0.00  0.00    +0.000 C 
ATOM     18  C   UNL     1      -0.904   3.861   0.000  0.00  0.00    +0.000 C 
ENDROOT
BRANCH   1  19
ATOM     19  O   UNL     1      -4.045  -0.624   0.000  0.00  0.00    +0.000 OA
BRANCH  19  20
ATOM     20  C   UNL     1      -3.790  -1.409   0.000  0.00  0.00    +0.000 C 
ATOM     21  O   UNL     1      -2.983  -1.580   0.000  0.00  0.00    +0.000 OA
BRANCH  20  22
ATOM     22  C   UNL     1      -4.342  -2.022   0.000  0.00  0.00    +0.000 C 
BRANCH  22  23
ATOM     23  C   UNL     1      -4.087  -2.806   0.000  0.00  0.00    +0.000 C 
BRANCH  23  24
ATOM     24  C   UNL     1      -4.639  -3.420   0.000  0.00  0.00    +0.000 C 
BRANCH  24  25
ATOM     25  C   UNL     1      -4.384  -4.204   0.000  0.00  0.00    +0.000 C 
BRANCH  25  27
ATOM     26  C   UNL     1      -4.681  -5.602   0.000  0.00  0.00    +0.000 C 
ATOM     27  C   UNL     1      -4.936  -4.817   0.000  0.00  0.00    +0.000 C 
ENDBRANCH  25  27
ENDBRANCH  24  25
ENDBRANCH  23  24
ENDBRANCH  22  23
ENDBRANCH  20  22
ENDBRANCH  19  20
ENDBRANCH   1  19
BRANCH  17  28
ATOM     28  O   UNL     1      -0.065   4.364   0.000  0.00  0.00    +0.000 OA
BRANCH  28  29
ATOM     29  C   UNL     1       0.649   4.777   0.000  0.00  0.00    +0.000 C 
ATOM     30  O   UNL     1       0.649   5.602   0.000  0.00  0.00    +0.000 OA
BRANCH  29  31
ATOM     31  C   UNL     1       1.364   4.364   0.000  0.00  0.00    +0.000 C 
BRANCH  31  32
ATOM     32  C   UNL     1       2.078   4.777   0.000  0.00  0.00    +0.000 C 
BRANCH  32  33
ATOM     33  C   UNL     1       2.793   4.364   0.000  0.00  0.00    +0.000 C 
BRANCH  33  34
ATOM     34  C   UNL     1       3.507   4.777   0.000  0.00  0.00    +0.000 C 
BRANCH  34  35
ATOM     35  C   UNL     1       4.222   4.364   0.000  0.00  0.00    +0.000 C 
ATOM     36  C   UNL     1       4.936   4.777   0.000  0.00  0.00    +0.000 C 
ENDBRANCH  34  35
ENDBRANCH  33  34
ENDBRANCH  32  33
ENDBRANCH  31  32
ENDBRANCH  29  31
ENDBRANCH  28  29
ENDBRANCH  17  28
TORSDOF 14
