REMARK  Name = 
REMARK  8 active torsions:
REMARK  status: ('A' for Active; 'I' for Inactive)
REMARK    1  A    between atoms: C_7  and  O_12
REMARK    2  A    between atoms: O_12  and  P_15
REMARK    3  A    between atoms: P_15  and  O_16
REMARK    4  A    between atoms: P_15  and  O_17
REMARK    5  A    between atoms: O_16  and  C_19
REMARK    6  A    between atoms: O_17  and  C_20
REMARK    7  A    between atoms: C_19  and  C_21
REMARK    8  A    between atoms: C_20  and  C_22
REMARK                            x       y       z     vdW  Elec       q    Type
REMARK                         _______ _______ _______ _____ _____    ______ ____
ROOT
ATOM      1  C   UNL     1       1.744   0.579   0.000  0.00  0.00    +0.000 A 
ATOM      2  C   UNL     1       1.744  -0.247   0.000  0.00  0.00    +0.000 A 
ATOM      3  C   UNL     1       1.025   0.993   0.000  0.00  0.00    +0.000 A 
ATOM      4  O   UNL     1       2.448   0.985   0.000  0.00  0.00    +0.000 OA
ATOM      5  C   UNL     1       2.448  -0.664   0.000  0.00  0.00    +0.000 A 
ATOM      6  C   UNL     1       1.035  -0.669   0.000  0.00  0.00    +0.000 A 
ATOM      7  C   UNL     1       0.332   0.579   0.000  0.00  0.00    +0.000 A 
ATOM      8  C   UNL     1       3.167   0.579   0.000  0.00  0.00    +0.000 A 
ATOM      9  C   UNL     1       3.151  -0.255   0.000  0.00  0.00    +0.000 A 
ATOM     10  C   UNL     1       2.458  -1.492   0.000  0.00  0.00    +0.000 C 
ATOM     11  C   UNL     1       0.318  -0.255   0.000  0.00  0.00    +0.000 A 
ATOM     12  O   UNL     1       3.884   0.985   0.000  0.00  0.00    +0.000 OA
ATOM     13 CL   UNL     1       3.873  -0.669   0.000  0.00  0.00    +0.000 Cl
ENDROOT
BRANCH   7  14
ATOM     14  O   UNL     1      -0.390   0.993   0.000  0.00  0.00    +0.000 OA
BRANCH  14  15
ATOM     15  P   UNL     1      -1.078   0.563   0.000  0.00  0.00    +0.000 P 
ATOM     16  O   UNL     1      -0.616  -0.066   0.000  0.00  0.00    +0.000 OA
BRANCH  15  17
ATOM     17  O   UNL     1      -1.659   1.139   0.000  0.00  0.00    +0.000 OA
BRANCH  17  18
ATOM     18  C   UNL     1      -2.450   0.924   0.000  0.00  0.00    +0.000 C 
BRANCH  18  19
ATOM     19  C   UNL     1      -3.040   1.492   0.000  0.00  0.00    +0.000 C 
ATOM     20 CL   UNL     1      -3.849   1.285   0.000  0.00  0.00    +0.000 Cl
ENDBRANCH  18  19
ENDBRANCH  17  18
ENDBRANCH  15  17
BRANCH  15  21
ATOM     21  O   UNL     1      -1.694   0.029   0.000  0.00  0.00    +0.000 OA
BRANCH  21  22
ATOM     22  C   UNL     1      -2.490   0.292   0.000  0.00  0.00    +0.000 C 
BRANCH  22  23
ATOM     23  C   UNL     1      -3.103  -0.247   0.000  0.00  0.00    +0.000 C 
ATOM     24 CL   UNL     1      -3.884   0.029   0.000  0.00  0.00    +0.000 Cl
ENDBRANCH  22  23
ENDBRANCH  21  22
ENDBRANCH  15  21
ENDBRANCH  14  15
ENDBRANCH   7  14
TORSDOF 8
