REMARK  Name = 
REMARK  9 active torsions:
REMARK  status: ('A' for Active; 'I' for Inactive)
REMARK    1  A    between atoms: HG_1  and  C_20
REMARK    2  A    between atoms: O_2  and  C_10
REMARK    3  A    between atoms: O_2  and  C_18
REMARK    4  A    between atoms: O_4  and  C_17
REMARK    5  A    between atoms: N_8  and  C_16
REMARK    6  A    between atoms: C_9  and  C_11
REMARK    7  A    between atoms: C_16  and  C_17
REMARK    8  A    between atoms: C_17  and  C_20
REMARK    9  A    between atoms: C_18  and  C_19
REMARK                            x       y       z     vdW  Elec       q    Type
REMARK                         _______ _______ _______ _____ _____    ______ ____
ROOT
ATOM      1  C   UNL     1      -1.429  -1.433   0.000  0.00  0.00    +0.000 A 
ATOM      2  C   UNL     1      -0.713  -1.840   0.000  0.00  0.00    +0.000 A 
ATOM      3  C   UNL     1      -2.140  -1.852   0.000  0.00  0.00    +0.000 A 
ATOM      4  C   UNL     1      -0.701  -2.667   0.000  0.00  0.00    +0.000 A 
ATOM      5  C   UNL     1      -2.140  -2.680   0.000  0.00  0.00    +0.000 A 
ATOM      6  C   UNL     1      -1.417  -3.087   0.000  0.00  0.00    +0.000 A 
ENDROOT
BRANCH   1   9
ATOM      7  O   UNL     1      -2.133  -0.191   0.000  0.00  0.00    +0.000 OA
ATOM      8  N   UNL     1      -0.707  -0.204   0.000  0.00  0.00    +0.000 NA
ATOM      9  C   UNL     1      -1.423  -0.611   0.000  0.00  0.00    +0.000 C 
BRANCH   8  10
ATOM     10  C   UNL     1      -0.701   0.624   0.000  0.00  0.00    +0.000 C 
BRANCH  10  11
ATOM     11  C   UNL     1       0.021   1.037   0.000  0.00  0.00    +0.000 C 
BRANCH  11  12
ATOM     12  O   UNL     1       0.732   0.617   0.000  0.00  0.00    +0.000 OA
ATOM     13  C   UNL     1       1.448   1.019   0.000  0.00  0.00    +0.000 C 
ENDBRANCH  11  12
BRANCH  11  14
ATOM     14  C   UNL     1      -0.015   1.859   0.000  0.00  0.00    +0.000 C 
BRANCH  14  15
ATOM     15 HG   UNL     1       0.744   2.266   0.000  0.00  0.00    +0.000 Hg
ATOM     16  O   UNL     1       0.750   3.087   0.000  0.00  0.00    +0.000 OA
ENDBRANCH  14  15
ENDBRANCH  11  14
ENDBRANCH  10  11
ENDBRANCH   8  10
ENDBRANCH   1   9
BRANCH   2  17
ATOM     17  O   UNL     1      -0.003  -1.426   0.000  0.00  0.00    +0.000 OA
BRANCH  17  18
ATOM     18  C   UNL     1       0.713  -1.834   0.000  0.00  0.00    +0.000 C 
BRANCH  18  21
ATOM     19  O   UNL     1       1.417  -0.593   0.000  0.00  0.00    +0.000 OA
ATOM     20  O   UNL     1       2.140  -1.822   0.000  0.00  0.00    +0.000 OA
ATOM     21  C   UNL     1       1.423  -1.414   0.000  0.00  0.00    +0.000 C 
ENDBRANCH  18  21
ENDBRANCH  17  18
ENDBRANCH   2  17
TORSDOF 9
