REMARK  Name = 
REMARK  5 active torsions:
REMARK  status: ('A' for Active; 'I' for Inactive)
REMARK    1  A    between atoms: N_2  and  C_4
REMARK    2  A    between atoms: C_4  and  C_5
REMARK    3  A    between atoms: C_5  and  C_6
REMARK    4  A    between atoms: C_6  and  N_7
REMARK    5  A    between atoms: N_14  and  C_15
REMARK                            x       y       z     vdW  Elec       q    Type
REMARK                         _______ _______ _______ _____ _____    ______ ____
ROOT
ATOM      1  N   UNL     1       7.145  -7.425   0.000  0.00  0.00    +0.000 NA
ATOM      2  C   UNL     1       7.859  -7.838   0.000  0.00  0.00    +0.000 A 
ATOM      3  N   UNL     1       8.574  -7.425   0.000  0.00  0.00    +0.000 NA
ATOM      4  C   UNL     1       9.288  -7.838   0.000  0.00  0.00    +0.000 A 
ATOM      5  N   UNL     1      10.003  -7.425   0.000  0.00  0.00    +0.000 NA
ATOM      6  C   UNL     1      10.717  -7.838   0.000  0.00  0.00    +0.000 C 
ATOM      7  O   UNL     1      10.717  -8.662   0.000  0.00  0.00    +0.000 OA
ATOM      8  N   UNL     1      11.431  -7.425   0.000  0.00  0.00    +0.000 NA
ATOM      9  N   UNL     1       9.288  -8.662   0.000  0.00  0.00    +0.000 NA
ATOM     10  C   UNL     1       8.574  -9.075   0.000  0.00  0.00    +0.000 A 
ATOM     11  C   UNL     1       8.574  -9.900   0.000  0.00  0.00    +0.000 C 
ATOM     12  C   UNL     1       7.859  -8.662   0.000  0.00  0.00    +0.000 A 
ENDROOT
BRANCH   8  13
ATOM     13  C   UNL     1      12.146  -7.838   0.000  0.00  0.00    +0.000 A 
ATOM     14  C   UNL     1      12.861  -7.425   0.000  0.00  0.00    +0.000 A 
ATOM     15  C   UNL     1      13.575  -7.838   0.000  0.00  0.00    +0.000 A 
ATOM     16  C   UNL     1      13.575  -8.662   0.000  0.00  0.00    +0.000 A 
ATOM     17 CL   UNL     1      14.289  -9.075   0.000  0.00  0.00    +0.000 Cl
ATOM     18  C   UNL     1      12.861  -9.075   0.000  0.00  0.00    +0.000 A 
ATOM     19 CL   UNL     1      12.861  -9.900   0.000  0.00  0.00    +0.000 Cl
ATOM     20  C   UNL     1      12.146  -8.662   0.000  0.00  0.00    +0.000 A 
ENDBRANCH   8  13
BRANCH   1  21
ATOM     21  C   UNL     1       6.430  -7.838   0.000  0.00  0.00    +0.000 C 
BRANCH  21  22
ATOM     22  C   UNL     1       5.716  -7.425   0.000  0.00  0.00    +0.000 C 
BRANCH  22  23
ATOM     23  C   UNL     1       5.001  -7.838   0.000  0.00  0.00    +0.000 C 
BRANCH  23  25
ATOM     24  C   UNL     1       3.572  -7.838   0.000  0.00  0.00    +0.000 C 
ATOM     25  N   UNL     1       4.287  -7.425   0.000  0.00  0.00    +0.000 NA
ATOM     26  C   UNL     1       4.287  -6.600   0.000  0.00  0.00    +0.000 C 
ENDBRANCH  23  25
ENDBRANCH  22  23
ENDBRANCH  21  22
ENDBRANCH   1  21
TORSDOF 5
