REMARK  Name = 
REMARK  5 active torsions:
REMARK  status: ('A' for Active; 'I' for Inactive)
REMARK    1  A    between atoms: C_3  and  N_16
REMARK    2  A    between atoms: C_4  and  O_19
REMARK    3  A    between atoms: C_10  and  C_12
REMARK    4  A    between atoms: C_12  and  O_19
REMARK    5  A    between atoms: C_14  and  N_15
REMARK                            x       y       z     vdW  Elec       q    Type
REMARK                         _______ _______ _______ _____ _____    ______ ____
ROOT
ATOM      1  C   UNL     1       4.203   2.060   0.000  0.00  0.00    +0.000 C 
ATOM      2  C   UNL     1       3.419   1.805   0.000  0.00  0.00    +0.000 C 
ATOM      3  C   UNL     1       2.084   1.805   0.000  0.00  0.00    +0.000 C 
ATOM      4  C   UNL     1       2.339   1.021   0.000  0.00  0.00    +0.000 C 
ATOM      5  N   UNL     1       2.751   2.290   0.000  0.00  0.00    +0.000 N 
ATOM      6  O   UNL     1       1.299   2.060   0.000  0.00  0.00    +0.000 OA
ATOM      7  S   UNL     1       3.164   1.021   0.000  0.00  0.00    +0.000 S 
ENDROOT
BRANCH   4  13
ATOM      8  C   UNL     1       0.884  -0.982   0.000  0.00  0.00    +0.000 C 
ATOM      9  C   UNL     1       1.704  -1.068   0.000  0.00  0.00    +0.000 C 
ATOM     10  C   UNL     1       0.548  -0.228   0.000  0.00  0.00    +0.000 C 
ATOM     11  C   UNL     1       2.189  -0.401   0.000  0.00  0.00    +0.000 C 
ATOM     12  C   UNL     1       1.033   0.439   0.000  0.00  0.00    +0.000 C 
ATOM     13  N   UNL     1       1.854   0.353   0.000  0.00  0.00    +0.000 NA
ENDBRANCH   4  13
BRANCH   5  15
ATOM     14  C   UNL     1       2.037   3.528   0.000  0.00  0.00    +0.000 C 
ATOM     15  C   UNL     1       2.751   3.115   0.000  0.00  0.00    +0.000 C 
ENDBRANCH   5  15
BRANCH   1  16
ATOM     16  C   UNL     1       4.816   1.508   0.000  0.00  0.00    +0.000 C 
ATOM     17  O   UNL     1       4.645   0.701   0.000  0.00  0.00    +0.000 OA
BRANCH  16  18
ATOM     18  O   UNL     1       5.601   1.763   0.000  0.00  0.00    +0.000 OA
BRANCH  18  20
ATOM     19  C   UNL     1       6.999   1.466   0.000  0.00  0.00    +0.000 C 
ATOM     20  C   UNL     1       6.214   1.211   0.000  0.00  0.00    +0.000 C 
ENDBRANCH  18  20
ENDBRANCH  16  18
ENDBRANCH   1  16
TORSDOF 5
