REMARK  Name = 
REMARK  4 active torsions:
REMARK  status: ('A' for Active; 'I' for Inactive)
REMARK    1  A    between atoms: C_1  and  C_2
REMARK    2  A    between atoms: C_1  and  N_17
REMARK    3  A    between atoms: C_1  and  C_20
REMARK    4  A    between atoms: C_20  and  C_21
REMARK                            x       y       z     vdW  Elec       q    Type
REMARK                         _______ _______ _______ _____ _____    ______ ____
ROOT
ATOM      1  C   UNL     1      -0.667  -0.653   0.000  0.00  0.00    +0.000 C 
ENDROOT
BRANCH   1  11
ATOM      2  C   UNL     1       1.808   0.776   0.000  0.00  0.00    +0.000 A 
ATOM      3  C   UNL     1       2.800   1.669   0.000  0.00  0.00    +0.000 A 
ATOM      4  N   UNL     1       2.086   2.082   0.000  0.00  0.00    +0.000 NA
ATOM      5  N   UNL     1       1.473   1.530   0.000  0.00  0.00    +0.000 NA
ATOM      6  S   UNL     1       2.629   0.862   0.000  0.00  0.00    +0.000 S 
ATOM      7  S   UNL     1       3.554   2.005   0.000  0.00  0.00    +0.000 S 
ATOM      8  N   UNL     1       1.396   0.061   0.000  0.00  0.00    +0.000 NA
ATOM      9  C   UNL     1       0.571   0.061   0.000  0.00  0.00    +0.000 C 
ATOM     10  O   UNL     1       0.158   0.776   0.000  0.00  0.00    +0.000 OA
ATOM     11  N   UNL     1       0.158  -0.653   0.000  0.00  0.00    +0.000 NA
ENDBRANCH   1  11
BRANCH   1  12
ATOM     12  C   UNL     1      -1.079   0.061   0.000  0.00  0.00    +0.000 C 
ATOM     13  C   UNL     1      -2.317   0.776   0.000  0.00  0.00    +0.000 C 
ATOM     14  O   UNL     1      -0.667   0.776   0.000  0.00  0.00    +0.000 OA
ATOM     15  N   UNL     1      -1.904   0.061   0.000  0.00  0.00    +0.000 NA
ENDBRANCH   1  12
BRANCH   1  16
ATOM     16  C   UNL     1      -1.079  -1.367   0.000  0.00  0.00    +0.000 C 
BRANCH  16  21
ATOM     17  C   UNL     1      -3.142  -2.082   0.000  0.00  0.00    +0.000 A 
ATOM     18  C   UNL     1      -3.554  -1.367   0.000  0.00  0.00    +0.000 A 
ATOM     19  C   UNL     1      -3.142  -0.653   0.000  0.00  0.00    +0.000 A 
ATOM     20  C   UNL     1      -2.317  -0.653   0.000  0.00  0.00    +0.000 A 
ATOM     21  C   UNL     1      -1.904  -1.367   0.000  0.00  0.00    +0.000 A 
ATOM     22  C   UNL     1      -2.317  -2.082   0.000  0.00  0.00    +0.000 A 
ENDBRANCH  16  21
ENDBRANCH   1  16
TORSDOF 4
