REMARK  Name = 
REMARK  4 active torsions:
REMARK  status: ('A' for Active; 'I' for Inactive)
REMARK    1  A    between atoms: C_4  and  C_5
REMARK    2  A    between atoms: C_4  and  C_6
REMARK    3  A    between atoms: C_5  and  C_7
REMARK    4  A    between atoms: C_6  and  C_8
REMARK                            x       y       z     vdW  Elec       q    Type
REMARK                         _______ _______ _______ _____ _____    ______ ____
ROOT
ATOM      1  C   UNL     1       1.540   1.238   0.000  0.00  0.00    +0.000 C 
ENDROOT
BRANCH   1   2
ATOM      2  C   UNL     1       1.540   2.062   0.000  0.00  0.00    +0.000 C 
BRANCH   2   4
ATOM      3  C   UNL     1       2.254   3.300   0.000  0.00  0.00    +0.000 C 
ATOM      4  C   UNL     1       2.254   2.475   0.000  0.00  0.00    +0.000 C 
ATOM      5  N   UNL     1       2.968   2.062   0.000  0.00  0.00    +0.000 NA
ENDBRANCH   2   4
ENDBRANCH   1   2
BRANCH   1   6
ATOM      6  C   UNL     1       0.825   0.825   0.000  0.00  0.00    +0.000 C 
BRANCH   6   9
ATOM      7  C   UNL     1       0.825  -0.825   0.000  0.00  0.00    +0.000 C 
ATOM      8  C   UNL     1       1.650   0.000   0.000  0.00  0.00    +0.000 C 
ATOM      9  C   UNL     1       0.825   0.000   0.000  0.00  0.00    +0.000 C 
ATOM     10  O   UNL     1       0.000   0.000   0.000  0.00  0.00    +0.000 OA
ENDBRANCH   6   9
ENDBRANCH   1   6
TORSDOF 4
