REMARK  Name = 
REMARK  18 active torsions:
REMARK  status: ('A' for Active; 'I' for Inactive)
REMARK    1  A    between atoms: C_2  and  N_3
REMARK    2  A    between atoms: N_3  and  C_4
REMARK    3  A    between atoms: N_3  and  C_6
REMARK    4  A    between atoms: C_6  and  C_7
REMARK    5  A    between atoms: C_7  and  O_8
REMARK    6  A    between atoms: O_8  and  C_9
REMARK    7  A    between atoms: C_13  and  O_23
REMARK    8  A    between atoms: C_14  and  O_15
REMARK    9  A    between atoms: O_15  and  C_16
REMARK   10  A    between atoms: C_16  and  C_17
REMARK   11  A    between atoms: C_17  and  N_18
REMARK   12  A    between atoms: N_18  and  C_19
REMARK   13  A    between atoms: N_18  and  C_21
REMARK   14  A    between atoms: O_23  and  C_24
REMARK   15  A    between atoms: C_24  and  C_25
REMARK   16  A    between atoms: C_25  and  N_26
REMARK   17  A    between atoms: N_26  and  C_27
REMARK   18  A    between atoms: N_26  and  C_29
REMARK                            x       y       z     vdW  Elec       q    Type
REMARK                         _______ _______ _______ _____ _____    ______ ____
ROOT
ATOM      1  C   UNL     1       0.493   2.666   0.000  0.00  0.00    +0.000 A 
ATOM      2  C   UNL     1       0.906   3.381   0.000  0.00  0.00    +0.000 A 
ATOM      3  C   UNL     1       1.731   3.381   0.000  0.00  0.00    +0.000 A 
ATOM      4  C   UNL     1       2.143   2.666   0.000  0.00  0.00    +0.000 A 
ATOM      5  C   UNL     1       1.731   1.952   0.000  0.00  0.00    +0.000 A 
ATOM      6  C   UNL     1       0.906   1.952   0.000  0.00  0.00    +0.000 A 
ENDROOT
BRANCH   6   7
ATOM      7  O   UNL     1       0.493   1.238   0.000  0.00  0.00    +0.000 OA
BRANCH   7   8
ATOM      8  C   UNL     1      -0.332   1.238   0.000  0.00  0.00    +0.000 C 
BRANCH   8   9
ATOM      9  C   UNL     1      -0.744   0.523   0.000  0.00  0.00    +0.000 C 
BRANCH   9  10
ATOM     10  N   UNL     1      -1.569   0.523   0.000  0.00  0.00    +0.000 NA
BRANCH  10  11
ATOM     11  C   UNL     1      -1.982  -0.191   0.000  0.00  0.00    +0.000 C 
ATOM     12  C   UNL     1      -2.807  -0.191   0.000  0.00  0.00    +0.000 C 
ENDBRANCH  10  11
BRANCH  10  13
ATOM     13  C   UNL     1      -1.982   1.238   0.000  0.00  0.00    +0.000 C 
ATOM     14  C   UNL     1      -2.807   1.238   0.000  0.00  0.00    +0.000 C 
ENDBRANCH  10  13
ENDBRANCH   9  10
ENDBRANCH   8   9
ENDBRANCH   7   8
ENDBRANCH   6   7
BRANCH   1  15
ATOM     15  O   UNL     1      -0.332   2.666   0.000  0.00  0.00    +0.000 OA
BRANCH  15  16
ATOM     16  C   UNL     1      -0.744   3.381   0.000  0.00  0.00    +0.000 C 
BRANCH  16  17
ATOM     17  C   UNL     1      -1.569   3.381   0.000  0.00  0.00    +0.000 C 
BRANCH  17  18
ATOM     18  N   UNL     1      -1.982   4.095   0.000  0.00  0.00    +0.000 NA
BRANCH  18  19
ATOM     19  C   UNL     1      -1.569   4.810   0.000  0.00  0.00    +0.000 C 
ATOM     20  C   UNL     1      -0.744   4.810   0.000  0.00  0.00    +0.000 C 
ENDBRANCH  18  19
BRANCH  18  22
ATOM     21  C   UNL     1      -3.219   4.810   0.000  0.00  0.00    +0.000 C 
ATOM     22  C   UNL     1      -2.807   4.095   0.000  0.00  0.00    +0.000 C 
ENDBRANCH  18  22
ENDBRANCH  17  18
ENDBRANCH  16  17
ENDBRANCH  15  16
ENDBRANCH   1  15
BRANCH   5  23
ATOM     23  O   UNL     1       2.143   1.238   0.000  0.00  0.00    +0.000 OA
BRANCH  23  24
ATOM     24  C   UNL     1       2.968   1.238   0.000  0.00  0.00    +0.000 C 
BRANCH  24  25
ATOM     25  C   UNL     1       3.381   0.523   0.000  0.00  0.00    +0.000 C 
BRANCH  25  26
ATOM     26  N   UNL     1       4.206   0.523   0.000  0.00  0.00    +0.000 NA
BRANCH  26  27
ATOM     27  C   UNL     1       4.618   1.238   0.000  0.00  0.00    +0.000 C 
ATOM     28  C   UNL     1       5.443   1.238   0.000  0.00  0.00    +0.000 C 
ENDBRANCH  26  27
BRANCH  26  29
ATOM     29  C   UNL     1       4.618  -0.191   0.000  0.00  0.00    +0.000 C 
ATOM     30  C   UNL     1       5.443  -0.191   0.000  0.00  0.00    +0.000 C 
ENDBRANCH  26  29
ENDBRANCH  25  26
ENDBRANCH  24  25
ENDBRANCH  23  24
ENDBRANCH   5  23
TORSDOF 18
