REMARK  Name = 
REMARK  11 active torsions:
REMARK  status: ('A' for Active; 'I' for Inactive)
REMARK    1  A    between atoms: O_2  and  C_3
REMARK    2  A    between atoms: C_8  and  C_9
REMARK    3  A    between atoms: C_9  and  O_10
REMARK    4  A    between atoms: O_10  and  C_11
REMARK    5  A    between atoms: C_11  and  C_13
REMARK    6  A    between atoms: C_13  and  C_14
REMARK    7  A    between atoms: C_14  and  C_15
REMARK    8  A    between atoms: C_15  and  C_16
REMARK    9  A    between atoms: C_16  and  C_17
REMARK   10  A    between atoms: C_17  and  C_18
REMARK   11  A    between atoms: C_18  and  C_19
REMARK                            x       y       z     vdW  Elec       q    Type
REMARK                         _______ _______ _______ _____ _____    ______ ____
ROOT
ATOM      1  O   UNL     1       2.858   0.825   0.000  0.00  0.00    +0.000 OA
ENDROOT
BRANCH   1   2
ATOM      2  C   UNL     1       3.572   1.238   0.000  0.00  0.00    +0.000 C 
ATOM      3  O   UNL     1       3.572   2.062   0.000  0.00  0.00    +0.000 OA
BRANCH   2   4
ATOM      4  C   UNL     1       4.287   0.825   0.000  0.00  0.00    +0.000 C 
BRANCH   4   5
ATOM      5  C   UNL     1       5.001   1.238   0.000  0.00  0.00    +0.000 C 
BRANCH   5   6
ATOM      6  C   UNL     1       5.716   0.825   0.000  0.00  0.00    +0.000 C 
BRANCH   6   7
ATOM      7  C   UNL     1       6.430   1.238   0.000  0.00  0.00    +0.000 C 
BRANCH   7   8
ATOM      8  C   UNL     1       7.145   0.825   0.000  0.00  0.00    +0.000 C 
BRANCH   8   9
ATOM      9  C   UNL     1       7.859   1.238   0.000  0.00  0.00    +0.000 C 
BRANCH   9  10
ATOM     10  C   UNL     1       8.574   0.825   0.000  0.00  0.00    +0.000 C 
ATOM     11  C   UNL     1       9.288   1.238   0.000  0.00  0.00    +0.000 C 
ATOM     12  C   UNL     1       8.574   0.000   0.000  0.00  0.00    +0.000 C 
ENDBRANCH   9  10
ENDBRANCH   8   9
ENDBRANCH   7   8
ENDBRANCH   6   7
ENDBRANCH   5   6
ENDBRANCH   4   5
ENDBRANCH   2   4
ENDBRANCH   1   2
BRANCH   1  13
ATOM     13  C   UNL     1       2.143   1.238   0.000  0.00  0.00    +0.000 C 
BRANCH  13  19
ATOM     14  C   UNL     1       0.715  -0.412   0.000  0.00  0.00    +0.000 A 
ATOM     15  C   UNL     1       0.000   0.000   0.000  0.00  0.00    +0.000 A 
ATOM     16  O   UNL     1      -0.715  -0.412   0.000  0.00  0.00    +0.000 OA
ATOM     17  C   UNL     1       0.000   0.825   0.000  0.00  0.00    +0.000 A 
ATOM     18  C   UNL     1       0.715   1.238   0.000  0.00  0.00    +0.000 A 
ATOM     19  C   UNL     1       1.429   0.825   0.000  0.00  0.00    +0.000 A 
ATOM     20  C   UNL     1       1.429   0.000   0.000  0.00  0.00    +0.000 A 
BRANCH  14  22
ATOM     21  C   UNL     1       0.000  -1.650   0.000  0.00  0.00    +0.000 C 
ATOM     22  O   UNL     1       0.715  -1.238   0.000  0.00  0.00    +0.000 OA
ENDBRANCH  14  22
ENDBRANCH  13  19
ENDBRANCH   1  13
TORSDOF 11
