REMARK  Name = 
REMARK  11 active torsions:
REMARK  status: ('A' for Active; 'I' for Inactive)
REMARK    1  A    between atoms: C_1  and  C_11
REMARK    2  A    between atoms: C_7  and  C_21
REMARK    3  A    between atoms: C_11  and  C_12
REMARK    4  A    between atoms: C_12  and  C_15
REMARK    5  A    between atoms: C_15  and  C_17
REMARK    6  A    between atoms: C_21  and  C_22
REMARK    7  A    between atoms: C_22  and  C_23
REMARK    8  A    between atoms: C_23  and  C_24
REMARK    9  A    between atoms: C_24  and  C_25
REMARK   10  A    between atoms: C_25  and  C_26
REMARK   11  A    between atoms: C_26  and  C_27
REMARK                            x       y       z     vdW  Elec       q    Type
REMARK                         _______ _______ _______ _____ _____    ______ ____
ROOT
ATOM      1  C   UNL     1      -2.096   1.301   0.000  0.00  0.00    +0.000 C 
ATOM      2  C   UNL     1      -2.096   0.476   0.000  0.00  0.00    +0.000 C 
ATOM      3  C   UNL     1      -1.383   0.063   0.000  0.00  0.00    +0.000 C 
ATOM      4  O   UNL     1      -1.383   1.713   0.000  0.00  0.00    +0.000 OA
ATOM      5  C   UNL     1      -0.670   1.301   0.000  0.00  0.00    +0.000 C 
ATOM      6  C   UNL     1      -0.666   0.475   0.000  0.00  0.00    +0.000 C 
ATOM      7  C   UNL     1       0.121   0.224   0.000  0.00  0.00    +0.000 C 
ATOM      8  C   UNL     1       0.603   0.895   0.000  0.00  0.00    +0.000 C 
ATOM      9  C   UNL     1       0.114   1.560   0.000  0.00  0.00    +0.000 C 
ATOM     10  O   UNL     1       1.428   0.899   0.000  0.00  0.00    +0.000 OA
ATOM     11  O   UNL     1      -2.921   1.301   0.000  0.00  0.00    +0.000 OA
ENDROOT
BRANCH   1  12
ATOM     12  C   UNL     1      -2.531   2.006   0.000  0.00  0.00    +0.000 C 
ATOM     13  F   UNL     1      -1.831   2.445   0.000  0.00  0.00    +0.000 F 
ATOM     14  F   UNL     1      -2.562   2.830   0.000  0.00  0.00    +0.000 F 
BRANCH  12  15
ATOM     15  C   UNL     1      -3.358   1.986   0.000  0.00  0.00    +0.000 C 
BRANCH  15  16
ATOM     16  C   UNL     1      -3.791   2.686   0.000  0.00  0.00    +0.000 C 
BRANCH  16  17
ATOM     17  C   UNL     1      -4.615   2.662   0.000  0.00  0.00    +0.000 C 
ATOM     18  C   UNL     1      -5.049   3.364   0.000  0.00  0.00    +0.000 C 
ENDBRANCH  16  17
ENDBRANCH  15  16
ENDBRANCH  12  15
ENDBRANCH   1  12
BRANCH   7  19
ATOM     19  C   UNL     1       0.525  -0.485   0.000  0.00  0.00    +0.000 C 
BRANCH  19  20
ATOM     20  C   UNL     1       1.350  -0.490   0.000  0.00  0.00    +0.000 C 
BRANCH  20  21
ATOM     21  C   UNL     1       1.758  -1.207   0.000  0.00  0.00    +0.000 C 
BRANCH  21  22
ATOM     22  C   UNL     1       2.583  -1.212   0.000  0.00  0.00    +0.000 C 
BRANCH  22  23
ATOM     23  C   UNL     1       2.991  -1.929   0.000  0.00  0.00    +0.000 C 
BRANCH  23  24
ATOM     24  C   UNL     1       3.816  -1.935   0.000  0.00  0.00    +0.000 C 
BRANCH  24  25
ATOM     25  C   UNL     1       4.224  -2.652   0.000  0.00  0.00    +0.000 C 
ATOM     26  O   UNL     1       3.807  -3.364   0.000  0.00  0.00    +0.000 OA
ATOM     27  O   UNL     1       5.049  -2.657   0.000  0.00  0.00    +0.000 OA
ENDBRANCH  24  25
ENDBRANCH  23  24
ENDBRANCH  22  23
ENDBRANCH  21  22
ENDBRANCH  20  21
ENDBRANCH  19  20
ENDBRANCH   7  19
TORSDOF 11
