REMARK  Name = 
REMARK  13 active torsions:
REMARK  status: ('A' for Active; 'I' for Inactive)
REMARK    1  A    between atoms: N_7  and  C_10
REMARK    2  A    between atoms: C_13  and  C_16
REMARK    3  A    between atoms: C_16  and  N_17
REMARK    4  A    between atoms: N_17  and  C_18
REMARK    5  A    between atoms: C_18  and  C_19
REMARK    6  A    between atoms: C_18  and  C_26
REMARK    7  A    between atoms: C_19  and  C_20
REMARK    8  A    between atoms: N_31  and  C_34
REMARK    9  A    between atoms: C_34  and  C_35
REMARK   10  A    between atoms: C_38  and  C_41
REMARK   11  A    between atoms: C_43  and  C_45
REMARK   12  A    between atoms: C_46  and  C_47
REMARK   13  A    between atoms: C_50  and  C_53
REMARK                            x       y       z     vdW  Elec       q    Type
REMARK                         _______ _______ _______ _____ _____    ______ ____
ROOT
ATOM      1  N   UNL     1      -0.715 -10.312   0.000  0.00  0.00    +0.000 N 
ATOM      2  C   UNL     1       0.000  -9.900   0.000  0.00  0.00    +0.000 C 
ATOM      3  O   UNL     1       0.000  -9.075   0.000  0.00  0.00    +0.000 OA
ENDROOT
BRANCH   2   4
ATOM      4  C   UNL     1       0.715 -10.312   0.000  0.00  0.00    +0.000 C 
ATOM      5  C   UNL     1       1.429  -9.900   0.000  0.00  0.00    +0.000 C 
BRANCH   5   6
ATOM      6  C   UNL     1       2.143 -10.312   0.000  0.00  0.00    +0.000 A 
ATOM      7  C   UNL     1       2.858  -9.900   0.000  0.00  0.00    +0.000 A 
ATOM      8  C   UNL     1       3.572 -10.312   0.000  0.00  0.00    +0.000 A 
ATOM      9  C   UNL     1       3.572 -11.137   0.000  0.00  0.00    +0.000 A 
ATOM     10  C   UNL     1       2.858 -11.550   0.000  0.00  0.00    +0.000 A 
ATOM     11  C   UNL     1       2.143 -11.137   0.000  0.00  0.00    +0.000 A 
BRANCH   9  12
ATOM     12  C   UNL     1       4.287 -11.550   0.000  0.00  0.00    +0.000 C 
ATOM     13  C   UNL     1       5.001 -11.963   0.000  0.00  0.00    +0.000 C 
ATOM     14  C   UNL     1       3.874 -12.264   0.000  0.00  0.00    +0.000 C 
ATOM     15  C   UNL     1       4.699 -10.835   0.000  0.00  0.00    +0.000 C 
ENDBRANCH   9  12
ENDBRANCH   5   6
ENDBRANCH   2   4
BRANCH   1  16
ATOM     16  C   UNL     1      -1.429  -9.900   0.000  0.00  0.00    +0.000 C 
BRANCH  16  20
ATOM     17  C   UNL     1      -1.429  -7.425   0.000  0.00  0.00    +0.000 A 
ATOM     18  C   UNL     1      -0.715  -7.838   0.000  0.00  0.00    +0.000 A 
ATOM     19  C   UNL     1      -0.715  -8.662   0.000  0.00  0.00    +0.000 A 
ATOM     20  C   UNL     1      -1.429  -9.075   0.000  0.00  0.00    +0.000 A 
ATOM     21  C   UNL     1      -2.143  -8.662   0.000  0.00  0.00    +0.000 A 
ATOM     22  C   UNL     1      -2.143  -7.838   0.000  0.00  0.00    +0.000 A 
BRANCH  17  29
ATOM     23  C   UNL     1      -2.143  -3.712   0.000  0.00  0.00    +0.000 C 
ATOM     24  C   UNL     1      -1.429  -4.125   0.000  0.00  0.00    +0.000 C 
ATOM     25  O   UNL     1      -0.715  -3.712   0.000  0.00  0.00    +0.000 OA
ATOM     26  N   UNL     1      -1.429  -4.950   0.000  0.00  0.00    +0.000 N 
ATOM     27  C   UNL     1      -0.715  -5.362   0.000  0.00  0.00    +0.000 C 
ATOM     28  C   UNL     1      -0.715  -6.188   0.000  0.00  0.00    +0.000 C 
ATOM     29  N   UNL     1      -1.429  -6.600   0.000  0.00  0.00    +0.000 N 
ATOM     30  C   UNL     1      -2.143  -6.188   0.000  0.00  0.00    +0.000 C 
ATOM     31  C   UNL     1      -2.143  -5.362   0.000  0.00  0.00    +0.000 C 
ENDBRANCH  17  29
ENDBRANCH  16  20
ENDBRANCH   1  16
BRANCH   1  32
ATOM     32  C   UNL     1      -0.715 -11.137   0.000  0.00  0.00    +0.000 C 
BRANCH  32  33
ATOM     33  C   UNL     1       0.000 -11.550   0.000  0.00  0.00    +0.000 C 
ATOM     34  O   UNL     1       0.715 -11.137   0.000  0.00  0.00    +0.000 OA
ATOM     35  N   UNL     1       0.000 -12.375   0.000  0.00  0.00    +0.000 N 
ATOM     36  C   UNL     1       0.715 -12.787   0.000  0.00  0.00    +0.000 C 
ATOM     37  C   UNL     1       0.715 -13.613   0.000  0.00  0.00    +0.000 C 
ATOM     38  N   UNL     1       0.000 -14.025   0.000  0.00  0.00    +0.000 NA
ATOM     39  C   UNL     1      -0.715 -13.613   0.000  0.00  0.00    +0.000 C 
ATOM     40  C   UNL     1      -0.715 -12.787   0.000  0.00  0.00    +0.000 C 
BRANCH  38  41
ATOM     41  C   UNL     1       0.000 -14.850   0.000  0.00  0.00    +0.000 C 
BRANCH  41  42
ATOM     42  C   UNL     1      -0.715 -15.262   0.000  0.00  0.00    +0.000 A 
ATOM     43  C   UNL     1      -0.715 -16.087   0.000  0.00  0.00    +0.000 A 
ATOM     44  C   UNL     1      -1.429 -16.500   0.000  0.00  0.00    +0.000 A 
ATOM     45  C   UNL     1      -2.143 -16.087   0.000  0.00  0.00    +0.000 A 
ATOM     46  C   UNL     1      -2.143 -15.262   0.000  0.00  0.00    +0.000 A 
ATOM     47  C   UNL     1      -1.429 -14.850   0.000  0.00  0.00    +0.000 A 
BRANCH  45  48
ATOM     48  C   UNL     1      -2.858 -16.500   0.000  0.00  0.00    +0.000 C 
ATOM     49  N   UNL     1      -3.572 -16.913   0.000  0.00  0.00    +0.000 NA
ENDBRANCH  45  48
ENDBRANCH  41  42
ENDBRANCH  38  41
ENDBRANCH  32  33
BRANCH  32  50
ATOM     50  C   UNL     1      -1.429 -11.550   0.000  0.00  0.00    +0.000 C 
BRANCH  50  51
ATOM     51  C   UNL     1      -2.143 -11.137   0.000  0.00  0.00    +0.000 A 
ATOM     52  C   UNL     1      -2.858 -11.550   0.000  0.00  0.00    +0.000 A 
ATOM     53  C   UNL     1      -3.572 -11.137   0.000  0.00  0.00    +0.000 A 
ATOM     54  C   UNL     1      -3.572 -10.312   0.000  0.00  0.00    +0.000 A 
ATOM     55  C   UNL     1      -2.858  -9.900   0.000  0.00  0.00    +0.000 A 
ATOM     56  C   UNL     1      -2.143 -10.312   0.000  0.00  0.00    +0.000 A 
ENDBRANCH  50  51
ENDBRANCH  32  50
ENDBRANCH   1  32
TORSDOF 13
