REMARK  Name = 
REMARK  7 active torsions:
REMARK  status: ('A' for Active; 'I' for Inactive)
REMARK    1  A    between atoms: C_2  and  S_10
REMARK    2  A    between atoms: C_5  and  C_7
REMARK    3  A    between atoms: C_5  and  N_49
REMARK    4  A    between atoms: C_6  and  C_61
REMARK    5  A    between atoms: N_8  and  S_10
REMARK    6  A    between atoms: C_17  and  C_46
REMARK    7  A    between atoms: C_51  and  C_56
REMARK                            x       y       z     vdW  Elec       q    Type
REMARK                         _______ _______ _______ _____ _____    ______ ____
ROOT
ATOM      1  C   UNL     1       0.355   0.236   0.000  0.00  0.00    +0.000 C 
ATOM      2  C   UNL     1       1.124  -0.062   0.000  0.00  0.00    +0.000 C 
ATOM      3  N   UNL     1       1.078  -0.885   0.000  0.00  0.00    +0.000 N 
ATOM      4  C   UNL     1       0.281  -1.097   0.000  0.00  0.00    +0.000 C 
ATOM      5  C   UNL     1      -0.166  -0.404   0.000  0.00  0.00    +0.000 C 
ATOM      6  C   UNL     1       3.926   2.277   0.000  0.00  0.00    +0.000 C 
ATOM      7  C   UNL     1       4.685   2.610   0.000  0.00  0.00    +0.000 C 
ATOM      8  C   UNL     1       5.236   1.991   0.000  0.00  0.00    +0.000 C 
ATOM      9  C   UNL     1       4.817   1.275   0.000  0.00  0.00    +0.000 C 
ATOM     10  C   UNL     1       4.007   1.453   0.000  0.00  0.00    +0.000 C 
ATOM     11  O   UNL     1       3.214   2.694   0.000  0.00  0.00    +0.000 OA
ATOM     12  O   UNL     1       3.391   0.904   0.000  0.00  0.00    +0.000 OA
ATOM     13  C   UNL     1       2.497   2.286   0.000  0.00  0.00    +0.000 C 
ATOM     14  C   UNL     1       1.785   2.703   0.000  0.00  0.00    +0.000 C 
ATOM     15  C   UNL     1       1.068   2.294   0.000  0.00  0.00    +0.000 C 
ATOM     16  C   UNL     1       0.356   2.711   0.000  0.00  0.00    +0.000 C 
ATOM     17  C   UNL     1      -0.361   2.303   0.000  0.00  0.00    +0.000 A 
ATOM     18  F   UNL     1       0.747   3.437   0.000  0.00  0.00    +0.000 F 
ATOM     19  F   UNL     1      -0.027   3.442   0.000  0.00  0.00    +0.000 F 
ATOM     20  C   UNL     1      -0.361   1.475   0.000  0.00  0.00    +0.000 A 
ATOM     21  N   UNL     1      -1.074   1.066   0.000  0.00  0.00    +0.000 NA
ATOM     22  N   UNL     1      -1.069   2.718   0.000  0.00  0.00    +0.000 NA
ATOM     23  C   UNL     1      -1.786   2.306   0.000  0.00  0.00    +0.000 A 
ATOM     24  C   UNL     1      -1.786   1.476   0.000  0.00  0.00    +0.000 A 
ATOM     25  C   UNL     1      -2.500   1.063   0.000  0.00  0.00    +0.000 A 
ATOM     26  C   UNL     1      -3.219   1.476   0.000  0.00  0.00    +0.000 A 
ATOM     27  C   UNL     1      -3.219   2.306   0.000  0.00  0.00    +0.000 A 
ATOM     28  C   UNL     1      -2.500   2.723   0.000  0.00  0.00    +0.000 A 
ATOM     29  O   UNL     1       0.352   1.061   0.000  0.00  0.00    +0.000 OA
ATOM     30  C   UNL     1       1.718  -1.407   0.000  0.00  0.00    +0.000 C 
ATOM     31  C   UNL     1       2.489  -1.113   0.000  0.00  0.00    +0.000 C 
ATOM     32  O   UNL     1       1.587  -2.221   0.000  0.00  0.00    +0.000 OA
ATOM     33  N   UNL     1       2.620  -0.299   0.000  0.00  0.00    +0.000 NA
ATOM     34  C   UNL     1       3.391  -0.005   0.000  0.00  0.00    +0.000 C 
ATOM     35  O   UNL     1       4.071  -0.473   0.000  0.00  0.00    +0.000 OA
ENDROOT
BRANCH  31  36
ATOM     36  C   UNL     1       3.038  -1.729   0.000  0.00  0.00    +0.000 C 
ATOM     37  C   UNL     1       3.588  -2.344   0.000  0.00  0.00    +0.000 C 
ATOM     38  C   UNL     1       3.793  -1.396   0.000  0.00  0.00    +0.000 C 
ATOM     39  C   UNL     1       2.478  -2.351   0.000  0.00  0.00    +0.000 C 
ENDBRANCH  31  36
BRANCH   4  40
ATOM     40  C   UNL     1      -0.471  -1.423   0.000  0.00  0.00    +0.000 C 
ATOM     41  O   UNL     1      -0.565  -2.243   0.000  0.00  0.00    +0.000 OA
ATOM     42  N   UNL     1      -1.134  -0.932   0.000  0.00  0.00    +0.000 NA
BRANCH  42  44
ATOM     43  C   UNL     1      -2.381  -1.919   0.000  0.00  0.00    +0.000 C 
ATOM     44  C   UNL     1      -1.891  -1.256   0.000  0.00  0.00    +0.000 C 
ATOM     45  C   UNL     1      -1.562  -2.013   0.000  0.00  0.00    +0.000 C 
BRANCH  44  46
ATOM     46  C   UNL     1      -2.555  -0.761   0.000  0.00  0.00    +0.000 C 
ATOM     47  N   UNL     1      -3.312  -1.088   0.000  0.00  0.00    +0.000 NA
ATOM     48  O   UNL     1      -2.458   0.058   0.000  0.00  0.00    +0.000 OA
BRANCH  47  49
ATOM     49  S   UNL     1      -3.974  -0.595   0.000  0.00  0.00    +0.000 S 
ATOM     50  O   UNL     1      -4.467  -1.256   0.000  0.00  0.00    +0.000 OA
ATOM     51  O   UNL     1      -3.481   0.067   0.000  0.00  0.00    +0.000 OA
BRANCH  49  53
ATOM     52  C   UNL     1      -5.088   0.588   0.000  0.00  0.00    +0.000 C 
ATOM     53  C   UNL     1      -4.635  -0.102   0.000  0.00  0.00    +0.000 C 
ATOM     54  C   UNL     1      -4.265   0.635   0.000  0.00  0.00    +0.000 C 
ATOM     55  C   UNL     1      -5.236  -0.667   0.000  0.00  0.00    +0.000 C 
ENDBRANCH  49  53
ENDBRANCH  47  49
ENDBRANCH  44  46
BRANCH  45  56
ATOM     56  C   UNL     1      -1.149  -2.727   0.000  0.00  0.00    +0.000 C 
ATOM     57  F   UNL     1      -1.562  -3.442   0.000  0.00  0.00    +0.000 F 
ATOM     58  F   UNL     1      -0.352  -2.941   0.000  0.00  0.00    +0.000 F 
ENDBRANCH  45  56
ENDBRANCH  42  44
ENDBRANCH   4  40
TORSDOF 7
