REMARK  Name = 
REMARK  0 active torsions:
REMARK  status: ('A' for Active; 'I' for Inactive)
REMARK                            x       y       z     vdW  Elec       q    Type
REMARK                         _______ _______ _______ _____ _____    ______ ____
ROOT
ATOM      1  O   UNL     1       2.095   0.000   0.000  0.00  0.00    +0.000 OA
ATOM      2  C   UNL     1       1.270   0.000   0.000  0.00  0.00    +0.000 C 
ATOM      3  N   UNL     1       0.785   0.667   0.000  0.00  0.00    +0.000 NA
ATOM      4  N   UNL     1      -0.785   0.667   0.000  0.00  0.00    +0.000 NA
ATOM      5  C   UNL     1      -1.270   0.000   0.000  0.00  0.00    +0.000 C 
ATOM      6  O   UNL     1      -2.095   0.000   0.000  0.00  0.00    +0.000 OA
ATOM      7  N   UNL     1      -0.785  -0.667   0.000  0.00  0.00    +0.000 NA
ATOM      8  N   UNL     1       0.785  -0.667   0.000  0.00  0.00    +0.000 NA
ATOM      9  C   UNL     1       0.000   0.412   0.000  0.00  0.00    +0.000 C 
ATOM     10  C   UNL     1       0.000  -0.412   0.000  0.00  0.00    +0.000 C 
ENDROOT
TORSDOF 0
