REMARK  Name = 
REMARK  6 active torsions:
REMARK  status: ('A' for Active; 'I' for Inactive)
REMARK    1  A    between atoms: C_3  and  N_9
REMARK    2  A    between atoms: N_9  and  C_10
REMARK    3  A    between atoms: C_11  and  C_19
REMARK    4  A    between atoms: N_21  and  O_22
REMARK    5  A    between atoms: O_22  and  C_23
REMARK    6  A    between atoms: C_23  and  C_24
REMARK                            x       y       z     vdW  Elec       q    Type
REMARK                         _______ _______ _______ _____ _____    ______ ____
ROOT
ATOM      1  C   UNL     1      -1.429   0.825   0.000  0.00  0.00    +0.000 A 
ATOM      2  C   UNL     1      -1.429   0.000   0.000  0.00  0.00    +0.000 A 
ATOM      3  C   UNL     1      -2.143  -0.412   0.000  0.00  0.00    +0.000 A 
ATOM      4  C   UNL     1      -2.858   0.000   0.000  0.00  0.00    +0.000 A 
ATOM      5  C   UNL     1      -2.858   0.825   0.000  0.00  0.00    +0.000 A 
ATOM      6  N   UNL     1      -2.143   1.238   0.000  0.00  0.00    +0.000 N 
ATOM      7  C   UNL     1      -2.315   2.045   0.000  0.00  0.00    +0.000 A 
ATOM      8  N   UNL     1      -3.135   2.131   0.000  0.00  0.00    +0.000 NA
ATOM      9  C   UNL     1      -3.471   1.377   0.000  0.00  0.00    +0.000 A 
ENDROOT
BRANCH   2  10
ATOM     10  C   UNL     1      -0.715  -0.412   0.000  0.00  0.00    +0.000 C 
ATOM     11  O   UNL     1      -0.715  -1.238   0.000  0.00  0.00    +0.000 OA
ATOM     12  N   UNL     1       0.000   0.000   0.000  0.00  0.00    +0.000 NA
BRANCH  12  13
ATOM     13  O   UNL     1       0.715  -0.412   0.000  0.00  0.00    +0.000 OA
BRANCH  13  14
ATOM     14  C   UNL     1       1.429   0.000   0.000  0.00  0.00    +0.000 C 
BRANCH  14  15
ATOM     15  C   UNL     1       2.143  -0.412   0.000  0.00  0.00    +0.000 C 
ATOM     16  O   UNL     1       2.858   0.000   0.000  0.00  0.00    +0.000 OA
ENDBRANCH  14  15
ENDBRANCH  13  14
ENDBRANCH  12  13
ENDBRANCH   2  10
BRANCH   1  17
ATOM     17  N   UNL     1      -0.715   1.238   0.000  0.00  0.00    +0.000 NA
BRANCH  17  20
ATOM     18  C   UNL     1      -1.429   3.300   0.000  0.00  0.00    +0.000 A 
ATOM     19  C   UNL     1      -1.429   2.475   0.000  0.00  0.00    +0.000 A 
ATOM     20  C   UNL     1      -0.715   2.062   0.000  0.00  0.00    +0.000 A 
ATOM     21  C   UNL     1       0.000   2.475   0.000  0.00  0.00    +0.000 A 
ATOM     22  C   UNL     1       0.000   3.300   0.000  0.00  0.00    +0.000 A 
ATOM     23  C   UNL     1      -0.715   3.712   0.000  0.00  0.00    +0.000 A 
ATOM     24  I   UNL     1      -0.715   4.537   0.000  0.00  0.00    +0.000 I 
ATOM     25  F   UNL     1       0.715   2.062   0.000  0.00  0.00    +0.000 F 
ENDBRANCH  17  20
ENDBRANCH   1  17
TORSDOF 6
