REMARK  Name = 
REMARK  19 active torsions:
REMARK  status: ('A' for Active; 'I' for Inactive)
REMARK    1  A    between atoms: C_3  and  N_36
REMARK    2  A    between atoms: C_6  and  C_7
REMARK    3  A    between atoms: C_7  and  C_8
REMARK    4  A    between atoms: N_10  and  C_32
REMARK    5  A    between atoms: N_13  and  C_28
REMARK    6  A    between atoms: N_16  and  C_24
REMARK    7  A    between atoms: N_19  and  C_20
REMARK    8  A    between atoms: C_20  and  C_21
REMARK    9  A    between atoms: C_24  and  C_25
REMARK   10  A    between atoms: C_28  and  C_29
REMARK   11  A    between atoms: C_32  and  C_33
REMARK   12  A    between atoms: N_36  and  C_37
REMARK   13  A    between atoms: C_37  and  N_39
REMARK   14  A    between atoms: N_39  and  C_40
REMARK   15  A    between atoms: C_40  and  C_41
REMARK   16  A    between atoms: C_41  and  C_42
REMARK   17  A    between atoms: C_42  and  C_43
REMARK   18  A    between atoms: C_43  and  C_44
REMARK   19  A    between atoms: C_44  and  C_45
REMARK                            x       y       z     vdW  Elec       q    Type
REMARK                         _______ _______ _______ _____ _____    ______ ____
ROOT
ATOM      1  C   UNK     1       2.666   1.760   0.000  0.00  0.00    +0.000 C 
ATOM      2  C   UNK     1       3.381   2.173   0.000  0.00  0.00    +0.000 C 
ATOM      3  N   UNK     1       3.381   2.998   0.000  0.00  0.00    +0.000 NA
ATOM      4  C   UNK     1       3.793   3.712   0.000  0.00  0.00    +0.000 C 
ATOM      5  C   UNK     1       3.381   4.427   0.000  0.00  0.00    +0.000 C 
ATOM      6  N   UNK     1       2.556   4.427   0.000  0.00  0.00    +0.000 NA
ATOM      7  C   UNK     1       1.841   4.840   0.000  0.00  0.00    +0.000 C 
ATOM      8  C   UNK     1       1.127   4.427   0.000  0.00  0.00    +0.000 C 
ATOM      9  N   UNK     1       1.127   3.602   0.000  0.00  0.00    +0.000 NA
ATOM     10  C   UNK     1       0.715   2.888   0.000  0.00  0.00    +0.000 C 
ATOM     11  C   UNK     1       1.127   2.173   0.000  0.00  0.00    +0.000 C 
ATOM     12  N   UNK     1       1.952   2.173   0.000  0.00  0.00    +0.000 NA
ENDROOT
BRANCH   3  13
ATOM     13  C   UNK     1       4.178   2.784   0.000  0.00  0.00    +0.000 C 
BRANCH  13  14
ATOM     14  C   UNK     1       4.761   3.368   0.000  0.00  0.00    +0.000 C 
ATOM     15  O   UNK     1       5.558   3.154   0.000  0.00  0.00    +0.000 OA
ATOM     16  O   UNK     1       4.548   4.165   0.000  0.00  0.00    +0.000 OA
ENDBRANCH  13  14
ENDBRANCH   3  13
BRANCH   1  17
ATOM     17  C   UNK     1       2.666   0.935   0.000  0.00  0.00    +0.000 C 
BRANCH  17  23
ATOM     18  C   UNK     1       4.095   0.935   0.000  0.00  0.00    +0.000 A 
ATOM     19  C   UNK     1       4.810   0.523   0.000  0.00  0.00    +0.000 A 
ATOM     20  C   UNK     1       4.810  -0.302   0.000  0.00  0.00    +0.000 A 
ATOM     21  C   UNK     1       4.095  -0.715   0.000  0.00  0.00    +0.000 A 
ATOM     22  C   UNK     1       3.381  -0.302   0.000  0.00  0.00    +0.000 A 
ATOM     23  C   UNK     1       3.381   0.523   0.000  0.00  0.00    +0.000 A 
BRANCH  20  24
ATOM     24  N   UNK     1       5.524  -0.715   0.000  0.00  0.00    +0.000 NA
BRANCH  24  25
ATOM     25  C   UNK     1       6.239  -0.302   0.000  0.00  0.00    +0.000 C 
ATOM     26  S   UNK     1       6.239   0.523   0.000  0.00  0.00    +0.000 S 
BRANCH  25  27
ATOM     27  N   UNK     1       6.953  -0.715   0.000  0.00  0.00    +0.000 NA
BRANCH  27  28
ATOM     28  C   UNK     1       7.668  -0.302   0.000  0.00  0.00    +0.000 C 
BRANCH  28  29
ATOM     29  C   UNK     1       8.382  -0.715   0.000  0.00  0.00    +0.000 C 
BRANCH  29  30
ATOM     30  C   UNK     1       9.097  -0.302   0.000  0.00  0.00    +0.000 C 
BRANCH  30  31
ATOM     31  C   UNK     1       9.811  -0.715   0.000  0.00  0.00    +0.000 C 
BRANCH  31  32
ATOM     32  C   UNK     1      10.526  -0.302   0.000  0.00  0.00    +0.000 C 
ATOM     33  N   UNK     1      10.526   0.523   0.000  0.00  0.00    +0.000 NA
BRANCH  32  34
ATOM     34  C   UNK     1      11.240  -0.715   0.000  0.00  0.00    +0.000 C 
ATOM     35  O   UNK     1      11.955  -0.302   0.000  0.00  0.00    +0.000 OA
ATOM     36  O   UNK     1      11.240  -1.540   0.000  0.00  0.00    +0.000 OA
ENDBRANCH  32  34
ENDBRANCH  31  32
ENDBRANCH  30  31
ENDBRANCH  29  30
ENDBRANCH  28  29
ENDBRANCH  27  28
ENDBRANCH  25  27
ENDBRANCH  24  25
ENDBRANCH  20  24
ENDBRANCH  17  23
ENDBRANCH   1  17
BRANCH  12  37
ATOM     37  C   UNK     1       1.738   1.376   0.000  0.00  0.00    +0.000 C 
BRANCH  37  38
ATOM     38  C   UNK     1       0.942   1.163   0.000  0.00  0.00    +0.000 C 
ATOM     39  O   UNK     1       0.728   0.366   0.000  0.00  0.00    +0.000 OA
ATOM     40  O   UNK     1       0.358   1.746   0.000  0.00  0.00    +0.000 OA
ENDBRANCH  37  38
ENDBRANCH  12  37
BRANCH   6  41
ATOM     41  C   UNK     1       2.769   5.224   0.000  0.00  0.00    +0.000 C 
BRANCH  41  42
ATOM     42  C   UNK     1       2.186   5.807   0.000  0.00  0.00    +0.000 C 
ATOM     43  O   UNK     1       2.400   6.604   0.000  0.00  0.00    +0.000 OA
ATOM     44  O   UNK     1       1.389   5.594   0.000  0.00  0.00    +0.000 OA
ENDBRANCH  41  42
ENDBRANCH   6  41
BRANCH   9  45
ATOM     45  C   UNK     1       0.330   3.816   0.000  0.00  0.00    +0.000 C 
BRANCH  45  46
ATOM     46  C   UNK     1       0.117   4.612   0.000  0.00  0.00    +0.000 C 
ATOM     47  O   UNK     1      -0.680   4.826   0.000  0.00  0.00    +0.000 OA
ATOM     48  O   UNK     1       0.700   5.196   0.000  0.00  0.00    +0.000 OA
ENDBRANCH  45  46
ENDBRANCH   9  45
TORSDOF 19
