REMARK  Name = 
REMARK  6 active torsions:
REMARK  status: ('A' for Active; 'I' for Inactive)
REMARK    1  A    between atoms: C_4  and  C_14
REMARK    2  A    between atoms: C_5  and  C_14
REMARK    3  A    between atoms: C_10  and  C_12
REMARK    4  A    between atoms: C_11  and  C_13
REMARK    5  A    between atoms: C_13  and  O_18
REMARK    6  A    between atoms: C_14  and  O_18
REMARK                            x       y       z     vdW  Elec       q    Type
REMARK                         _______ _______ _______ _____ _____    ______ ____
ROOT
ATOM      1  C   UNL     1       0.715  -0.412   0.000  0.00  0.00    +0.000 A 
ATOM      2  C   UNL     1       1.429   0.000   0.000  0.00  0.00    +0.000 A 
ATOM      3  C   UNL     1       0.000   0.000   0.000  0.00  0.00    +0.000 A 
ATOM      4  C   UNL     1       1.429   0.825   0.000  0.00  0.00    +0.000 A 
ATOM      5  C   UNL     1       0.000   0.825   0.000  0.00  0.00    +0.000 A 
ATOM      6  C   UNL     1       0.715   1.238   0.000  0.00  0.00    +0.000 A 
ENDROOT
BRANCH   5   7
ATOM      7  C   UNL     1      -0.715   1.238   0.000  0.00  0.00    +0.000 C 
ATOM      8  O   UNL     1      -0.715   2.062   0.000  0.00  0.00    +0.000 OA
ATOM      9  O   UNL     1      -1.429   0.825   0.000  0.00  0.00    +0.000 OA
ENDBRANCH   5   7
BRANCH   6  10
ATOM     10  C   UNL     1       0.715   2.062   0.000  0.00  0.00    +0.000 C 
ATOM     11  O   UNL     1       1.429   2.475   0.000  0.00  0.00    +0.000 OA
BRANCH  10  12
ATOM     12  O   UNL     1       0.000   2.475   0.000  0.00  0.00    +0.000 OA
BRANCH  12  14
ATOM     13  C   UNL     1      -0.825   3.300   0.000  0.00  0.00    +0.000 C 
ATOM     14  C   UNL     1       0.000   3.300   0.000  0.00  0.00    +0.000 C 
BRANCH  14  16
ATOM     15  C   UNL     1       0.000   4.950   0.000  0.00  0.00    +0.000 C 
ATOM     16  C   UNL     1       0.000   4.125   0.000  0.00  0.00    +0.000 C 
ENDBRANCH  14  16
BRANCH  14  18
ATOM     17  C   UNL     1       1.238   4.014   0.000  0.00  0.00    +0.000 C 
ATOM     18  C   UNL     1       0.825   3.300   0.000  0.00  0.00    +0.000 C 
ENDBRANCH  14  18
ENDBRANCH  12  14
ENDBRANCH  10  12
ENDBRANCH   6  10
TORSDOF 6
