REMARK  Name = 
REMARK  3 active torsions:
REMARK  status: ('A' for Active; 'I' for Inactive)
REMARK    1  A    between atoms: CG_1  and  CB_15
REMARK    2  A    between atoms: C_11  and  CA_13
REMARK    3  A    between atoms: CA_13  and  CB_15
REMARK                            x       y       z     vdW  Elec       q    Type
REMARK                         _______ _______ _______ _____ _____    ______ ____
ROOT
ATOM      1  CG  TRP A   1      -0.245  -0.150   0.000  0.00  0.00    +0.000 A 
ATOM      2  CD1 TRP A   1      -0.331  -0.970   0.000  0.00  0.00    +0.000 A 
ATOM      3  NE1 TRP A   1      -1.138  -1.142   0.000  0.00  0.00    +0.000 NA
ATOM      4  CE2 TRP A   1      -1.551  -0.427   0.000  0.00  0.00    +0.000 A 
ATOM      5  CD2 TRP A   1      -0.999   0.186   0.000  0.00  0.00    +0.000 A 
ATOM      6  CE3 TRP A   1      -1.254   0.970   0.000  0.00  0.00    +0.000 A 
ATOM      7  CZ2 TRP A   1      -2.358  -0.256   0.000  0.00  0.00    +0.000 A 
ATOM      8  CH2 TRP A   1      -2.613   0.529   0.000  0.00  0.00    +0.000 A 
ATOM      9  CZ3 TRP A   1      -2.061   1.142   0.000  0.00  0.00    +0.000 A 
ENDROOT
BRANCH   1  10
ATOM     10  CB  TRP A   1       0.469   0.263   0.000  0.00  0.00    +0.000 C 
BRANCH  10  11
ATOM     11  CA  TRP A   1       1.184  -0.150   0.000  0.00  0.00    +0.000 C 
ATOM     12  N   TRP A   1       1.184  -0.975   0.000  0.00  0.00    +0.000 NA
BRANCH  11  14
ATOM     13  O   TRP A   1       1.898   1.088   0.000  0.00  0.00    +0.000 OA
ATOM     14  C   TRP A   1       1.898   0.263   0.000  0.00  0.00    +0.000 C 
ATOM     15  OXT TRP A   1       2.613  -0.150   0.000  0.00  0.00    +0.000 OA
ENDBRANCH  11  14
ENDBRANCH  10  11
ENDBRANCH   1  10
TORSDOF 3
