REMARK  Name = 
REMARK  11 active torsions:
REMARK  status: ('A' for Active; 'I' for Inactive)
REMARK    1  A    between atoms: C_2  and  C_3
REMARK    2  A    between atoms: C_2  and  C_16
REMARK    3  A    between atoms: C_5  and  C_8
REMARK    4  A    between atoms: C_11  and  C_14
REMARK    5  A    between atoms: C_16  and  C_17
REMARK    6  A    between atoms: C_16  and  O_23
REMARK    7  A    between atoms: C_16  and  C_30
REMARK    8  A    between atoms: C_17  and  N_18
REMARK    9  A    between atoms: O_23  and  C_24
REMARK   10  A    between atoms: C_24  and  O_25
REMARK   11  A    between atoms: O_25  and  P_26
REMARK                            x       y       z     vdW  Elec       q    Type
REMARK                         _______ _______ _______ _____ _____    ______ ____
ROOT
ATOM      1  C   UNL     1       1.679  -0.830   0.000  0.00  0.00    +0.000 C 
ENDROOT
BRANCH   1   2
ATOM      2  C   UNL     1       2.001   0.094   0.000  0.00  0.00    +0.000 A 
ATOM      3  C   UNL     1       1.588   0.808   0.000  0.00  0.00    +0.000 A 
ATOM      4  C   UNL     1       2.001   1.523   0.000  0.00  0.00    +0.000 A 
ATOM      5  C   UNL     1       2.826   1.523   0.000  0.00  0.00    +0.000 A 
ATOM      6  F   UNL     1       3.268   2.259   0.000  0.00  0.00    +0.000 F 
ATOM      7  C   UNL     1       3.238   0.808   0.000  0.00  0.00    +0.000 A 
ATOM      8  C   UNL     1       2.826   0.094   0.000  0.00  0.00    +0.000 A 
ATOM      9  F   UNL     1       3.670  -0.232   0.000  0.00  0.00    +0.000 F 
ENDBRANCH   1   2
BRANCH   1  11
ATOM     10  C   UNL     1       3.354  -1.024   0.000  0.00  0.00    +0.000 C 
ATOM     11  C   UNL     1       2.520  -1.095   0.000  0.00  0.00    +0.000 C 
BRANCH  11  12
ATOM     12  C   UNL     1       2.303  -1.858   0.000  0.00  0.00    +0.000 A 
ATOM     13  N   UNL     1       1.635  -2.343   0.000  0.00  0.00    +0.000 NA
ATOM     14  C   UNL     1       1.890  -3.127   0.000  0.00  0.00    +0.000 A 
ATOM     15  C   UNL     1       2.715  -3.127   0.000  0.00  0.00    +0.000 A 
ATOM     16  S   UNL     1       2.970  -2.343   0.000  0.00  0.00    +0.000 S 
BRANCH  14  17
ATOM     17  C   UNL     1       1.405  -3.795   0.000  0.00  0.00    +0.000 A 
ATOM     18  C   UNL     1       1.741  -4.549   0.000  0.00  0.00    +0.000 A 
ATOM     19  C   UNL     1       1.256  -5.216   0.000  0.00  0.00    +0.000 A 
ATOM     20  C   UNL     1       0.436  -5.130   0.000  0.00  0.00    +0.000 A 
ATOM     21  C   UNL     1       0.100  -4.376   0.000  0.00  0.00    +0.000 A 
ATOM     22  C   UNL     1       0.585  -3.709   0.000  0.00  0.00    +0.000 A 
BRANCH  20  23
ATOM     23  C   UNL     1      -0.049  -5.797   0.000  0.00  0.00    +0.000 C 
ATOM     24  N   UNL     1      -0.534  -6.465   0.000  0.00  0.00    +0.000 NA
ENDBRANCH  20  23
ENDBRANCH  14  17
ENDBRANCH  11  12
ENDBRANCH   1  11
BRANCH   1  25
ATOM     25  C   UNL     1       0.912  -0.739   0.000  0.00  0.00    +0.000 C 
BRANCH  25  26
ATOM     26  N   UNL     1       0.160  -0.620   0.000  0.00  0.00    +0.000 N 
ATOM     27  C   UNL     1       0.712  -0.007   0.000  0.00  0.00    +0.000 A 
ATOM     28  N   UNL     1       0.299   0.707   0.000  0.00  0.00    +0.000 NA
ATOM     29  C   UNL     1      -0.508   0.536   0.000  0.00  0.00    +0.000 A 
ATOM     30  N   UNL     1      -0.594  -0.285   0.000  0.00  0.00    +0.000 NA
ENDBRANCH  25  26
ENDBRANCH   1  25
BRANCH   1  31
ATOM     31  O   UNL     1       0.832  -1.393   0.000  0.00  0.00    +0.000 OA
BRANCH  31  32
ATOM     32  C   UNL     1       0.023  -1.861   0.000  0.00  0.00    +0.000 C 
BRANCH  32  33
ATOM     33  O   UNL     1      -0.331  -2.634   0.000  0.00  0.00    +0.000 OA
BRANCH  33  34
ATOM     34  P   UNL     1      -1.152  -2.711   0.000  0.00  0.00    +0.000 P 
ATOM     35  O   UNL     1      -1.230  -1.890   0.000  0.00  0.00    +0.000 OA
ATOM     36  O   UNL     1      -1.075  -3.533   0.000  0.00  0.00    +0.000 OA
ATOM     37  O   UNL     1      -1.974  -2.789   0.000  0.00  0.00    +0.000 OA
ENDBRANCH  33  34
ENDBRANCH  32  33
ENDBRANCH  31  32
ENDBRANCH   1  31
TORSDOF 11
