REMARK  Name = 
REMARK  4 active torsions:
REMARK  status: ('A' for Active; 'I' for Inactive)
REMARK    1  A    between atoms: C_1  and  C_2
REMARK    2  A    between atoms: C_3  and  N_6
REMARK    3  A    between atoms: C_3  and  C_15
REMARK    4  A    between atoms: N_6  and  C_14
REMARK                            x       y       z     vdW  Elec       q    Type
REMARK                         _______ _______ _______ _____ _____    ______ ____
ROOT
ATOM      1  C   UNL     1       1.509  -1.444   0.000  0.00  0.00    +0.000 A 
ATOM      2  C   UNL     1       1.509  -0.619   0.000  0.00  0.00    +0.000 A 
ATOM      3  N   UNL     1       2.293  -0.364   0.000  0.00  0.00    +0.000 NA
ATOM      4  N   UNL     1       2.293  -1.699   0.000  0.00  0.00    +0.000 NA
ATOM      5  C   UNL     1       2.778  -1.031   0.000  0.00  0.00    +0.000 A 
ATOM      6  N   UNL     1       0.794  -1.856   0.000  0.00  0.00    +0.000 NA
ATOM      7  C   UNL     1       0.080  -1.444   0.000  0.00  0.00    +0.000 A 
ATOM      8  C   UNL     1       0.794  -0.206   0.000  0.00  0.00    +0.000 A 
ATOM      9  N   UNL     1       0.080  -0.619   0.000  0.00  0.00    +0.000 NA
ENDROOT
BRANCH   8  10
ATOM     10  N   UNL     1       0.794   0.619   0.000  0.00  0.00    +0.000 NA
BRANCH  10  11
ATOM     11  C   UNL     1       0.080   1.031   0.000  0.00  0.00    +0.000 C 
BRANCH  11  14
ATOM     12  C   UNL     1      -1.349   1.031   0.000  0.00  0.00    +0.000 C 
ATOM     13  C   UNL     1      -1.349   1.856   0.000  0.00  0.00    +0.000 C 
ATOM     14  C   UNL     1      -0.635   0.619   0.000  0.00  0.00    +0.000 C 
BRANCH  12  15
ATOM     15  C   UNL     1      -2.064   0.619   0.000  0.00  0.00    +0.000 C 
ATOM     16  O   UNL     1      -2.778   1.031   0.000  0.00  0.00    +0.000 OA
ENDBRANCH  12  15
ENDBRANCH  11  14
ENDBRANCH  10  11
ENDBRANCH   8  10
TORSDOF 4
