REMARK  Name = 
REMARK  4 active torsions:
REMARK  status: ('A' for Active; 'I' for Inactive)
REMARK    1  A    between atoms: C_5  and  C_9
REMARK    2  A    between atoms: C_10  and  C_16
REMARK    3  A    between atoms: C_16  and  O_17
REMARK    4  A    between atoms: O_17  and  C_18
REMARK                            x       y       z     vdW  Elec       q    Type
REMARK                         _______ _______ _______ _____ _____    ______ ____
ROOT
ATOM      1  C   UNL     1      -1.072  -0.412   0.000  0.00  0.00    +0.000 C 
ATOM      2  C   UNL     1      -0.357  -0.825   0.000  0.00  0.00    +0.000 C 
ATOM      3  C   UNL     1      -0.357  -1.650   0.000  0.00  0.00    +0.000 C 
ATOM      4  N   UNL     1      -1.072  -2.062   0.000  0.00  0.00    +0.000 NA
ATOM      5  N   UNL     1      -1.786  -0.825   0.000  0.00  0.00    +0.000 NA
ATOM      6  C   UNL     1      -1.786  -1.650   0.000  0.00  0.00    +0.000 C 
ATOM      7  S   UNL     1      -2.501  -2.062   0.000  0.00  0.00    +0.000 S 
ATOM      8  C   UNL     1       0.357  -2.062   0.000  0.00  0.00    +0.000 C 
ENDROOT
BRANCH   1  12
ATOM      9  C   UNL     1      -0.357   1.650   0.000  0.00  0.00    +0.000 A 
ATOM     10  C   UNL     1      -0.357   0.825   0.000  0.00  0.00    +0.000 A 
ATOM     11  C   UNL     1      -1.072   2.062   0.000  0.00  0.00    +0.000 A 
ATOM     12  C   UNL     1      -1.072   0.412   0.000  0.00  0.00    +0.000 A 
ATOM     13  C   UNL     1      -1.786   1.650   0.000  0.00  0.00    +0.000 A 
ATOM     14  C   UNL     1      -1.786   0.825   0.000  0.00  0.00    +0.000 A 
ATOM     15  O   UNL     1       0.357   2.062   0.000  0.00  0.00    +0.000 OA
ENDBRANCH   1  12
BRANCH   2  17
ATOM     16  O   UNL     1       0.357   0.412   0.000  0.00  0.00    +0.000 OA
ATOM     17  C   UNL     1       0.357  -0.412   0.000  0.00  0.00    +0.000 C 
BRANCH  17  18
ATOM     18  O   UNL     1       1.072  -0.825   0.000  0.00  0.00    +0.000 OA
BRANCH  18  19
ATOM     19  C   UNL     1       1.786  -0.412   0.000  0.00  0.00    +0.000 C 
ATOM     20  C   UNL     1       2.501  -0.825   0.000  0.00  0.00    +0.000 C 
ENDBRANCH  18  19
ENDBRANCH  17  18
ENDBRANCH   2  17
TORSDOF 4
