REMARK  Name = 
REMARK  6 active torsions:
REMARK  status: ('A' for Active; 'I' for Inactive)
REMARK    1  A    between atoms: C_2  and  O_13
REMARK    2  A    between atoms: C_6  and  C_15
REMARK    3  A    between atoms: C_8  and  O_13
REMARK    4  A    between atoms: C_16  and  C_22
REMARK    5  A    between atoms: C_25  and  O_44
REMARK    6  A    between atoms: C_26  and  O_43
REMARK                            x       y       z     vdW  Elec       q    Type
REMARK                         _______ _______ _______ _____ _____    ______ ____
ROOT
ATOM      1  C   UNL     1      -0.347   0.283   0.000  0.00  0.00    +0.000 C 
ATOM      2  C   UNL     1      -1.060   0.696   0.000  0.00  0.00    +0.000 C 
ATOM      3  C   UNL     1      -1.775   0.283   0.000  0.00  0.00    +0.000 A 
ATOM      4  C   UNL     1      -1.775  -0.542   0.000  0.00  0.00    +0.000 A 
ATOM      5  C   UNL     1      -0.347  -0.542   0.000  0.00  0.00    +0.000 C 
ATOM      6  C   UNL     1      -1.060  -0.955   0.000  0.00  0.00    +0.000 C 
ATOM      7  C   UNL     1       0.438  -0.798   0.000  0.00  0.00    +0.000 C 
ATOM      8  C   UNL     1      -2.493   0.696   0.000  0.00  0.00    +0.000 A 
ATOM      9  C   UNL     1      -2.493  -0.955   0.000  0.00  0.00    +0.000 A 
ATOM     10  O   UNL     1       0.919  -0.129   0.000  0.00  0.00    +0.000 OA
ATOM     11  C   UNL     1       0.438   0.539   0.000  0.00  0.00    +0.000 C 
ATOM     12  C   UNL     1      -3.206   0.283   0.000  0.00  0.00    +0.000 A 
ATOM     13  C   UNL     1      -3.206  -0.542   0.000  0.00  0.00    +0.000 A 
ATOM     14  O   UNL     1      -3.990   0.539   0.000  0.00  0.00    +0.000 OA
ATOM     15  O   UNL     1      -3.990  -0.798   0.000  0.00  0.00    +0.000 OA
ATOM     16  C   UNL     1      -4.475  -0.129   0.000  0.00  0.00    +0.000 C 
ATOM     17  O   UNL     1       0.691  -1.582   0.000  0.00  0.00    +0.000 OA
ENDROOT
BRANCH   6  18
ATOM     18  C   UNL     1      -1.060  -1.780   0.000  0.00  0.00    +0.000 A 
ATOM     19  C   UNL     1      -1.060  -3.432   0.000  0.00  0.00    +0.000 A 
ATOM     20  C   UNL     1      -1.775  -3.019   0.000  0.00  0.00    +0.000 A 
ATOM     21  C   UNL     1      -0.347  -3.019   0.000  0.00  0.00    +0.000 A 
ATOM     22  C   UNL     1      -1.775  -2.193   0.000  0.00  0.00    +0.000 A 
ATOM     23  C   UNL     1      -0.347  -2.193   0.000  0.00  0.00    +0.000 A 
ATOM     24  O   UNL     1      -1.060  -4.255   0.000  0.00  0.00    +0.000 OA
BRANCH  21  25
ATOM     25  O   UNL     1       0.363  -3.432   0.000  0.00  0.00    +0.000 OA
ATOM     26  C   UNL     1       0.363  -4.255   0.000  0.00  0.00    +0.000 C 
ENDBRANCH  21  25
BRANCH  20  27
ATOM     27  O   UNL     1      -2.493  -3.432   0.000  0.00  0.00    +0.000 OA
ATOM     28  C   UNL     1      -2.493  -4.255   0.000  0.00  0.00    +0.000 C 
ENDBRANCH  20  27
ENDBRANCH   6  18
BRANCH   2  29
ATOM     29  O   UNL     1      -1.060   1.522   0.000  0.00  0.00    +0.000 OA
BRANCH  29  31
ATOM     30  C   UNL     1       1.079   2.760   0.000  0.00  0.00    +0.000 C 
ATOM     31  C   UNL     1      -0.347   1.935   0.000  0.00  0.00    +0.000 C 
ATOM     32  O   UNL     1       1.789   3.173   0.000  0.00  0.00    +0.000 OA
ATOM     33  C   UNL     1      -0.347   2.760   0.000  0.00  0.00    +0.000 C 
ATOM     34  C   UNL     1       0.363   3.173   0.000  0.00  0.00    +0.000 C 
ATOM     35  O   UNL     1       0.363   1.522   0.000  0.00  0.00    +0.000 OA
ATOM     36  C   UNL     1       1.081   1.935   0.000  0.00  0.00    +0.000 C 
ATOM     37  C   UNL     1       2.502   2.760   0.000  0.00  0.00    +0.000 C 
ATOM     38  O   UNL     1       2.502   1.937   0.000  0.00  0.00    +0.000 OA
ATOM     39  C   UNL     1       1.792   1.530   0.000  0.00  0.00    +0.000 C 
ATOM     40  O   UNL     1      -1.060   3.173   0.000  0.00  0.00    +0.000 OA
ATOM     41  O   UNL     1       0.363   3.999   0.000  0.00  0.00    +0.000 OA
BRANCH  37  42
ATOM     42  C   UNL     1       3.212   3.173   0.000  0.00  0.00    +0.000 A 
ATOM     43  S   UNL     1       3.996   2.925   0.000  0.00  0.00    +0.000 S 
ATOM     44  C   UNL     1       3.212   3.993   0.000  0.00  0.00    +0.000 A 
ATOM     45  C   UNL     1       4.475   3.589   0.000  0.00  0.00    +0.000 A 
ATOM     46  C   UNL     1       3.993   4.255   0.000  0.00  0.00    +0.000 A 
ENDBRANCH  37  42
ENDBRANCH  29  31
ENDBRANCH   2  29
TORSDOF 6
