REMARK  Name = 
REMARK  4 active torsions:
REMARK  status: ('A' for Active; 'I' for Inactive)
REMARK    1  A    between atoms: C_5  and  N_16
REMARK    2  A    between atoms: C_6  and  N_7
REMARK    3  A    between atoms: C_12  and  C_13
REMARK    4  A    between atoms: C_20  and  C_21
REMARK                            x       y       z     vdW  Elec       q    Type
REMARK                         _______ _______ _______ _____ _____    ______ ____
ROOT
ATOM      1  C   UNL     1       2.505  -0.424   0.000  0.00  0.00    +0.000 A 
ATOM      2  C   UNL     1       2.505  -1.249   0.000  0.00  0.00    +0.000 A 
ATOM      3  C   UNL     1       1.784  -0.007   0.000  0.00  0.00    +0.000 A 
ATOM      4  C   UNL     1       1.784  -1.657   0.000  0.00  0.00    +0.000 A 
ATOM      5  C   UNL     1       1.070  -0.424   0.000  0.00  0.00    +0.000 A 
ATOM      6  C   UNL     1       1.070  -1.249   0.000  0.00  0.00    +0.000 A 
ATOM      7  F   UNL     1       3.218  -0.007   0.000  0.00  0.00    +0.000 F 
ENDROOT
BRANCH   6   8
ATOM      8  N   UNL     1       0.357  -1.657   0.000  0.00  0.00    +0.000 N 
ATOM      9  C   UNL     1       0.357  -2.482   0.000  0.00  0.00    +0.000 C 
ATOM     10  C   UNL     1      -0.364  -1.241   0.000  0.00  0.00    +0.000 C 
ATOM     11  C   UNL     1      -0.364  -2.891   0.000  0.00  0.00    +0.000 C 
ATOM     12  C   UNL     1      -1.078  -1.657   0.000  0.00  0.00    +0.000 C 
ATOM     13  C   UNL     1      -1.078  -2.482   0.000  0.00  0.00    +0.000 C 
BRANCH  13  14
ATOM     14  C   UNL     1      -1.784  -2.891   0.000  0.00  0.00    +0.000 C 
ATOM     15  O   UNL     1      -2.505  -2.482   0.000  0.00  0.00    +0.000 OA
ATOM     16  O   UNL     1      -1.784  -3.716   0.000  0.00  0.00    +0.000 OA
ENDBRANCH  13  14
ENDBRANCH   6   8
BRANCH   5  17
ATOM     17  N   UNL     1       0.357  -0.007   0.000  0.00  0.00    +0.000 NA
ATOM     18  C   UNL     1       0.357   0.818   0.000  0.00  0.00    +0.000 C 
ATOM     19  N   UNL     1      -0.364   1.226   0.000  0.00  0.00    +0.000 NA
ATOM     20  O   UNL     1       1.070   1.226   0.000  0.00  0.00    +0.000 OA
ATOM     21  C   UNL     1      -0.364   2.051   0.000  0.00  0.00    +0.000 C 
ATOM     22  O   UNL     1       0.357   2.475   0.000  0.00  0.00    +0.000 OA
BRANCH  21  23
ATOM     23  C   UNL     1      -1.078   2.475   0.000  0.00  0.00    +0.000 A 
ATOM     24  C   UNL     1      -1.078   3.300   0.000  0.00  0.00    +0.000 A 
ATOM     25  C   UNL     1      -1.784   3.716   0.000  0.00  0.00    +0.000 A 
ATOM     26  C   UNL     1      -1.784   2.066   0.000  0.00  0.00    +0.000 A 
ATOM     27  C   UNL     1      -2.505   3.300   0.000  0.00  0.00    +0.000 A 
ATOM     28  C   UNL     1      -2.505   2.475   0.000  0.00  0.00    +0.000 A 
ATOM     29  F   UNL     1      -3.218   2.066   0.000  0.00  0.00    +0.000 F 
ATOM     30  F   UNL     1      -3.218   3.709   0.000  0.00  0.00    +0.000 F 
ATOM     31 CL   UNL     1      -0.364   3.716   0.000  0.00  0.00    +0.000 Cl
ENDBRANCH  21  23
ENDBRANCH   5  17
TORSDOF 4
