REMARK  Name = 
REMARK  3 active torsions:
REMARK  status: ('A' for Active; 'I' for Inactive)
REMARK    1  A    between atoms: S_1  and  N_2
REMARK    2  A    between atoms: S_1  and  C_16
REMARK    3  A    between atoms: N_4  and  N_5
REMARK                            x       y       z     vdW  Elec       q    Type
REMARK                         _______ _______ _______ _____ _____    ______ ____
ROOT
ATOM      1  N   UNL     1       0.589  -0.139   0.000  0.00  0.00    +0.000 NA
ATOM      2  C   UNL     1      -0.223   0.056   0.000  0.00  0.00    +0.000 C 
ATOM      3  N   UNL     1      -0.789  -0.529   0.000  0.00  0.00    +0.000 NA
ATOM      4  O   UNL     1      -0.431   0.858   0.000  0.00  0.00    +0.000 OA
ENDROOT
BRANCH   3   5
ATOM      5  N   UNL     1      -1.601  -0.316   0.000  0.00  0.00    +0.000 NA
ATOM      6  C   UNL     1      -1.907   0.450   0.000  0.00  0.00    +0.000 C 
ATOM      7  C   UNL     1      -2.733   0.399   0.000  0.00  0.00    +0.000 C 
ATOM      8  C   UNL     1      -3.438   0.835   0.000  0.00  0.00    +0.000 C 
ATOM      9  C   UNL     1      -4.074   0.320   0.000  0.00  0.00    +0.000 C 
ATOM     10  C   UNL     1      -3.791  -0.399   0.000  0.00  0.00    +0.000 C 
ATOM     11  C   UNL     1      -2.942  -0.399   0.000  0.00  0.00    +0.000 C 
ATOM     12  C   UNL     1      -2.251  -0.849   0.000  0.00  0.00    +0.000 C 
ENDBRANCH   3   5
BRANCH   1  13
ATOM     13  S   UNL     1       1.174   0.436   0.000  0.00  0.00    +0.000 S 
ATOM     14  O   UNL     1       1.647   1.123   0.000  0.00  0.00    +0.000 OA
ATOM     15  O   UNL     1       0.510   0.965   0.000  0.00  0.00    +0.000 OA
BRANCH  13  16
ATOM     16  C   UNL     1       1.898   0.028   0.000  0.00  0.00    +0.000 A 
ATOM     17  C   UNL     1       1.898  -0.789   0.000  0.00  0.00    +0.000 A 
ATOM     18  C   UNL     1       2.626  -1.206   0.000  0.00  0.00    +0.000 A 
ATOM     19  C   UNL     1       3.332  -0.789   0.000  0.00  0.00    +0.000 A 
ATOM     20  C   UNL     1       3.332   0.032   0.000  0.00  0.00    +0.000 A 
ATOM     21  C   UNL     1       2.608   0.445   0.000  0.00  0.00    +0.000 A 
ATOM     22  C   UNL     1       4.074  -1.197   0.000  0.00  0.00    +0.000 C 
ENDBRANCH  13  16
ENDBRANCH   1  13
TORSDOF 3
