REMARK  Name = 
REMARK  50 active torsions:
REMARK  status: ('A' for Active; 'I' for Inactive)
REMARK    1  A    between atoms: C_2  and  C_3
REMARK    2  A    between atoms: C_3  and  C_4
REMARK    3  A    between atoms: C_4  and  C_5
REMARK    4  A    between atoms: C_5  and  C_6
REMARK    5  A    between atoms: C_6  and  C_7
REMARK    6  A    between atoms: C_7  and  C_8
REMARK    7  A    between atoms: C_8  and  O_10
REMARK    8  A    between atoms: O_10  and  C_11
REMARK    9  A    between atoms: C_15  and  O_16
REMARK   10  A    between atoms: O_16  and  C_17
REMARK   11  A    between atoms: C_17  and  C_19
REMARK   12  A    between atoms: C_26  and  O_34
REMARK   13  A    between atoms: C_28  and  O_30
REMARK   14  A    between atoms: O_30  and  C_31
REMARK   15  A    between atoms: O_34  and  C_35
REMARK   16  A    between atoms: C_35  and  C_37
REMARK   17  A    between atoms: C_37  and  C_38
REMARK   18  A    between atoms: C_38  and  C_39
REMARK   19  A    between atoms: C_39  and  C_40
REMARK   20  A    between atoms: C_40  and  C_41
REMARK   21  A    between atoms: C_41  and  C_42
REMARK   22  A    between atoms: C_42  and  C_43
REMARK   23  A    between atoms: C_43  and  C_44
REMARK   24  A    between atoms: C_44  and  C_45
REMARK   25  A    between atoms: C_45  and  C_46
REMARK   26  A    between atoms: C_46  and  C_47
REMARK   27  A    between atoms: C_47  and  N_48
REMARK   28  A    between atoms: C_49  and  C_51
REMARK   29  A    between atoms: C_51  and  C_52
REMARK   30  A    between atoms: C_52  and  C_53
REMARK   31  A    between atoms: N_55  and  C_56
REMARK   32  A    between atoms: C_56  and  C_57
REMARK   33  A    between atoms: C_56  and  C_89
REMARK   34  A    between atoms: C_57  and  C_58
REMARK   35  A    between atoms: C_58  and  C_59
REMARK   36  A    between atoms: N_61  and  C_62
REMARK   37  A    between atoms: C_62  and  C_63
REMARK   38  A    between atoms: C_62  and  C_86
REMARK   39  A    between atoms: C_63  and  C_64
REMARK   40  A    between atoms: C_64  and  C_65
REMARK   41  A    between atoms: N_67  and  C_68
REMARK   42  A    between atoms: C_68  and  C_69
REMARK   43  A    between atoms: C_68  and  C_83
REMARK   44  A    between atoms: C_69  and  C_70
REMARK   45  A    between atoms: C_70  and  C_71
REMARK   46  A    between atoms: N_73  and  C_74
REMARK   47  A    between atoms: C_74  and  C_75
REMARK   48  A    between atoms: C_74  and  C_80
REMARK   49  A    between atoms: C_75  and  C_76
REMARK   50  A    between atoms: C_76  and  C_77
REMARK                            x       y       z     vdW  Elec       q    Type
REMARK                         _______ _______ _______ _____ _____    ______ ____
ROOT
ATOM      1  C   UNK A   1       7.781   2.090   0.000  0.00  0.00    +0.000 C 
ENDROOT
BRANCH   1   2
ATOM      2  C   UNK A   1       7.066   1.678   0.000  0.00  0.00    +0.000 C 
BRANCH   2   3
ATOM      3  C   UNK A   1       6.352   2.090   0.000  0.00  0.00    +0.000 C 
BRANCH   3   4
ATOM      4  C   UNK A   1       5.637   1.678   0.000  0.00  0.00    +0.000 C 
BRANCH   4   5
ATOM      5  C   UNK A   1       4.923   2.090   0.000  0.00  0.00    +0.000 C 
BRANCH   5   6
ATOM      6  C   UNK A   1       4.208   1.678   0.000  0.00  0.00    +0.000 C 
BRANCH   6   7
ATOM      7  C   UNK A   1       3.494   2.090   0.000  0.00  0.00    +0.000 C 
BRANCH   7   8
ATOM      8  C   UNK A   1       2.780   1.678   0.000  0.00  0.00    +0.000 C 
ATOM      9  O   UNK A   1       2.780   0.853   0.000  0.00  0.00    +0.000 OA
BRANCH   8  10
ATOM     10  O   UNK A   1       2.065   2.090   0.000  0.00  0.00    +0.000 OA
BRANCH  10  19
ATOM     11  C   UNK A   1      -0.560  -0.196   0.000  0.00  0.00    +0.000 C 
ATOM     12  C   UNK A   1      -0.008   0.417   0.000  0.00  0.00    +0.000 C 
ATOM     13  C   UNK A   1      -0.421   1.131   0.000  0.00  0.00    +0.000 C 
ATOM     14  C   UNK A   1      -1.228   0.960   0.000  0.00  0.00    +0.000 C 
ATOM     15  C   UNK A   1      -1.314   0.139   0.000  0.00  0.00    +0.000 C 
ATOM     16  C   UNK A   1      -1.841   1.512   0.000  0.00  0.00    +0.000 C 
ATOM     17  C   UNK A   1      -0.119   1.899   0.000  0.00  0.00    +0.000 C 
ATOM     18  C   UNK A   1       0.669   2.143   0.000  0.00  0.00    +0.000 C 
ATOM     19  C   UNK A   1       1.351   1.678   0.000  0.00  0.00    +0.000 C 
ATOM     20  C   UNK A   1       1.412   0.855   0.000  0.00  0.00    +0.000 C 
ATOM     21  C   UNK A   1       0.807   0.294   0.000  0.00  0.00    +0.000 C 
ATOM     22  C   UNK A   1       0.666  -0.519   0.000  0.00  0.00    +0.000 C 
ATOM     23  C   UNK A   1       0.681   2.967   0.000  0.00  0.00    +0.000 C 
ATOM     24  C   UNK A   1      -0.100   3.234   0.000  0.00  0.00    +0.000 C 
ATOM     25  O   UNK A   1      -0.343   4.022   0.000  0.00  0.00    +0.000 OA
ATOM     26  O   UNK A   1      -0.594   2.574   0.000  0.00  0.00    +0.000 OA
ATOM     27  C   UNK A   1       1.502   3.050   0.000  0.00  0.00    +0.000 C 
ATOM     28  O   UNK A   1       1.036   3.712   0.000  0.00  0.00    +0.000 OA
ATOM     29  O   UNK A   1       1.401   2.523   0.000  0.00  0.00    +0.000 OA
BRANCH  21  30
ATOM     30  O   UNK A   1       1.382  -0.298   0.000  0.00  0.00    +0.000 OA
BRANCH  30  31
ATOM     31  C   UNK A   1       2.182  -0.096   0.000  0.00  0.00    +0.000 C 
ATOM     32  O   UNK A   1       2.407   0.697   0.000  0.00  0.00    +0.000 OA
ATOM     33  C   UNK A   1       2.757  -0.689   0.000  0.00  0.00    +0.000 C 
ENDBRANCH  30  31
ENDBRANCH  21  30
BRANCH  15  34
ATOM     34  O   UNK A   1      -2.029  -0.273   0.000  0.00  0.00    +0.000 OA
BRANCH  34  35
ATOM     35  C   UNK A   1      -2.743   0.139   0.000  0.00  0.00    +0.000 C 
ATOM     36  O   UNK A   1      -2.743   0.964   0.000  0.00  0.00    +0.000 OA
BRANCH  35  37
ATOM     37  C   UNK A   1      -3.458  -0.273   0.000  0.00  0.00    +0.000 C 
ATOM     38  C   UNK A   1      -4.172   0.139   0.000  0.00  0.00    +0.000 C 
ATOM     39  C   UNK A   1      -4.172   0.964   0.000  0.00  0.00    +0.000 C 
ATOM     40  C   UNK A   1      -3.458  -1.098   0.000  0.00  0.00    +0.000 C 
ENDBRANCH  35  37
ENDBRANCH  34  35
ENDBRANCH  15  34
BRANCH  11  41
ATOM     41  O   UNK A   1      -0.389  -1.003   0.000  0.00  0.00    +0.000 OA
BRANCH  41  42
ATOM     42  C   UNK A   1      -1.002  -1.555   0.000  0.00  0.00    +0.000 C 
ATOM     43  O   UNK A   1      -1.787  -1.300   0.000  0.00  0.00    +0.000 OA
BRANCH  42  44
ATOM     44  C   UNK A   1      -0.830  -2.362   0.000  0.00  0.00    +0.000 C 
BRANCH  44  45
ATOM     45  C   UNK A   1      -1.444  -2.914   0.000  0.00  0.00    +0.000 C 
BRANCH  45  46
ATOM     46  C   UNK A   1      -1.272  -3.721   0.000  0.00  0.00    +0.000 C 
BRANCH  46  47
ATOM     47  C   UNK A   1      -1.885  -4.273   0.000  0.00  0.00    +0.000 C 
BRANCH  47  48
ATOM     48  C   UNK A   1      -1.714  -5.080   0.000  0.00  0.00    +0.000 C 
BRANCH  48  50
ATOM     49  C   UNK A   1      -2.155  -6.439   0.000  0.00  0.00    +0.000 C 
ATOM     50  C   UNK A   1      -2.327  -5.632   0.000  0.00  0.00    +0.000 C 
ENDBRANCH  48  50
ENDBRANCH  47  48
ENDBRANCH  46  47
ENDBRANCH  45  46
ENDBRANCH  44  45
ENDBRANCH  42  44
ENDBRANCH  41  42
ENDBRANCH  11  41
ENDBRANCH  10  19
ENDBRANCH   8  10
ENDBRANCH   7   8
ENDBRANCH   6   7
ENDBRANCH   5   6
ENDBRANCH   4   5
ENDBRANCH   3   4
ENDBRANCH   2   3
ENDBRANCH   1   2
BRANCH   1  51
ATOM     51  C   UNK A   1       8.495   1.678   0.000  0.00  0.00    +0.000 C 
BRANCH  51  52
ATOM     52  C   UNK A   1       9.210   2.090   0.000  0.00  0.00    +0.000 C 
BRANCH  52  53
ATOM     53  C   UNK A   1       9.924   1.678   0.000  0.00  0.00    +0.000 C 
BRANCH  53  54
ATOM     54  C   UNK A   1      10.639   2.090   0.000  0.00  0.00    +0.000 C 
BRANCH  54  55
ATOM     55  N   UNK A   1      11.353   1.678   0.000  0.00  0.00    +0.000 NA
ATOM     56  C   UNK A   1      12.068   2.090   0.000  0.00  0.00    +0.000 C 
ATOM     57  O   UNK A   1      12.068   2.915   0.000  0.00  0.00    +0.000 OA
BRANCH  56  58
ATOM     58  C   UNK A   1      12.782   1.678   0.000  0.00  0.00    +0.000 C 
BRANCH  58  59
ATOM     59  C   UNK A   1      13.497   2.090   0.000  0.00  0.00    +0.000 C 
ATOM     60  N   UNK A   1      13.497   2.915   0.000  0.00  0.00    +0.000 NA
BRANCH  59  61
ATOM     61  C   UNK A   1      14.211   1.678   0.000  0.00  0.00    +0.000 C 
ATOM     62  O   UNK A   1      14.211   0.853   0.000  0.00  0.00    +0.000 OA
ATOM     63  N   UNK A   2      14.925   2.090   0.000  0.00  0.00    +0.000 NA
BRANCH  63  64
ATOM     64  C   UNK A   2      15.640   1.678   0.000  0.00  0.00    +0.000 C 
BRANCH  64  65
ATOM     65  C   UNK A   2      15.640   0.853   0.000  0.00  0.00    +0.000 C 
ATOM     66  O   UNK A   2      16.354   0.440   0.000  0.00  0.00    +0.000 OA
ATOM     67  O   UNK A   2      14.925   0.440   0.000  0.00  0.00    +0.000 OA
ENDBRANCH  64  65
BRANCH  64  68
ATOM     68  C   UNK A   2      16.354   2.090   0.000  0.00  0.00    +0.000 C 
BRANCH  68  69
ATOM     69  C   UNK A   2      17.069   1.678   0.000  0.00  0.00    +0.000 C 
BRANCH  69  70
ATOM     70  C   UNK A   2      17.783   2.090   0.000  0.00  0.00    +0.000 C 
ATOM     71  O   UNK A   2      17.783   2.915   0.000  0.00  0.00    +0.000 OA
ATOM     72  N   UNK A   1      18.498   1.678   0.000  0.00  0.00    +0.000 NA
BRANCH  72  73
ATOM     73  C   UNK A   1      19.212   2.090   0.000  0.00  0.00    +0.000 C 
BRANCH  73  74
ATOM     74  C   UNK A   1      19.212   2.915   0.000  0.00  0.00    +0.000 C 
ATOM     75  O   UNK A   1      19.927   3.328   0.000  0.00  0.00    +0.000 OA
ATOM     76  O   UNK A   1      18.498   3.328   0.000  0.00  0.00    +0.000 OA
ENDBRANCH  73  74
BRANCH  73  77
ATOM     77  C   UNK A   1      19.927   1.678   0.000  0.00  0.00    +0.000 C 
BRANCH  77  78
ATOM     78  C   UNK A   1      20.641   2.090   0.000  0.00  0.00    +0.000 C 
BRANCH  78  79
ATOM     79  C   UNK A   1      21.356   1.678   0.000  0.00  0.00    +0.000 C 
ATOM     80  O   UNK A   1      21.356   0.853   0.000  0.00  0.00    +0.000 OA
ATOM     81  N   UNK A   1      22.070   2.090   0.000  0.00  0.00    +0.000 NA
BRANCH  81  82
ATOM     82  C   UNK A   1      22.785   1.678   0.000  0.00  0.00    +0.000 C 
BRANCH  82  83
ATOM     83  C   UNK A   1      22.785   0.853   0.000  0.00  0.00    +0.000 C 
ATOM     84  O   UNK A   1      23.499   0.440   0.000  0.00  0.00    +0.000 OA
ATOM     85  O   UNK A   1      22.070   0.440   0.000  0.00  0.00    +0.000 OA
ENDBRANCH  82  83
BRANCH  82  86
ATOM     86  C   UNK A   1      23.499   2.090   0.000  0.00  0.00    +0.000 C 
BRANCH  86  87
ATOM     87  C   UNK A   1      24.214   1.678   0.000  0.00  0.00    +0.000 C 
BRANCH  87  88
ATOM     88  C   UNK A   1      24.928   2.090   0.000  0.00  0.00    +0.000 C 
ATOM     89  O   UNK A   1      24.928   2.915   0.000  0.00  0.00    +0.000 OA
ATOM     90  N   UNK A   1      25.643   1.678   0.000  0.00  0.00    +0.000 NA
BRANCH  90  91
ATOM     91  C   UNK A   1      26.357   2.090   0.000  0.00  0.00    +0.000 C 
BRANCH  91  92
ATOM     92  C   UNK A   1      26.357   2.915   0.000  0.00  0.00    +0.000 C 
ATOM     93  O   UNK A   1      27.072   3.328   0.000  0.00  0.00    +0.000 OA
ATOM     94  O   UNK A   1      25.643   3.328   0.000  0.00  0.00    +0.000 OA
ENDBRANCH  91  92
BRANCH  91  95
ATOM     95  C   UNK A   1      27.072   1.678   0.000  0.00  0.00    +0.000 C 
BRANCH  95  96
ATOM     96  C   UNK A   1      27.786   2.090   0.000  0.00  0.00    +0.000 C 
BRANCH  96  97
ATOM     97  C   UNK A   1      28.500   1.678   0.000  0.00  0.00    +0.000 C 
ATOM     98  O   UNK A   1      29.215   2.090   0.000  0.00  0.00    +0.000 OA
ATOM     99  O   UNK A   1      28.500   0.853   0.000  0.00  0.00    +0.000 OA
ENDBRANCH  96  97
ENDBRANCH  95  96
ENDBRANCH  91  95
ENDBRANCH  90  91
ENDBRANCH  87  88
ENDBRANCH  86  87
ENDBRANCH  82  86
ENDBRANCH  81  82
ENDBRANCH  78  79
ENDBRANCH  77  78
ENDBRANCH  73  77
ENDBRANCH  72  73
ENDBRANCH  69  70
ENDBRANCH  68  69
ENDBRANCH  64  68
ENDBRANCH  63  64
ENDBRANCH  59  61
ENDBRANCH  58  59
ENDBRANCH  56  58
ENDBRANCH  54  55
ENDBRANCH  53  54
ENDBRANCH  52  53
ENDBRANCH  51  52
ENDBRANCH   1  51
TORSDOF 50
