REMARK  Name = 
REMARK  5 active torsions:
REMARK  status: ('A' for Active; 'I' for Inactive)
REMARK    1  A    between atoms: C_1  and  C_2
REMARK    2  A    between atoms: C_2  and  C_3
REMARK    3  A    between atoms: C_8  and  O_9
REMARK    4  A    between atoms: O_9  and  C_10
REMARK    5  A    between atoms: C_10  and  C_11
REMARK                            x       y       z     vdW  Elec       q    Type
REMARK                         _______ _______ _______ _____ _____    ______ ____
ROOT
ATOM      1  C   UNL     1       0.722   1.031   0.000  0.00  0.00    +0.000 A 
ATOM      2  C   UNL     1       0.021   1.444   0.000  0.00  0.00    +0.000 A 
ATOM      3  C   UNL     1       0.722   0.206   0.000  0.00  0.00    +0.000 A 
ATOM      4  C   UNL     1      -0.722   1.031   0.000  0.00  0.00    +0.000 A 
ATOM      5  C   UNL     1       0.021  -0.206   0.000  0.00  0.00    +0.000 A 
ATOM      6  C   UNL     1      -0.722   0.206   0.000  0.00  0.00    +0.000 A 
ENDROOT
BRANCH   1   7
ATOM      7  C   UNL     1       1.423   1.444   0.000  0.00  0.00    +0.000 C 
BRANCH   7   8
ATOM      8  C   UNL     1       2.166   1.031   0.000  0.00  0.00    +0.000 C 
ATOM      9  C   UNL     1       2.162   0.206   0.000  0.00  0.00    +0.000 C 
ATOM     10  N   UNL     1       2.946  -0.052   0.000  0.00  0.00    +0.000 NA
ATOM     11  C   UNL     1       3.434   0.613   0.000  0.00  0.00    +0.000 C 
ATOM     12  S   UNL     1       2.952   1.283   0.000  0.00  0.00    +0.000 S 
ATOM     13  O   UNL     1       4.270   0.610   0.000  0.00  0.00    +0.000 OA
ATOM     14  O   UNL     1       1.495  -0.274   0.000  0.00  0.00    +0.000 OA
ENDBRANCH   7   8
ENDBRANCH   1   7
BRANCH   6  15
ATOM     15  O   UNL     1      -1.423  -0.206   0.000  0.00  0.00    +0.000 OA
BRANCH  15  16
ATOM     16  C   UNL     1      -2.166   0.206   0.000  0.00  0.00    +0.000 C 
BRANCH  16  17
ATOM     17  C   UNL     1      -2.867  -0.206   0.000  0.00  0.00    +0.000 C 
ATOM     18  C   UNL     1      -3.568   0.206   0.000  0.00  0.00    +0.000 C 
ATOM     19  C   UNL     1      -4.270  -0.206   0.000  0.00  0.00    +0.000 C 
ATOM     20  C   UNL     1      -4.270  -1.031   0.000  0.00  0.00    +0.000 C 
ATOM     21  C   UNL     1      -3.568  -1.444   0.000  0.00  0.00    +0.000 C 
ATOM     22  C   UNL     1      -2.867  -1.031   0.000  0.00  0.00    +0.000 C 
ATOM     23  C   UNL     1      -2.867   0.619   0.000  0.00  0.00    +0.000 C 
ENDBRANCH  16  17
ENDBRANCH  15  16
ENDBRANCH   6  15
TORSDOF 5
