REMARK  Name = 
REMARK  5 active torsions:
REMARK  status: ('A' for Active; 'I' for Inactive)
REMARK    1  A    between atoms: S_1  and  C_3
REMARK    2  A    between atoms: S_1  and  C_7
REMARK    3  A    between atoms: C_2  and  C_3
REMARK    4  A    between atoms: C_2  and  S_4
REMARK    5  A    between atoms: C_7  and  C_8
REMARK                            x       y       z     vdW  Elec       q    Type
REMARK                         _______ _______ _______ _____ _____    ______ ____
ROOT
ATOM      1  C   UNL     1       0.357   0.206   0.000  0.00  0.00    +0.000 C 
ENDROOT
BRANCH   1   2
ATOM      2  S   UNL     1      -0.357  -0.206   0.000  0.00  0.00    +0.000 S 
BRANCH   2   3
ATOM      3  C   UNL     1      -1.072   0.206   0.000  0.00  0.00    +0.000 C 
BRANCH   3   4
ATOM      4  C   UNL     1      -1.786  -0.206   0.000  0.00  0.00    +0.000 C 
ATOM      5  O   UNL     1      -1.786  -1.031   0.000  0.00  0.00    +0.000 OA
ATOM      6  C   UNL     1      -2.501   0.206   0.000  0.00  0.00    +0.000 C 
ENDBRANCH   3   4
ENDBRANCH   2   3
ENDBRANCH   1   2
BRANCH   1   7
ATOM      7  C   UNL     1       1.072  -0.206   0.000  0.00  0.00    +0.000 C 
BRANCH   7   8
ATOM      8  S   UNL     1       1.786   0.206   0.000  0.00  0.00    +0.000 S 
ATOM      9  O   UNL     1       2.501  -0.206   0.000  0.00  0.00    +0.000 OA
ATOM     10  O   UNL     1       1.786   1.031   0.000  0.00  0.00    +0.000 OA
ATOM     11  O   UNL     1       2.501   0.619   0.000  0.00  0.00    +0.000 OA
ENDBRANCH   7   8
ENDBRANCH   1   7
TORSDOF 5
