REMARK  Name = 
REMARK  7 active torsions:
REMARK  status: ('A' for Active; 'I' for Inactive)
REMARK    1  A    between atoms: C_7  and  C_10
REMARK    2  A    between atoms: C_7  and  C_17
REMARK    3  A    between atoms: C_10  and  N_21
REMARK    4  A    between atoms: C_17  and  O_25
REMARK    5  A    between atoms: C_18  and  C_20
REMARK    6  A    between atoms: C_19  and  C_20
REMARK    7  A    between atoms: C_19  and  O_25
REMARK                            x       y       z     vdW  Elec       q    Type
REMARK                         _______ _______ _______ _____ _____    ______ ____
ROOT
ATOM      1  C   UNL     1       2.143   1.238   0.000  0.00  0.00    +0.000 C 
ATOM      2  O   UNL     1       1.659   1.905   0.000  0.00  0.00    +0.000 OA
ENDROOT
BRANCH   1   7
ATOM      3  C   UNL     1       3.682   0.854   0.000  0.00  0.00    +0.000 C 
ATOM      4  C   UNL     1       2.471   0.097   0.000  0.00  0.00    +0.000 C 
ATOM      5  C   UNL     1       4.120   0.154   0.000  0.00  0.00    +0.000 C 
ATOM      6  C   UNL     1       2.908  -0.603   0.000  0.00  0.00    +0.000 C 
ATOM      7  C   UNL     1       2.858   0.825   0.000  0.00  0.00    +0.000 C 
ATOM      8  O   UNL     1       3.732  -0.574   0.000  0.00  0.00    +0.000 OA
BRANCH   7  14
ATOM      9  C   UNL     1       2.685   3.294   0.000  0.00  0.00    +0.000 A 
ATOM     10  C   UNL     1       2.001   2.833   0.000  0.00  0.00    +0.000 A 
ATOM     11  C   UNL     1       3.427   2.932   0.000  0.00  0.00    +0.000 A 
ATOM     12  C   UNL     1       2.059   2.010   0.000  0.00  0.00    +0.000 A 
ATOM     13  C   UNL     1       3.484   2.109   0.000  0.00  0.00    +0.000 A 
ATOM     14  C   UNL     1       2.800   1.648   0.000  0.00  0.00    +0.000 A 
ENDBRANCH   7  14
ENDBRANCH   1   7
BRANCH   1  15
ATOM     15  O   UNL     1       1.429   0.825   0.000  0.00  0.00    +0.000 OA
BRANCH  15  17
ATOM     16  C   UNL     1       0.715   2.062   0.000  0.00  0.00    +0.000 C 
ATOM     17  C   UNL     1       0.715   1.238   0.000  0.00  0.00    +0.000 C 
BRANCH  17  18
ATOM     18  C   UNL     1       0.000   0.825   0.000  0.00  0.00    +0.000 C 
BRANCH  18  19
ATOM     19  C   UNL     1      -0.715   1.238   0.000  0.00  0.00    +0.000 C 
BRANCH  19  24
ATOM     20  C   UNL     1      -2.143   1.238   0.000  0.00  0.00    +0.000 C 
ATOM     21  C   UNL     1      -1.429   0.000   0.000  0.00  0.00    +0.000 C 
ATOM     22  C   UNL     1      -2.858   0.825   0.000  0.00  0.00    +0.000 C 
ATOM     23  C   UNL     1      -2.143  -0.412   0.000  0.00  0.00    +0.000 C 
ATOM     24  N   UNL     1      -1.429   0.825   0.000  0.00  0.00    +0.000 NA
ATOM     25  O   UNL     1      -2.858   0.000   0.000  0.00  0.00    +0.000 OA
ENDBRANCH  19  24
ENDBRANCH  18  19
ENDBRANCH  17  18
ENDBRANCH  15  17
ENDBRANCH   1  15
TORSDOF 7
