REMARK  Name = 
REMARK  9 active torsions:
REMARK  status: ('A' for Active; 'I' for Inactive)
REMARK    1  A    between atoms: C_1  and  C_2
REMARK    2  A    between atoms: C_2  and  N_5
REMARK    3  A    between atoms: N_5  and  C_9
REMARK    4  A    between atoms: C_12  and  S_16
REMARK    5  A    between atoms: C_12  and  C_17
REMARK    6  A    between atoms: S_16  and  S_18
REMARK    7  A    between atoms: C_17  and  C_19
REMARK    8  A    between atoms: S_18  and  C_20
REMARK    9  A    between atoms: C_20  and  C_22
REMARK                            x       y       z     vdW  Elec       q    Type
REMARK                         _______ _______ _______ _____ _____    ______ ____
ROOT
ATOM      1  C   UNL     1      -0.305  -0.410   0.000  0.00  0.00    +0.000 C 
ATOM      2  C   UNL     1       0.405   0.007   0.000  0.00  0.00    +0.000 C 
ATOM      3  C   UNL     1      -0.302  -1.238   0.000  0.00  0.00    +0.000 C 
ENDROOT
BRANCH   1   4
ATOM      4  N   UNL     1      -1.022  -0.003   0.000  0.00  0.00    +0.000 N 
ATOM      5  C   UNL     1      -1.026   0.821   0.000  0.00  0.00    +0.000 C 
ATOM      6  O   UNL     1      -0.315   1.238   0.000  0.00  0.00    +0.000 OA
BRANCH   4   7
ATOM      7  C   UNL     1      -1.733  -0.421   0.000  0.00  0.00    +0.000 C 
BRANCH   7   8
ATOM      8  C   UNL     1      -2.450  -0.010   0.000  0.00  0.00    +0.000 A 
ATOM      9  C   UNL     1      -3.163  -0.424   0.000  0.00  0.00    +0.000 A 
ATOM     10  C   UNL     1      -2.450   0.821   0.000  0.00  0.00    +0.000 A 
ATOM     11  N   UNL     1      -3.881  -0.010   0.000  0.00  0.00    +0.000 NA
ATOM     12  N   UNL     1      -3.163  -1.248   0.000  0.00  0.00    +0.000 NA
ATOM     13  N   UNL     1      -3.167   1.231   0.000  0.00  0.00    +0.000 NA
ATOM     14  C   UNL     1      -3.877   0.817   0.000  0.00  0.00    +0.000 A 
ATOM     15  C   UNL     1      -4.595   1.231   0.000  0.00  0.00    +0.000 C 
ENDBRANCH   7   8
ENDBRANCH   4   7
ENDBRANCH   1   4
BRANCH   2  16
ATOM     16  S   UNL     1       1.122  -0.403   0.000  0.00  0.00    +0.000 S 
BRANCH  16  17
ATOM     17  S   UNL     1       1.836   0.014   0.000  0.00  0.00    +0.000 S 
BRANCH  17  18
ATOM     18  C   UNL     1       2.553  -0.393   0.000  0.00  0.00    +0.000 C 
BRANCH  18  19
ATOM     19  C   UNL     1       3.260   0.024   0.000  0.00  0.00    +0.000 C 
ATOM     20  C   UNL     1       3.515   0.810   0.000  0.00  0.00    +0.000 C 
ATOM     21  O   UNL     1       3.925  -0.462   0.000  0.00  0.00    +0.000 OA
ATOM     22  C   UNL     1       4.339   0.810   0.000  0.00  0.00    +0.000 C 
ATOM     23  C   UNL     1       4.595   0.024   0.000  0.00  0.00    +0.000 C 
ENDBRANCH  18  19
ENDBRANCH  17  18
ENDBRANCH  16  17
ENDBRANCH   2  16
BRANCH   2  24
ATOM     24  C   UNL     1       0.402   0.831   0.000  0.00  0.00    +0.000 C 
BRANCH  24  25
ATOM     25  C   UNL     1       1.112   1.248   0.000  0.00  0.00    +0.000 C 
ATOM     26  O   UNL     1       1.829   0.838   0.000  0.00  0.00    +0.000 OA
ENDBRANCH  24  25
ENDBRANCH   2  24
TORSDOF 9
