REMARK  Name = 
REMARK  5 active torsions:
REMARK  status: ('A' for Active; 'I' for Inactive)
REMARK    1  A    between atoms: C_4  and  C_8
REMARK    2  A    between atoms: C_9  and  C_22
REMARK    3  A    between atoms: C_11  and  C_12
REMARK    4  A    between atoms: C_12  and  N_13
REMARK    5  A    between atoms: N_13  and  C_14
REMARK                            x       y       z     vdW  Elec       q    Type
REMARK                         _______ _______ _______ _____ _____    ______ ____
ROOT
ATOM      1  C   UNL     1       2.871  -0.122   0.000  0.00  0.00    +0.000 A 
ATOM      2  C   UNL     1       2.784   0.698   0.000  0.00  0.00    +0.000 A 
ATOM      3  N   UNL     1       3.538   1.034   0.000  0.00  0.00    +0.000 NA
ATOM      4  C   UNL     1       4.090   0.420   0.000  0.00  0.00    +0.000 A 
ATOM      5  N   UNL     1       3.678  -0.294   0.000  0.00  0.00    +0.000 NA
ENDROOT
BRANCH   2   6
ATOM      6  C   UNL     1       2.070   1.110   0.000  0.00  0.00    +0.000 A 
ATOM      7  C   UNL     1       1.356   0.698   0.000  0.00  0.00    +0.000 A 
ATOM      8  N   UNL     1       0.641   1.110   0.000  0.00  0.00    +0.000 N 
ATOM      9  N   UNL     1      -0.143   0.856   0.000  0.00  0.00    +0.000 NA
ATOM     10  C   UNL     1      -0.628   1.523   0.000  0.00  0.00    +0.000 A 
ATOM     11  N   UNL     1      -0.143   2.190   0.000  0.00  0.00    +0.000 NA
ATOM     12  C   UNL     1       0.641   1.935   0.000  0.00  0.00    +0.000 A 
ATOM     13  C   UNL     1       1.356   2.348   0.000  0.00  0.00    +0.000 A 
ATOM     14  C   UNL     1       2.070   1.935   0.000  0.00  0.00    +0.000 A 
ENDBRANCH   2   6
BRANCH   1  18
ATOM     15  C   UNL     1       0.075  -0.717   0.000  0.00  0.00    +0.000 C 
ATOM     16  C   UNL     1       0.860  -0.972   0.000  0.00  0.00    +0.000 A 
ATOM     17  N   UNL     1       1.473  -0.420   0.000  0.00  0.00    +0.000 NA
ATOM     18  C   UNL     1       2.258  -0.675   0.000  0.00  0.00    +0.000 A 
ATOM     19  C   UNL     1       2.429  -1.482   0.000  0.00  0.00    +0.000 A 
ATOM     20  C   UNL     1       1.816  -2.034   0.000  0.00  0.00    +0.000 A 
ATOM     21  C   UNL     1       1.032  -1.779   0.000  0.00  0.00    +0.000 A 
ENDBRANCH   1  18
BRANCH   4  22
ATOM     22  C   UNL     1       4.911   0.507   0.000  0.00  0.00    +0.000 C 
BRANCH  22  23
ATOM     23  N   UNL     1       5.396  -0.161   0.000  0.00  0.00    +0.000 NA
BRANCH  23  24
ATOM     24  C   UNL     1       6.216  -0.075   0.000  0.00  0.00    +0.000 A 
ATOM     25  C   UNL     1       6.552   0.679   0.000  0.00  0.00    +0.000 A 
ATOM     26  F   UNL     1       6.067   1.347   0.000  0.00  0.00    +0.000 F 
ATOM     27  C   UNL     1       7.372   0.765   0.000  0.00  0.00    +0.000 A 
ATOM     28  C   UNL     1       7.857   0.098   0.000  0.00  0.00    +0.000 A 
ATOM     29  C   UNL     1       7.521  -0.656   0.000  0.00  0.00    +0.000 A 
ATOM     30  C   UNL     1       6.701  -0.742   0.000  0.00  0.00    +0.000 A 
ENDBRANCH  23  24
ENDBRANCH  22  23
ENDBRANCH   4  22
TORSDOF 5
