REMARK  Name = 
REMARK  8 active torsions:
REMARK  status: ('A' for Active; 'I' for Inactive)
REMARK    1  A    between atoms: C_2  and  O_4
REMARK    2  A    between atoms: O_4  and  C_5
REMARK    3  A    between atoms: C_8  and  C_11
REMARK    4  A    between atoms: C_13  and  C_16
REMARK    5  A    between atoms: N_24  and  C_25
REMARK    6  A    between atoms: C_25  and  C_26
REMARK    7  A    between atoms: C_26  and  C_27
REMARK    8  A    between atoms: C_27  and  C_28
REMARK                            x       y       z     vdW  Elec       q    Type
REMARK                         _______ _______ _______ _____ _____    ______ ____
ROOT
ATOM      1  C   UNL     1       3.691   3.332   0.000  0.00  0.00    +0.000 A 
ATOM      2  N   UNL     1       3.946   2.547   0.000  0.00  0.00    +0.000 NA
ATOM      3  C   UNL     1       3.279   2.062   0.000  0.00  0.00    +0.000 A 
ATOM      4  N   UNL     1       2.611   2.547   0.000  0.00  0.00    +0.000 NA
ATOM      5  O   UNL     1       2.866   3.332   0.000  0.00  0.00    +0.000 OA
ENDROOT
BRANCH   3   6
ATOM      6  C   UNL     1       3.279   1.238   0.000  0.00  0.00    +0.000 A 
ATOM      7  C   UNL     1       3.993   0.825   0.000  0.00  0.00    +0.000 A 
ATOM      8  C   UNL     1       3.993   0.000   0.000  0.00  0.00    +0.000 A 
ATOM      9  C   UNL     1       3.279  -0.412   0.000  0.00  0.00    +0.000 A 
ATOM     10  C   UNL     1       2.564   0.000   0.000  0.00  0.00    +0.000 A 
ATOM     11  C   UNL     1       2.564   0.825   0.000  0.00  0.00    +0.000 A 
ATOM     12  C   UNL     1       1.780   1.080   0.000  0.00  0.00    +0.000 A 
ATOM     13  C   UNL     1       1.295   0.412   0.000  0.00  0.00    +0.000 A 
ATOM     14  N   UNL     1       1.780  -0.255   0.000  0.00  0.00    +0.000 N 
BRANCH  14  15
ATOM     15  C   UNL     1       1.525  -1.040   0.000  0.00  0.00    +0.000 C 
BRANCH  15  16
ATOM     16  C   UNL     1       0.718  -1.211   0.000  0.00  0.00    +0.000 C 
BRANCH  16  17
ATOM     17  C   UNL     1       0.463  -1.996   0.000  0.00  0.00    +0.000 C 
BRANCH  17  18
ATOM     18  C   UNL     1      -0.344  -2.167   0.000  0.00  0.00    +0.000 C 
ATOM     19  O   UNL     1      -0.599  -2.952   0.000  0.00  0.00    +0.000 OA
ATOM     20  O   UNL     1      -0.896  -1.554   0.000  0.00  0.00    +0.000 OA
ENDBRANCH  17  18
ENDBRANCH  16  17
ENDBRANCH  15  16
ENDBRANCH  14  15
ENDBRANCH   3   6
BRANCH   1  24
ATOM     21  C   UNL     1       5.146   5.334   0.000  0.00  0.00    +0.000 A 
ATOM     22  C   UNL     1       5.482   4.581   0.000  0.00  0.00    +0.000 A 
ATOM     23  C   UNL     1       4.997   3.913   0.000  0.00  0.00    +0.000 A 
ATOM     24  C   UNL     1       4.176   3.999   0.000  0.00  0.00    +0.000 A 
ATOM     25  C   UNL     1       3.841   4.753   0.000  0.00  0.00    +0.000 A 
ATOM     26  N   UNL     1       4.326   5.421   0.000  0.00  0.00    +0.000 NA
ATOM     27 CL   UNL     1       6.302   4.495   0.000  0.00  0.00    +0.000 Cl
BRANCH  21  28
ATOM     28  O   UNL     1       5.631   6.002   0.000  0.00  0.00    +0.000 OA
BRANCH  28  30
ATOM     29  C   UNL     1       5.780   7.423   0.000  0.00  0.00    +0.000 C 
ATOM     30  C   UNL     1       5.296   6.755   0.000  0.00  0.00    +0.000 C 
ATOM     31  C   UNL     1       4.475   6.842   0.000  0.00  0.00    +0.000 C 
ENDBRANCH  28  30
ENDBRANCH  21  28
ENDBRANCH   1  24
TORSDOF 8
