REMARK  Name = 
REMARK  8 active torsions:
REMARK  status: ('A' for Active; 'I' for Inactive)
REMARK    1  A    between atoms: C_3  and  O_28
REMARK    2  A    between atoms: C_13  and  C_15
REMARK    3  A    between atoms: C_13  and  O_29
REMARK    4  A    between atoms: C_14  and  C_18
REMARK    5  A    between atoms: C_14  and  O_27
REMARK    6  A    between atoms: C_16  and  O_29
REMARK    7  A    between atoms: C_22  and  C_23
REMARK    8  A    between atoms: C_23  and  O_28
REMARK                            x       y       z     vdW  Elec       q    Type
REMARK                         _______ _______ _______ _____ _____    ______ ____
ROOT
ATOM      1  C   UNL     1       2.047  -1.005   0.000  0.00  0.00    +0.000 A 
ATOM      2  C   UNL     1       1.495  -1.618   0.000  0.00  0.00    +0.000 A 
ATOM      3  C   UNL     1       0.986  -0.049   0.000  0.00  0.00    +0.000 A 
ATOM      4  C   UNL     1      -1.453  -1.618   0.000  0.00  0.00    +0.000 A 
ATOM      5  C   UNL     1       1.792  -0.221   0.000  0.00  0.00    +0.000 A 
ATOM      6  C   UNL     1       0.433  -0.662   0.000  0.00  0.00    +0.000 A 
ATOM      7  C   UNL     1      -0.943  -0.049   0.000  0.00  0.00    +0.000 A 
ATOM      8  C   UNL     1       0.689  -1.447   0.000  0.00  0.00    +0.000 A 
ATOM      9  C   UNL     1      -0.646  -1.447   0.000  0.00  0.00    +0.000 A 
ATOM     10  C   UNL     1      -0.391  -0.662   0.000  0.00  0.00    +0.000 A 
ATOM     11  C   UNL     1      -1.750  -0.221   0.000  0.00  0.00    +0.000 A 
ATOM     12  N   UNL     1      -2.005  -1.005   0.000  0.00  0.00    +0.000 NA
ATOM     13  N   UNL     1       0.021  -1.932   0.000  0.00  0.00    +0.000 NA
ENDROOT
BRANCH  11  14
ATOM     14  C   UNL     1      -2.302   0.392   0.000  0.00  0.00    +0.000 C 
ATOM     15  O   UNL     1      -2.047   1.177   0.000  0.00  0.00    +0.000 OA
BRANCH  14  16
ATOM     16  O   UNL     1      -3.109   0.221   0.000  0.00  0.00    +0.000 OA
BRANCH  16  18
ATOM     17  C   UNL     1      -4.468   0.662   0.000  0.00  0.00    +0.000 C 
ATOM     18  C   UNL     1      -3.661   0.834   0.000  0.00  0.00    +0.000 C 
ENDBRANCH  16  18
ENDBRANCH  14  16
ENDBRANCH  11  14
BRANCH   7  19
ATOM     19  C   UNL     1      -0.689   0.735   0.000  0.00  0.00    +0.000 C 
BRANCH  19  21
ATOM     20  C   UNL     1      -0.986   2.133   0.000  0.00  0.00    +0.000 C 
ATOM     21  O   UNL     1      -1.240   1.348   0.000  0.00  0.00    +0.000 OA
ENDBRANCH  19  21
ENDBRANCH   7  19
BRANCH   5  22
ATOM     22  O   UNL     1       2.345   0.392   0.000  0.00  0.00    +0.000 OA
BRANCH  22  23
ATOM     23  C   UNL     1       3.151   0.221   0.000  0.00  0.00    +0.000 C 
BRANCH  23  29
ATOM     24  C   UNL     1       3.916  -2.133   0.000  0.00  0.00    +0.000 A 
ATOM     25  C   UNL     1       4.468  -1.520   0.000  0.00  0.00    +0.000 A 
ATOM     26  C   UNL     1       3.109  -1.962   0.000  0.00  0.00    +0.000 A 
ATOM     27  C   UNL     1       4.213  -0.735   0.000  0.00  0.00    +0.000 A 
ATOM     28  C   UNL     1       2.854  -1.177   0.000  0.00  0.00    +0.000 A 
ATOM     29  C   UNL     1       3.406  -0.564   0.000  0.00  0.00    +0.000 A 
ENDBRANCH  23  29
ENDBRANCH  22  23
ENDBRANCH   5  22
TORSDOF 8
