REMARK  Name = 
REMARK  9 active torsions:
REMARK  status: ('A' for Active; 'I' for Inactive)
REMARK    1  A    between atoms: C_5  and  C_8
REMARK    2  A    between atoms: C_8  and  N_9
REMARK    3  A    between atoms: C_13  and  C_15
REMARK    4  A    between atoms: C_15  and  C_16
REMARK    5  A    between atoms: C_16  and  C_17
REMARK    6  A    between atoms: C_17  and  C_18
REMARK    7  A    between atoms: C_21  and  O_24
REMARK    8  A    between atoms: O_24  and  C_25
REMARK    9  A    between atoms: C_25  and  C_28
REMARK                            x       y       z     vdW  Elec       q    Type
REMARK                         _______ _______ _______ _____ _____    ______ ____
ROOT
ATOM      1  C   UNL     1      -0.791  -4.474   0.000  0.00  0.00    +0.000 C 
ENDROOT
BRANCH   1   6
ATOM      2  N   UNL     1       0.107  -2.537   0.000  0.00  0.00    +0.000 N 
ATOM      3  C   UNL     1       0.774  -3.022   0.000  0.00  0.00    +0.000 A 
ATOM      4  O   UNL     1       1.559  -2.767   0.000  0.00  0.00    +0.000 OA
ATOM      5  N   UNL     1       0.519  -3.806   0.000  0.00  0.00    +0.000 NA
ATOM      6  C   UNL     1      -0.306  -3.806   0.000  0.00  0.00    +0.000 A 
ATOM      7  N   UNL     1      -0.561  -3.022   0.000  0.00  0.00    +0.000 NA
BRANCH   2   8
ATOM      8  C   UNL     1       0.107  -1.712   0.000  0.00  0.00    +0.000 C 
BRANCH   8  13
ATOM      9  C   UNL     1       2.965  -0.062   0.000  0.00  0.00    +0.000 C 
ATOM     10  C   UNL     1       2.250  -0.474   0.000  0.00  0.00    +0.000 A 
ATOM     11  C   UNL     1       2.250  -1.299   0.000  0.00  0.00    +0.000 A 
ATOM     12  C   UNL     1       1.536  -1.712   0.000  0.00  0.00    +0.000 A 
ATOM     13  C   UNL     1       0.821  -1.299   0.000  0.00  0.00    +0.000 A 
ATOM     14  C   UNL     1       0.821  -0.474   0.000  0.00  0.00    +0.000 A 
ATOM     15  C   UNL     1       1.536  -0.062   0.000  0.00  0.00    +0.000 A 
ENDBRANCH   8  13
ENDBRANCH   2   8
ENDBRANCH   1   6
BRANCH   1  16
ATOM     16  C   UNL     1      -0.455  -5.227   0.000  0.00  0.00    +0.000 C 
BRANCH  16  17
ATOM     17  C   UNL     1       0.365  -5.314   0.000  0.00  0.00    +0.000 C 
BRANCH  17  18
ATOM     18  C   UNL     1       0.701  -6.067   0.000  0.00  0.00    +0.000 A 
ATOM     19  C   UNL     1       1.521  -6.153   0.000  0.00  0.00    +0.000 A 
ATOM     20  C   UNL     1       1.857  -6.907   0.000  0.00  0.00    +0.000 A 
ATOM     21  C   UNL     1       1.372  -7.574   0.000  0.00  0.00    +0.000 A 
ATOM     22  C   UNL     1       0.551  -7.488   0.000  0.00  0.00    +0.000 A 
ATOM     23  C   UNL     1       0.216  -6.735   0.000  0.00  0.00    +0.000 A 
BRANCH  21  24
ATOM     24  O   UNL     1       1.708  -8.328   0.000  0.00  0.00    +0.000 OA
BRANCH  24  25
ATOM     25  C   UNL     1       1.223  -8.996   0.000  0.00  0.00    +0.000 C 
ATOM     26  C   UNL     1       0.555  -8.511   0.000  0.00  0.00    +0.000 C 
ATOM     27  C   UNL     1       1.890  -9.481   0.000  0.00  0.00    +0.000 C 
BRANCH  25  28
ATOM     28  C   UNL     1       0.738  -9.663   0.000  0.00  0.00    +0.000 C 
ATOM     29  O   UNL     1       1.073 -10.417   0.000  0.00  0.00    +0.000 OA
ATOM     30  O   UNL     1      -0.083  -9.577   0.000  0.00  0.00    +0.000 OA
ENDBRANCH  25  28
ENDBRANCH  24  25
ENDBRANCH  21  24
ENDBRANCH  17  18
ENDBRANCH  16  17
ENDBRANCH   1  16
TORSDOF 9
