REMARK  Name = 
REMARK  11 active torsions:
REMARK  status: ('A' for Active; 'I' for Inactive)
REMARK    1  A    between atoms: O_2  and  C_20
REMARK    2  A    between atoms: O_2  and  C_25
REMARK    3  A    between atoms: N_9  and  CA_13
REMARK    4  A    between atoms: N_10  and  CA_16
REMARK    5  A    between atoms: C_11  and  C_15
REMARK    6  A    between atoms: C_12  and  C_20
REMARK    7  A    between atoms: CA_13  and  CB_17
REMARK    8  A    between atoms: CA_13  and  C_18
REMARK    9  A    between atoms: CB_14  and  CA_16
REMARK   10  A    between atoms: CB_14  and  CG1_19
REMARK   11  A    between atoms: CA_16  and  C_22
REMARK                            x       y       z     vdW  Elec       q    Type
REMARK                         _______ _______ _______ _____ _____    ______ ____
ROOT
ATOM      1  CA  UNL     1      -0.770   0.206   0.000  0.00  0.00    +0.000 C 
ENDROOT
BRANCH   1   3
ATOM      2  O   UNL     1       0.659   1.031   0.000  0.00  0.00    +0.000 OA
ATOM      3  N   UNL     1      -0.055  -0.206   0.000  0.00  0.00    +0.000 NA
ATOM      4  C   ACE A   0       0.659   0.206   0.000  0.00  0.00    +0.000 C 
BRANCH   4   6
ATOM      5  O   UNL     1       1.786  -0.921   0.000  0.00  0.00    +0.000 OA
ATOM      6  C   UNL     1       1.374  -0.206   0.000  0.00  0.00    +0.000 C 
ATOM      7  C   UNL     1       2.199  -0.206   0.000  0.00  0.00    +0.000 C 
BRANCH   7   9
ATOM      8  O   UNL     1       2.913   1.031   0.000  0.00  0.00    +0.000 OA
ATOM      9  C   UNL     1       2.913   0.206   0.000  0.00  0.00    +0.000 C 
BRANCH   9  10
ATOM     10  O   UNL     1       3.628  -0.206   0.000  0.00  0.00    +0.000 OA
BRANCH  10  11
ATOM     11  C   UNL     1       4.342   0.206   0.000  0.00  0.00    +0.000 C 
ATOM     12  C   UNL     1       5.057  -0.206   0.000  0.00  0.00    +0.000 C 
ENDBRANCH  10  11
ENDBRANCH   9  10
ENDBRANCH   7   9
ENDBRANCH   4   6
ENDBRANCH   1   3
BRANCH   1  14
ATOM     13  OG1 UNL     1      -1.484   1.444   0.000  0.00  0.00    +0.000 OA
ATOM     14  CB  UNL     1      -0.770   1.031   0.000  0.00  0.00    +0.000 C 
ATOM     15  CG2 UNL     1      -0.055   1.444   0.000  0.00  0.00    +0.000 C 
ENDBRANCH   1  14
BRANCH   1  18
ATOM     16  O   UNL     1      -1.484  -1.031   0.000  0.00  0.00    +0.000 OA
ATOM     17  N   UNL     1      -2.199   0.206   0.000  0.00  0.00    +0.000 NA
ATOM     18  C   UNL     1      -1.484  -0.206   0.000  0.00  0.00    +0.000 C 
BRANCH  17  19
ATOM     19  CA  UNL     1      -2.913  -0.206   0.000  0.00  0.00    +0.000 C 
BRANCH  19  22
ATOM     20  O   UNL     1      -3.628  -1.444   0.000  0.00  0.00    +0.000 OA
ATOM     21  OXT UNL     1      -2.199  -1.444   0.000  0.00  0.00    +0.000 OA
ATOM     22  C   UNL     1      -2.913  -1.031   0.000  0.00  0.00    +0.000 C 
ENDBRANCH  19  22
BRANCH  19  23
ATOM     23  CB  UNL     1      -3.628   0.206   0.000  0.00  0.00    +0.000 C 
ATOM     24  CG2 UNL     1      -3.628   1.031   0.000  0.00  0.00    +0.000 C 
BRANCH  23  25
ATOM     25  CG1 UNL     1      -4.342  -0.206   0.000  0.00  0.00    +0.000 C 
ATOM     26  CD1 UNL     1      -5.057   0.206   0.000  0.00  0.00    +0.000 C 
ENDBRANCH  23  25
ENDBRANCH  19  23
ENDBRANCH  17  19
ENDBRANCH   1  18
TORSDOF 11
