REMARK  Name = 
REMARK  9 active torsions:
REMARK  status: ('A' for Active; 'I' for Inactive)
REMARK    1  A    between atoms: C_4  and  C_21
REMARK    2  A    between atoms: C_6  and  C_7
REMARK    3  A    between atoms: C_7  and  C_8
REMARK    4  A    between atoms: C_8  and  C_9
REMARK    5  A    between atoms: N_23  and  CA_24
REMARK    6  A    between atoms: CA_24  and  CB_25
REMARK    7  A    between atoms: CA_24  and  C_30
REMARK    8  A    between atoms: CB_25  and  CG_26
REMARK    9  A    between atoms: CG_26  and  CD_27
REMARK                            x       y       z     vdW  Elec       q    Type
REMARK                         _______ _______ _______ _____ _____    ______ ____
ROOT
ATOM      1  C   UNK A   0      -4.559  -5.755   0.000  0.00  0.00    +0.000 C 
ATOM      2  C   UNK A   0      -3.738  -5.841   0.000  0.00  0.00    +0.000 A 
ATOM      3  C   UNK A   0      -3.186  -5.228   0.000  0.00  0.00    +0.000 A 
ATOM      4  C   UNK A   0      -2.432  -5.563   0.000  0.00  0.00    +0.000 A 
ATOM      5  S   UNK A   0      -2.519  -6.384   0.000  0.00  0.00    +0.000 S 
ATOM      6  C   UNK A   0      -3.326  -6.555   0.000  0.00  0.00    +0.000 A 
ENDROOT
BRANCH   4   7
ATOM      7  C   UNK A   0      -1.718  -5.151   0.000  0.00  0.00    +0.000 C 
ATOM      8  O   UNK A   0      -1.718  -4.326   0.000  0.00  0.00    +0.000 OA
ATOM      9  N   GLU A   1      -1.003  -5.563   0.000  0.00  0.00    +0.000 NA
BRANCH   9  10
ATOM     10  CA  GLU A   1      -0.289  -5.151   0.000  0.00  0.00    +0.000 C 
BRANCH  10  11
ATOM     11  C   GLU A   1      -0.289  -4.326   0.000  0.00  0.00    +0.000 C 
ATOM     12  O   GLU A   1       0.425  -3.913   0.000  0.00  0.00    +0.000 OA
ATOM     13  OXT GLU A   1      -1.003  -3.913   0.000  0.00  0.00    +0.000 OA
ENDBRANCH  10  11
BRANCH  10  14
ATOM     14  CB  GLU A   1       0.425  -5.563   0.000  0.00  0.00    +0.000 C 
BRANCH  14  15
ATOM     15  CG  GLU A   1       1.140  -5.151   0.000  0.00  0.00    +0.000 C 
BRANCH  15  16
ATOM     16  CD  GLU A   1       1.855  -5.563   0.000  0.00  0.00    +0.000 C 
ATOM     17  OE1 GLU A   1       2.569  -5.151   0.000  0.00  0.00    +0.000 OA
ATOM     18  OE2 GLU A   1       1.855  -6.388   0.000  0.00  0.00    +0.000 OA
ENDBRANCH  15  16
ENDBRANCH  14  15
ENDBRANCH  10  14
ENDBRANCH   9  10
ENDBRANCH   4   7
BRANCH   6  19
ATOM     19  C   UNK A   0      -3.661  -7.309   0.000  0.00  0.00    +0.000 C 
BRANCH  19  20
ATOM     20  C   UNK A   0      -4.482  -7.395   0.000  0.00  0.00    +0.000 C 
BRANCH  20  21
ATOM     21  C   UNK A   0      -4.817  -8.149   0.000  0.00  0.00    +0.000 C 
ATOM     22  C   UNK A   0      -4.332  -8.816   0.000  0.00  0.00    +0.000 C 
ATOM     23  C   UNK A   0      -4.668  -9.570   0.000  0.00  0.00    +0.000 A 
ATOM     24  C   UNK A   0      -4.183 -10.237   0.000  0.00  0.00    +0.000 A 
ATOM     25  O   UNK A   0      -3.362 -10.151   0.000  0.00  0.00    +0.000 OA
ATOM     26  N   UNK A   0      -4.518 -10.991   0.000  0.00  0.00    +0.000 NA
ATOM     27  C   UNK A   0      -5.339 -11.077   0.000  0.00  0.00    +0.000 A 
ATOM     28  N   UNK A   0      -5.824 -10.410   0.000  0.00  0.00    +0.000 NA
ATOM     29  C   UNK A   0      -5.488  -9.656   0.000  0.00  0.00    +0.000 A 
ATOM     30  N   UNK A   0      -5.973  -8.989   0.000  0.00  0.00    +0.000 NA
ATOM     31  C   UNK A   0      -5.638  -8.235   0.000  0.00  0.00    +0.000 C 
ATOM     32  N   UNK A   0      -5.675 -11.831   0.000  0.00  0.00    +0.000 NA
ENDBRANCH  20  21
ENDBRANCH  19  20
ENDBRANCH   6  19
TORSDOF 9
