REMARK  Name = 
REMARK  3 active torsions:
REMARK  status: ('A' for Active; 'I' for Inactive)
REMARK    1  A    between atoms: C_14  and  N_16
REMARK    2  A    between atoms: C_17  and  C_19
REMARK    3  A    between atoms: C_19  and  C_20
REMARK                            x       y       z     vdW  Elec       q    Type
REMARK                         _______ _______ _______ _____ _____    ______ ____
ROOT
ATOM      1  C   UNL     1      -0.971   2.545   0.000  0.00  0.00    +0.000 C 
ATOM      2  C   UNL     1      -1.775   2.199   0.000  0.00  0.00    +0.000 A 
ATOM      3  C   UNL     1      -0.142   2.156   0.000  0.00  0.00    +0.000 A 
ATOM      4  C   UNL     1      -1.864   1.307   0.000  0.00  0.00    +0.000 A 
ATOM      5  C   UNL     1      -1.452   0.710   0.000  0.00  0.00    +0.000 C 
ATOM      6  C   UNL     1      -0.100   1.246   0.000  0.00  0.00    +0.000 A 
ATOM      7  S   UNL     1      -0.502   0.689   0.000  0.00  0.00    +0.000 S 
ATOM      8  S   UNL     1      -2.534   2.495   0.000  0.00  0.00    +0.000 S 
ATOM      9  C   UNL     1      -3.083   1.880   0.000  0.00  0.00    +0.000 A 
ATOM     10  C   UNL     1      -2.667   1.167   0.000  0.00  0.00    +0.000 A 
ATOM     11  C   UNL     1       0.628   0.952   0.000  0.00  0.00    +0.000 A 
ATOM     12  C   UNL     1       1.323   1.397   0.000  0.00  0.00    +0.000 A 
ATOM     13  C   UNL     1       1.286   2.221   0.000  0.00  0.00    +0.000 A 
ATOM     14  C   UNL     1       0.553   2.600   0.000  0.00  0.00    +0.000 A 
ATOM     15  O   UNL     1      -0.971   3.370   0.000  0.00  0.00    +0.000 OA
ATOM     16  O   UNL     1      -0.837  -0.065   0.000  0.00  0.00    +0.000 OA
ATOM     17  O   UNL     1       0.212   0.276   0.000  0.00  0.00    +0.000 OA
ENDROOT
BRANCH  14  18
ATOM     18  N   UNL     1       0.553   3.425   0.000  0.00  0.00    +0.000 NA
ATOM     19  C   UNL     1       1.221   3.910   0.000  0.00  0.00    +0.000 C 
ATOM     20  O   UNL     1       1.221   4.735   0.000  0.00  0.00    +0.000 OA
BRANCH  19  21
ATOM     21  C   UNL     1       1.935   3.498   0.000  0.00  0.00    +0.000 C 
ATOM     22  C   UNL     1       1.383   2.885   0.000  0.00  0.00    +0.000 C 
ATOM     23  O   UNL     1       2.347   2.857   0.000  0.00  0.00    +0.000 OA
BRANCH  21  24
ATOM     24  C   UNL     1       2.548   4.050   0.000  0.00  0.00    +0.000 C 
ATOM     25  F   UNL     1       2.124   4.674   0.000  0.00  0.00    +0.000 F 
ATOM     26  F   UNL     1       3.154   4.623   0.000  0.00  0.00    +0.000 F 
ATOM     27  F   UNL     1       3.040   3.453   0.000  0.00  0.00    +0.000 F 
ENDBRANCH  21  24
ENDBRANCH  19  21
ENDBRANCH  14  18
TORSDOF 3
