REMARK  Name = 
REMARK  2 active torsions:
REMARK  status: ('A' for Active; 'I' for Inactive)
REMARK    1  A    between atoms: C_5  and  S_7
REMARK    2  A    between atoms: S_7  and  N_10
REMARK                            x       y       z     vdW  Elec       q    Type
REMARK                         _______ _______ _______ _____ _____    ______ ____
ROOT
ATOM      1  C   UNL     1       0.568   1.939   0.000  0.00  0.00    +0.000 C 
ATOM      2  C   UNL     1       0.568   1.114   0.000  0.00  0.00    +0.000 A 
ATOM      3  C   UNL     1       1.235   0.629   0.000  0.00  0.00    +0.000 A 
ATOM      4  C   UNL     1       0.980  -0.155   0.000  0.00  0.00    +0.000 A 
ATOM      5  C   UNL     1       0.155  -0.155   0.000  0.00  0.00    +0.000 A 
ATOM      6  O   UNL     1      -0.100   0.629   0.000  0.00  0.00    +0.000 OA
ENDROOT
BRANCH   5   7
ATOM      7  S   UNL     1      -0.330  -0.823   0.000  0.00  0.00    +0.000 S 
ATOM      8  O   UNL     1      -0.997  -0.338   0.000  0.00  0.00    +0.000 OA
ATOM      9  O   UNL     1       0.338  -1.308   0.000  0.00  0.00    +0.000 OA
BRANCH   7  10
ATOM     10  N   UNL     1      -0.815  -1.490   0.000  0.00  0.00    +0.000 NA
ATOM     11  O   UNL     1      -0.479  -2.244   0.000  0.00  0.00    +0.000 OA
ENDBRANCH   7  10
ENDBRANCH   5   7
TORSDOF 2
