REMARK  Name = 
REMARK  0 active torsions:
REMARK  status: ('A' for Active; 'I' for Inactive)
REMARK                            x       y       z     vdW  Elec       q    Type
REMARK                         _______ _______ _______ _____ _____    ______ ____
ROOT
ATOM      1  C   UNL     1      -0.837  -0.403   0.000  0.00  0.00    +0.000 A 
ATOM      2  C   UNL     1      -0.837  -1.228   0.000  0.00  0.00    +0.000 A 
ATOM      3  C   UNL     1      -0.123  -1.641   0.000  0.00  0.00    +0.000 A 
ATOM      4  C   UNL     1       0.592  -1.228   0.000  0.00  0.00    +0.000 A 
ATOM      5  C   UNL     1       0.592  -0.403   0.000  0.00  0.00    +0.000 A 
ATOM      6  C   UNL     1      -0.123   0.009   0.000  0.00  0.00    +0.000 A 
ATOM      7  C   UNL     1       1.236   0.111   0.000  0.00  0.00    +0.000 C 
ATOM      8  C   UNL     1       2.041  -0.072   0.000  0.00  0.00    +0.000 C 
ATOM      9  C   UNL     1       2.399  -0.816   0.000  0.00  0.00    +0.000 C 
ATOM     10  N   UNL     1       2.041  -1.559   0.000  0.00  0.00    +0.000 NA
ATOM     11  N   UNL     1       1.236  -1.743   0.000  0.00  0.00    +0.000 NA
ENDROOT
TORSDOF 0
