REMARK  Name = 
REMARK  5 active torsions:
REMARK  status: ('A' for Active; 'I' for Inactive)
REMARK    1  A    between atoms: C_2  and  C_7
REMARK    2  A    between atoms: N_3  and  S_9
REMARK    3  A    between atoms: S_9  and  C_12
REMARK    4  A    between atoms: C_15  and  O_18
REMARK    5  A    between atoms: O_18  and  C_21
REMARK                            x       y       z     vdW  Elec       q    Type
REMARK                         _______ _______ _______ _____ _____    ______ ____
ROOT
ATOM      1  S   UNL     1       1.094  -0.659   0.000  0.00  0.00    +0.000 S 
ATOM      2  O   UNL     1       1.094  -1.484   0.000  0.00  0.00    +0.000 OA
ATOM      3  O   UNL     1       1.094   0.166   0.000  0.00  0.00    +0.000 OA
ENDROOT
BRANCH   1   6
ATOM      4  C   UNL     1       3.156   0.055   0.000  0.00  0.00    +0.000 C 
ATOM      5  C   UNL     1       2.331   0.055   0.000  0.00  0.00    +0.000 C 
ATOM      6  N   UNL     1       1.919  -0.659   0.000  0.00  0.00    +0.000 NA
ATOM      7  C   UNL     1       2.331  -1.374   0.000  0.00  0.00    +0.000 C 
ATOM      8  C   UNL     1       3.156  -1.374   0.000  0.00  0.00    +0.000 C 
ATOM      9  S   UNL     1       3.569  -0.659   0.000  0.00  0.00    +0.000 S 
ATOM     10  C   UNL     1       3.856   0.492   0.000  0.00  0.00    +0.000 C 
ATOM     11  C   UNL     1       3.185   0.880   0.000  0.00  0.00    +0.000 C 
BRANCH   5  12
ATOM     12  C   UNL     1       1.919   0.770   0.000  0.00  0.00    +0.000 C 
ATOM     13  N   UNL     1       1.094   0.770   0.000  0.00  0.00    +0.000 NA
ATOM     14  O   UNL     1       0.681   1.484   0.000  0.00  0.00    +0.000 OA
ATOM     15  O   UNL     1       2.331   1.484   0.000  0.00  0.00    +0.000 OA
ENDBRANCH   5  12
ENDBRANCH   1   6
BRANCH   1  16
ATOM     16  C   UNL     1       0.269  -0.659   0.000  0.00  0.00    +0.000 A 
ATOM     17  C   UNL     1      -0.143  -1.374   0.000  0.00  0.00    +0.000 A 
ATOM     18  C   UNL     1      -0.969  -1.374   0.000  0.00  0.00    +0.000 A 
ATOM     19  C   UNL     1      -1.381  -0.659   0.000  0.00  0.00    +0.000 A 
ATOM     20  C   UNL     1      -0.969   0.055   0.000  0.00  0.00    +0.000 A 
ATOM     21  C   UNL     1      -0.143   0.055   0.000  0.00  0.00    +0.000 A 
BRANCH  19  22
ATOM     22  O   UNL     1      -2.206  -0.659   0.000  0.00  0.00    +0.000 OA
BRANCH  22  25
ATOM     23  C   UNL     1      -2.619   1.484   0.000  0.00  0.00    +0.000 A 
ATOM     24  C   UNL     1      -2.206   0.770   0.000  0.00  0.00    +0.000 A 
ATOM     25  C   UNL     1      -2.619   0.055   0.000  0.00  0.00    +0.000 A 
ATOM     26  C   UNL     1      -3.443   0.055   0.000  0.00  0.00    +0.000 A 
ATOM     27  C   UNL     1      -3.856   0.770   0.000  0.00  0.00    +0.000 A 
ATOM     28  N   UNL     1      -3.443   1.484   0.000  0.00  0.00    +0.000 NA
ENDBRANCH  22  25
ENDBRANCH  19  22
ENDBRANCH   1  16
TORSDOF 5
