REMARK  Name = 
REMARK  5 active torsions:
REMARK  status: ('A' for Active; 'I' for Inactive)
REMARK    1  A    between atoms: N_1  and  C_5
REMARK    2  A    between atoms: N_1  and  C_9
REMARK    3  A    between atoms: C_3  and  C_5
REMARK    4  A    between atoms: C_9  and  C_12
REMARK    5  A    between atoms: N_11  and  C_12
REMARK                            x       y       z     vdW  Elec       q    Type
REMARK                         _______ _______ _______ _____ _____    ______ ____
ROOT
ATOM      1  N   UNL     1       0.028  -0.298   0.000  0.00  0.00    +0.000 N 
ATOM      2  C   UNL     1       0.853  -0.255   0.000  0.00  0.00    +0.000 A 
ATOM      3  N   UNL     1       1.307  -0.943   0.000  0.00  0.00    +0.000 NA
ATOM      4  C   UNL     1       1.230   0.474   0.000  0.00  0.00    +0.000 A 
ATOM      5  C   UNL     1       2.132  -0.911   0.000  0.00  0.00    +0.000 A 
ATOM      6  C   UNL     1       2.054   0.520   0.000  0.00  0.00    +0.000 A 
ATOM      7  C   UNL     1       2.502  -0.171   0.000  0.00  0.00    +0.000 A 
ENDROOT
BRANCH   1   8
ATOM      8  C   UNL     1      -0.335  -1.034   0.000  0.00  0.00    +0.000 C 
BRANCH   8   9
ATOM      9  C   UNL     1      -1.156  -1.080   0.000  0.00  0.00    +0.000 A 
ATOM     10  S   UNL     1      -1.674  -0.435   0.000  0.00  0.00    +0.000 S 
ATOM     11  C   UNL     1      -2.446  -0.728   0.000  0.00  0.00    +0.000 A 
ATOM     12  C   UNL     1      -1.610  -1.767   0.000  0.00  0.00    +0.000 A 
ATOM     13  C   UNL     1      -2.407  -1.552   0.000  0.00  0.00    +0.000 A 
ENDBRANCH   8   9
ENDBRANCH   1   8
BRANCH   1  14
ATOM     14  C   UNL     1      -0.405   0.389   0.000  0.00  0.00    +0.000 C 
BRANCH  14  15
ATOM     15  C   UNL     1      -1.230   0.351   0.000  0.00  0.00    +0.000 C 
BRANCH  15  16
ATOM     16  N   UNL     1      -1.674   1.045   0.000  0.00  0.00    +0.000 NA
ATOM     17  C   UNL     1      -2.502   1.002   0.000  0.00  0.00    +0.000 C 
ATOM     18  C   UNL     1      -1.304   1.767   0.000  0.00  0.00    +0.000 C 
ENDBRANCH  15  16
ENDBRANCH  14  15
ENDBRANCH   1  14
TORSDOF 5
