REMARK  Name = 
REMARK  0 active torsions:
REMARK  status: ('A' for Active; 'I' for Inactive)
REMARK                            x       y       z     vdW  Elec       q    Type
REMARK                         _______ _______ _______ _____ _____    ______ ____
ROOT
ATOM      1  C   UNL     1       0.453  -0.511   0.000  0.00  0.00    +0.000 A 
ATOM      2  C   UNL     1       0.438   0.314   0.000  0.00  0.00    +0.000 A 
ATOM      3  N   UNL     1      -0.260  -0.948   0.000  0.00  0.00    +0.000 NA
ATOM      4  N   UNL     1      -1.003   0.264   0.000  0.00  0.00    +0.000 NA
ATOM      5  N   UNL     1       1.221   0.598   0.000  0.00  0.00    +0.000 NA
ATOM      6  C   UNL     1      -0.290   0.702   0.000  0.00  0.00    +0.000 A 
ATOM      7  C   UNL     1      -0.988  -0.561   0.000  0.00  0.00    +0.000 A 
ATOM      8  N   UNL     1       1.234  -0.744   0.000  0.00  0.00    +0.000 N 
ATOM      9  C   UNL     1       1.701  -0.065   0.000  0.00  0.00    +0.000 A 
ATOM     10  O   UNL     1      -0.305   1.526   0.000  0.00  0.00    +0.000 OA
ATOM     11  N   UNL     1      -1.701  -0.998   0.000  0.00  0.00    +0.000 NA
ATOM     12  C   UNL     1       1.518  -1.526   0.000  0.00  0.00    +0.000 C 
ENDROOT
TORSDOF 0
