REMARK  Name = 
REMARK  2 active torsions:
REMARK  status: ('A' for Active; 'I' for Inactive)
REMARK    1  A    between atoms: C_6  and  C_11
REMARK    2  A    between atoms: N_23  and  C_28
REMARK                            x       y       z     vdW  Elec       q    Type
REMARK                         _______ _______ _______ _____ _____    ______ ____
ROOT
ATOM      1  C   UNL     1       4.514   1.150   0.000  0.00  0.00    +0.000 C 
ATOM      2  O   UNL     1       4.755   0.360   0.000  0.00  0.00    +0.000 OA
ATOM      3  N   UNL     1       3.711   1.336   0.000  0.00  0.00    +0.000 N 
ATOM      4  C   UNL     1       3.147   0.734   0.000  0.00  0.00    +0.000 C 
ATOM      5  C   UNL     1       2.344   0.920   0.000  0.00  0.00    +0.000 C 
ATOM      6  C   UNL     1       2.104   1.710   0.000  0.00  0.00    +0.000 C 
ATOM      7  C   UNL     1       2.667   2.312   0.000  0.00  0.00    +0.000 C 
ATOM      8  C   UNL     1       3.471   2.126   0.000  0.00  0.00    +0.000 C 
ATOM      9  C   UNL     1       1.540   1.107   0.000  0.00  0.00    +0.000 C 
ATOM     10  C   UNL     1       0.737   1.294   0.000  0.00  0.00    +0.000 A 
ATOM     11  C   UNL     1       0.060   0.821   0.000  0.00  0.00    +0.000 A 
ATOM     12  N   UNL     1      -0.598   1.319   0.000  0.00  0.00    +0.000 NA
ATOM     13  N   UNL     1      -0.328   2.098   0.000  0.00  0.00    +0.000 N 
ATOM     14  C   UNL     1       0.496   2.083   0.000  0.00  0.00    +0.000 A 
ATOM     15  C   UNL     1       1.060   2.686   0.000  0.00  0.00    +0.000 C 
ATOM     16  O   UNL     1       0.820   3.475   0.000  0.00  0.00    +0.000 OA
ATOM     17  C   UNL     1       1.863   2.499   0.000  0.00  0.00    +0.000 C 
ENDROOT
BRANCH   1  23
ATOM     18  C   UNL     1       8.329   3.173   0.000  0.00  0.00    +0.000 C 
ATOM     19  C   UNL     1       7.540   2.933   0.000  0.00  0.00    +0.000 A 
ATOM     20  N   UNL     1       7.270   2.153   0.000  0.00  0.00    +0.000 NA
ATOM     21  C   UNL     1       6.445   2.168   0.000  0.00  0.00    +0.000 A 
ATOM     22  C   UNL     1       5.881   1.566   0.000  0.00  0.00    +0.000 A 
ATOM     23  C   UNL     1       5.078   1.752   0.000  0.00  0.00    +0.000 A 
ATOM     24  C   UNL     1       4.838   2.542   0.000  0.00  0.00    +0.000 A 
ATOM     25  C   UNL     1       5.401   3.144   0.000  0.00  0.00    +0.000 A 
ATOM     26  C   UNL     1       6.205   2.958   0.000  0.00  0.00    +0.000 A 
ATOM     27  N   UNL     1       6.881   3.430   0.000  0.00  0.00    +0.000 NA
ENDBRANCH   1  23
BRANCH  13  28
ATOM     28  C   UNL     1      -0.801   2.775   0.000  0.00  0.00    +0.000 C 
ATOM     29  C   UNL     1      -1.623   2.704   0.000  0.00  0.00    +0.000 C 
ATOM     30  C   UNL     1      -0.451   3.522   0.000  0.00  0.00    +0.000 C 
ENDBRANCH  13  28
TORSDOF 2
