REMARK  Name = 
REMARK  12 active torsions:
REMARK  status: ('A' for Active; 'I' for Inactive)
REMARK    1  A    between atoms: C_6  and  C_11
REMARK    2  A    between atoms: C_11  and  C_12
REMARK    3  A    between atoms: C_12  and  C_13
REMARK    4  A    between atoms: C_13  and  C_15
REMARK    5  A    between atoms: C_15  and  C_16
REMARK    6  A    between atoms: C_16  and  C_17
REMARK    7  A    between atoms: C_18  and  C_20
REMARK    8  A    between atoms: C_20  and  C_21
REMARK    9  A    between atoms: C_21  and  C_22
REMARK   10  A    between atoms: C_23  and  C_25
REMARK   11  A    between atoms: C_25  and  C_26
REMARK   12  A    between atoms: C_26  and  C_27
REMARK                            x       y       z     vdW  Elec       q    Type
REMARK                         _______ _______ _______ _____ _____    ______ ____
ROOT
ATOM      1  C   UNL     1       0.000  -2.475   0.000  0.00  0.00    +0.000 C 
ATOM      2  C   UNL     1      -0.825  -2.475   0.000  0.00  0.00    +0.000 C 
ATOM      3  O   UNL     1       0.825  -2.475   0.000  0.00  0.00    +0.000 OA
ENDROOT
BRANCH   1   4
ATOM      4  C   UNL     1       0.000  -1.650   0.000  0.00  0.00    +0.000 C 
BRANCH   4   5
ATOM      5  C   UNL     1       0.715  -1.238   0.000  0.00  0.00    +0.000 C 
BRANCH   5  11
ATOM      6  C   UNL     1       0.715   2.062   0.000  0.00  0.00    +0.000 C 
ATOM      7  C   UNL     1       0.715   1.238   0.000  0.00  0.00    +0.000 C 
ATOM      8  C   UNL     1       1.429   0.825   0.000  0.00  0.00    +0.000 C 
ATOM      9  C   UNL     1       1.429   0.000   0.000  0.00  0.00    +0.000 C 
ATOM     10  O   UNL     1       2.143  -0.412   0.000  0.00  0.00    +0.000 OA
ATOM     11  C   UNL     1       0.715  -0.412   0.000  0.00  0.00    +0.000 C 
ATOM     12  C   UNL     1       0.000   0.000   0.000  0.00  0.00    +0.000 C 
ATOM     13  C   UNL     1       0.000   0.825   0.000  0.00  0.00    +0.000 C 
ATOM     14  O   UNL     1      -0.715   1.238   0.000  0.00  0.00    +0.000 OA
ATOM     15  C   UNL     1      -0.715  -0.412   0.000  0.00  0.00    +0.000 C 
ATOM     16  C   UNL     1       2.143   1.238   0.000  0.00  0.00    +0.000 C 
ENDBRANCH   5  11
ENDBRANCH   4   5
ENDBRANCH   1   4
BRANCH   1  17
ATOM     17  C   UNL     1       0.000  -3.300   0.000  0.00  0.00    +0.000 C 
BRANCH  17  18
ATOM     18  C   UNL     1      -0.715  -3.712   0.000  0.00  0.00    +0.000 C 
BRANCH  18  19
ATOM     19  C   UNL     1      -0.715  -4.537   0.000  0.00  0.00    +0.000 C 
ATOM     20  C   UNL     1      -1.429  -4.950   0.000  0.00  0.00    +0.000 C 
ATOM     21  C   UNL     1      -2.143  -4.537   0.000  0.00  0.00    +0.000 C 
BRANCH  20  22
ATOM     22  C   UNL     1      -1.429  -5.775   0.000  0.00  0.00    +0.000 C 
BRANCH  22  23
ATOM     23  C   UNL     1      -2.143  -6.188   0.000  0.00  0.00    +0.000 C 
BRANCH  23  24
ATOM     24  C   UNL     1      -2.143  -7.013   0.000  0.00  0.00    +0.000 C 
ATOM     25  C   UNL     1      -2.858  -7.425   0.000  0.00  0.00    +0.000 C 
ATOM     26  C   UNL     1      -3.572  -7.013   0.000  0.00  0.00    +0.000 C 
BRANCH  25  27
ATOM     27  C   UNL     1      -2.858  -8.250   0.000  0.00  0.00    +0.000 C 
BRANCH  27  28
ATOM     28  C   UNL     1      -3.572  -8.662   0.000  0.00  0.00    +0.000 C 
BRANCH  28  29
ATOM     29  C   UNL     1      -3.572  -9.488   0.000  0.00  0.00    +0.000 C 
ATOM     30  C   UNL     1      -4.287  -9.900   0.000  0.00  0.00    +0.000 C 
ATOM     31  C   UNL     1      -4.287 -10.725   0.000  0.00  0.00    +0.000 C 
ATOM     32  C   UNL     1      -5.001  -9.488   0.000  0.00  0.00    +0.000 C 
ENDBRANCH  28  29
ENDBRANCH  27  28
ENDBRANCH  25  27
ENDBRANCH  23  24
ENDBRANCH  22  23
ENDBRANCH  20  22
ENDBRANCH  18  19
ENDBRANCH  17  18
ENDBRANCH   1  17
TORSDOF 12
