REMARK  Name = 
REMARK  4 active torsions:
REMARK  status: ('A' for Active; 'I' for Inactive)
REMARK    1  A    between atoms: C_6  and  C_10
REMARK    2  A    between atoms: C_6  and  C_11
REMARK    3  A    between atoms: C_9  and  N_14
REMARK    4  A    between atoms: C_10  and  N_14
REMARK                            x       y       z     vdW  Elec       q    Type
REMARK                         _______ _______ _______ _____ _____    ______ ____
ROOT
ATOM      1  C   UNL     1      -0.437   0.412   0.000  0.00  0.00    +0.000 A 
ATOM      2  C   UNL     1      -1.151   0.825   0.000  0.00  0.00    +0.000 A 
ATOM      3  C   UNL     1      -1.151  -0.825   0.000  0.00  0.00    +0.000 A 
ATOM      4  C   UNL     1      -3.135   0.000   0.000  0.00  0.00    +0.000 C 
ATOM      5  C   UNL     1      -0.437  -0.412   0.000  0.00  0.00    +0.000 A 
ATOM      6  C   UNL     1      -1.866   0.412   0.000  0.00  0.00    +0.000 A 
ATOM      7  C   UNL     1      -1.866  -0.412   0.000  0.00  0.00    +0.000 A 
ATOM      8  O   UNL     1      -2.650   0.667   0.000  0.00  0.00    +0.000 OA
ATOM      9  O   UNL     1      -2.650  -0.667   0.000  0.00  0.00    +0.000 OA
ENDROOT
BRANCH   5  10
ATOM     10  C   UNL     1       0.278  -0.825   0.000  0.00  0.00    +0.000 C 
BRANCH  10  12
ATOM     11  C   UNL     1       0.992   0.412   0.000  0.00  0.00    +0.000 C 
ATOM     12  C   UNL     1       0.992  -0.412   0.000  0.00  0.00    +0.000 C 
BRANCH  12  13
ATOM     13  N   UNL     1       1.706  -0.825   0.000  0.00  0.00    +0.000 NA
BRANCH  13  16
ATOM     14  C   UNL     1       3.135  -0.825   0.000  0.00  0.00    +0.000 C 
ATOM     15  C   UNL     1       2.421   0.412   0.000  0.00  0.00    +0.000 C 
ATOM     16  C   UNL     1       2.421  -0.412   0.000  0.00  0.00    +0.000 C 
ENDBRANCH  13  16
ENDBRANCH  12  13
ENDBRANCH  10  12
ENDBRANCH   5  10
TORSDOF 4
