REMARK  Name = 
REMARK  10 active torsions:
REMARK  status: ('A' for Active; 'I' for Inactive)
REMARK    1  A    between atoms: CA_2  and  CB_3
REMARK    2  A    between atoms: CA_2  and  C_10
REMARK    3  A    between atoms: CB_3  and  CG_4
REMARK    4  A    between atoms: N_12  and  CA_13
REMARK    5  A    between atoms: CA_13  and  CB_14
REMARK    6  A    between atoms: CA_13  and  C_19
REMARK    7  A    between atoms: CB_14  and  CG_15
REMARK    8  A    between atoms: CG_15  and  CD_16
REMARK    9  A    between atoms: N_21  and  CA_22
REMARK   10  A    between atoms: CA_22  and  C_23
REMARK                            x       y       z     vdW  Elec       q    Type
REMARK                         _______ _______ _______ _____ _____    ______ ____
ROOT
ATOM      1  CA  GLU A   2       3.572  -1.238   0.000  0.00  0.00    +0.000 C 
ENDROOT
BRANCH   1   2
ATOM      2  C   GLU A   2       4.287  -0.825   0.000  0.00  0.00    +0.000 C 
ATOM      3  O   GLU A   2       4.287   0.000   0.000  0.00  0.00    +0.000 OA
ATOM      4  N   GLY A   3       5.001  -1.238   0.000  0.00  0.00    +0.000 NA
BRANCH   4   5
ATOM      5  CA  GLY A   3       5.716  -0.825   0.000  0.00  0.00    +0.000 C 
BRANCH   5   6
ATOM      6  C   GLY A   3       6.430  -1.238   0.000  0.00  0.00    +0.000 C 
ATOM      7  O   GLY A   3       7.145  -0.825   0.000  0.00  0.00    +0.000 OA
ATOM      8  OXT GLY A   3       6.430  -2.062   0.000  0.00  0.00    +0.000 OA
ENDBRANCH   5   6
ENDBRANCH   4   5
ENDBRANCH   1   2
BRANCH   1  11
ATOM      9  C   PHE A   1       2.143  -1.238   0.000  0.00  0.00    +0.000 C 
ATOM     10  O   PHE A   1       2.143  -2.062   0.000  0.00  0.00    +0.000 OA
ATOM     11  N   GLU A   2       2.858  -0.825   0.000  0.00  0.00    +0.000 NA
BRANCH   9  13
ATOM     12  N   PHE A   1       1.429   0.000   0.000  0.00  0.00    +0.000 NA
ATOM     13  CA  PHE A   1       1.429  -0.825   0.000  0.00  0.00    +0.000 C 
BRANCH  13  14
ATOM     14  CB  PHE A   1       0.715  -1.238   0.000  0.00  0.00    +0.000 C 
BRANCH  14  15
ATOM     15  CG  PHE A   1       0.000  -0.825   0.000  0.00  0.00    +0.000 C 
ATOM     16  CD1 PHE A   1      -0.715  -1.238   0.000  0.00  0.00    +0.000 C 
ATOM     17  CE1 PHE A   1      -1.429  -0.825   0.000  0.00  0.00    +0.000 C 
ATOM     18  CZ  PHE A   1      -1.429   0.000   0.000  0.00  0.00    +0.000 C 
ATOM     19  CE2 PHE A   1      -0.715   0.412   0.000  0.00  0.00    +0.000 C 
ATOM     20  CD2 PHE A   1       0.000   0.000   0.000  0.00  0.00    +0.000 C 
ENDBRANCH  14  15
ENDBRANCH  13  14
ENDBRANCH   9  13
ENDBRANCH   1  11
BRANCH   1  21
ATOM     21  CB  GLU A   2       3.572  -2.062   0.000  0.00  0.00    +0.000 C 
BRANCH  21  22
ATOM     22  CG  GLU A   2       4.287  -2.475   0.000  0.00  0.00    +0.000 C 
BRANCH  22  23
ATOM     23  CD  GLU A   2       4.287  -3.300   0.000  0.00  0.00    +0.000 C 
ATOM     24  OE1 GLU A   2       3.572  -3.712   0.000  0.00  0.00    +0.000 OA
ATOM     25  OE2 GLU A   2       5.001  -3.712   0.000  0.00  0.00    +0.000 OA
ENDBRANCH  22  23
ENDBRANCH  21  22
ENDBRANCH   1  21
TORSDOF 10
