REMARK  Name = 
REMARK  5 active torsions:
REMARK  status: ('A' for Active; 'I' for Inactive)
REMARK    1  A    between atoms: C_2  and  N_3
REMARK    2  A    between atoms: C_2  and  C_14
REMARK    3  A    between atoms: C_4  and  C_6
REMARK    4  A    between atoms: C_17  and  C_19
REMARK    5  A    between atoms: C_27  and  C_29
REMARK                            x       y       z     vdW  Elec       q    Type
REMARK                         _______ _______ _______ _____ _____    ______ ____
ROOT
ATOM      1  C   UNL     1       1.429  -2.475   0.000  0.00  0.00    +0.000 A 
ATOM      2  N   UNL     1       2.096  -2.960   0.000  0.00  0.00    +0.000 NA
ATOM      3  C   UNL     1       1.841  -3.744   0.000  0.00  0.00    +0.000 A 
ATOM      4  C   UNL     1       1.016  -3.744   0.000  0.00  0.00    +0.000 A 
ATOM      5  S   UNL     1       0.761  -2.960   0.000  0.00  0.00    +0.000 S 
ENDROOT
BRANCH   4   6
ATOM      6  C   UNL     1       0.531  -4.412   0.000  0.00  0.00    +0.000 C 
ATOM      7  O   UNL     1      -0.289  -4.326   0.000  0.00  0.00    +0.000 OA
ATOM      8  N   UNL     1       0.867  -5.166   0.000  0.00  0.00    +0.000 NA
ATOM      9  C   UNL     1       0.382  -5.833   0.000  0.00  0.00    +0.000 A 
ATOM     10  N   UNL     1       0.718  -6.587   0.000  0.00  0.00    +0.000 NA
ATOM     11  C   UNL     1       0.233  -7.254   0.000  0.00  0.00    +0.000 A 
ATOM     12  C   UNL     1      -0.588  -7.168   0.000  0.00  0.00    +0.000 A 
ATOM     13 CL   UNL     1      -1.073  -7.835   0.000  0.00  0.00    +0.000 Cl
ATOM     14  C   UNL     1      -0.923  -6.414   0.000  0.00  0.00    +0.000 A 
ATOM     15  C   UNL     1      -0.438  -5.747   0.000  0.00  0.00    +0.000 A 
BRANCH  14  16
ATOM     16  C   UNL     1      -1.744  -6.328   0.000  0.00  0.00    +0.000 C 
ATOM     17  F   UNL     1      -2.564  -6.242   0.000  0.00  0.00    +0.000 F 
ATOM     18  F   UNL     1      -1.657  -5.508   0.000  0.00  0.00    +0.000 F 
ATOM     19  F   UNL     1      -1.830  -7.149   0.000  0.00  0.00    +0.000 F 
ENDBRANCH  14  16
ENDBRANCH   4   6
BRANCH   1  21
ATOM     20  C   UNL     1       0.715  -1.238   0.000  0.00  0.00    +0.000 C 
ATOM     21  C   UNL     1       1.429  -1.650   0.000  0.00  0.00    +0.000 C 
BRANCH  21  22
ATOM     22  N   UNL     1       2.143  -1.238   0.000  0.00  0.00    +0.000 NA
ATOM     23  C   UNL     1       2.143  -0.412   0.000  0.00  0.00    +0.000 C 
ATOM     24  O   UNL     1       1.429   0.000   0.000  0.00  0.00    +0.000 OA
BRANCH  23  25
ATOM     25  C   UNL     1       2.858   0.000   0.000  0.00  0.00    +0.000 A 
ATOM     26  C   UNL     1       2.858   0.825   0.000  0.00  0.00    +0.000 A 
ATOM     27 CL   UNL     1       2.143   1.238   0.000  0.00  0.00    +0.000 Cl
ATOM     28  C   UNL     1       3.572   1.238   0.000  0.00  0.00    +0.000 A 
ATOM     29  N   UNL     1       3.572   2.062   0.000  0.00  0.00    +0.000 NA
ATOM     30  N   UNL     1       4.287   0.825   0.000  0.00  0.00    +0.000 NA
ATOM     31  C   UNL     1       4.287   0.000   0.000  0.00  0.00    +0.000 A 
ATOM     32  N   UNL     1       3.572  -0.412   0.000  0.00  0.00    +0.000 NA
ENDBRANCH  23  25
ENDBRANCH  21  22
ENDBRANCH   1  21
TORSDOF 5
