REMARK  Name = 
REMARK  41 active torsions:
REMARK  status: ('A' for Active; 'I' for Inactive)
REMARK    1  A    between atoms: C_3  and  C_34
REMARK    2  A    between atoms: C_5  and  C_9
REMARK    3  A    between atoms: C_8  and  CA_19
REMARK    4  A    between atoms: C_10  and  C_17
REMARK    5  A    between atoms: C_11  and  CA_31
REMARK    6  A    between atoms: C_12  and  C_32
REMARK    7  A    between atoms: C_13  and  C_29
REMARK    8  A    between atoms: C_14  and  CA_30
REMARK    9  A    between atoms: C_15  and  C_28
REMARK   10  A    between atoms: C_16  and  CA_35
REMARK   11  A    between atoms: N_18  and  CA_19
REMARK   12  A    between atoms: CA_19  and  C_82
REMARK   13  A    between atoms: N_20  and  C_28
REMARK   14  A    between atoms: N_21  and  C_29
REMARK   15  A    between atoms: N_22  and  CA_31
REMARK   16  A    between atoms: N_23  and  C_32
REMARK   17  A    between atoms: N_24  and  CA_30
REMARK   18  A    between atoms: N_25  and  C_34
REMARK   19  A    between atoms: N_27  and  C_40
REMARK   20  A    between atoms: C_28  and  C_58
REMARK   21  A    between atoms: C_29  and  C_57
REMARK   22  A    between atoms: CA_30  and  C_56
REMARK   23  A    between atoms: CA_31  and  C_60
REMARK   24  A    between atoms: C_32  and  C_64
REMARK   25  A    between atoms: C_34  and  C_99
REMARK   26  A    between atoms: CA_35  and  N_37
REMARK   27  A    between atoms: CA_35  and  C_45
REMARK   28  A    between atoms: C_36  and  C_40
REMARK   29  A    between atoms: N_38  and  C_68
REMARK   30  A    between atoms: N_41  and  C_73
REMARK   31  A    between atoms: C_45  and  C_59
REMARK   32  A    between atoms: C_56  and  C_76
REMARK   33  A    between atoms: C_57  and  C_75
REMARK   34  A    between atoms: C_58  and  C_74
REMARK   35  A    between atoms: C_60  and  C_79
REMARK   36  A    between atoms: C_64  and  C_100
REMARK   37  A    between atoms: N_80  and  C_103
REMARK   38  A    between atoms: N_80  and  C_106
REMARK   39  A    between atoms: C_99  and  C_109
REMARK   40  A    between atoms: C_106  and  C_110
REMARK   41  A    between atoms: C_109  and  C_110
REMARK                            x       y       z     vdW  Elec       q    Type
REMARK                         _______ _______ _______ _____ _____    ______ ____
ROOT
ATOM      1  C   UNL     1      -0.687  -0.881   0.000  0.00  0.00    +0.000 C 
ENDROOT
BRANCH   1   3
ATOM      2  C   UNL     1      -2.125  -0.881   0.000  0.00  0.00    +0.000 C 
ATOM      3  N   UNL     1      -1.400  -1.302   0.000  0.00  0.00    +0.000 NA
ATOM      4  O   UNL     1      -2.125  -0.056   0.000  0.00  0.00    +0.000 OA
BRANCH   2   5
ATOM      5  CA  UNL     1      -2.837  -1.302   0.000  0.00  0.00    +0.000 C 
BRANCH   5   7
ATOM      6  C   UNL     1      -4.274  -1.294   0.000  0.00  0.00    +0.000 C 
ATOM      7  N   UNL     1      -3.549  -0.881   0.000  0.00  0.00    +0.000 NA
ATOM      8  O   UNL     1      -4.274  -2.127   0.000  0.00  0.00    +0.000 OA
BRANCH   6   9
ATOM      9  CA  UNL     1      -4.991  -0.881   0.000  0.00  0.00    +0.000 C 
BRANCH   9  11
ATOM     10  C   UNL     1      -6.428  -0.881   0.000  0.00  0.00    +0.000 C 
ATOM     11  N   UNL     1      -5.712  -1.294   0.000  0.00  0.00    +0.000 NA
ATOM     12  O   UNL     1      -6.428  -0.052   0.000  0.00  0.00    +0.000 OA
BRANCH  10  13
ATOM     13  CA  UNL     1      -7.149  -1.294   0.000  0.00  0.00    +0.000 C 
BRANCH  13  15
ATOM     14  C   UNL     1      -8.586  -1.294   0.000  0.00  0.00    +0.000 C 
ATOM     15  N   UNL     1      -7.866  -0.881   0.000  0.00  0.00    +0.000 NA
ATOM     16  O   UNL     1      -8.586  -2.127   0.000  0.00  0.00    +0.000 OA
BRANCH  14  17
ATOM     17  CA  UNL     1      -9.299  -0.881   0.000  0.00  0.00    +0.000 C 
BRANCH  17  18
ATOM     18  N   UNL     1     -10.015  -1.294   0.000  0.00  0.00    +0.000 NA
ATOM     19  C   UNL     1     -10.736  -0.877   0.000  0.00  0.00    +0.000 C 
ATOM     20  O   UNL     1     -10.736  -0.044   0.000  0.00  0.00    +0.000 OA
ATOM     21  C   UNL     1     -11.461  -1.289   0.000  0.00  0.00    +0.000 C 
ENDBRANCH  17  18
BRANCH  17  22
ATOM     22  C   UNL     1      -9.299  -0.052   0.000  0.00  0.00    +0.000 C 
BRANCH  22  24
ATOM     23  C   UNL     1      -8.911   2.093   0.000  0.00  0.00    +0.000 A 
ATOM     24  C   UNL     1      -8.890   0.669   0.000  0.00  0.00    +0.000 A 
ATOM     25  C   UNL     1      -9.311   1.381   0.000  0.00  0.00    +0.000 A 
ATOM     26  C   UNL     1      -8.078   2.106   0.000  0.00  0.00    +0.000 A 
ATOM     27  C   UNL     1      -7.661   1.398   0.000  0.00  0.00    +0.000 A 
ATOM     28  C   UNL     1      -8.066   0.681   0.000  0.00  0.00    +0.000 A 
ATOM     29  C   UNL     1      -9.336   2.806   0.000  0.00  0.00    +0.000 A 
ATOM     30  C   UNL     1      -7.674   2.831   0.000  0.00  0.00    +0.000 A 
ATOM     31  C   UNL     1      -8.936   3.531   0.000  0.00  0.00    +0.000 A 
ATOM     32  C   UNL     1      -8.099   3.543   0.000  0.00  0.00    +0.000 A 
ENDBRANCH  22  24
ENDBRANCH  17  22
ENDBRANCH  14  17
ENDBRANCH  13  15
BRANCH  13  33
ATOM     33  C   UNL     1      -7.149  -2.127   0.000  0.00  0.00    +0.000 C 
BRANCH  33  34
ATOM     34  C   UNL     1      -6.936  -2.927   0.000  0.00  0.00    +0.000 A 
ATOM     35  C   UNL     1      -6.511  -4.518   0.000  0.00  0.00    +0.000 A 
ATOM     36 CL   UNL     1      -6.299  -5.318   0.000  0.00  0.00    +0.000 Cl
ATOM     37  C   UNL     1      -7.524  -3.506   0.000  0.00  0.00    +0.000 A 
ATOM     38  C   UNL     1      -6.141  -3.131   0.000  0.00  0.00    +0.000 A 
ATOM     39  C   UNL     1      -5.924  -3.931   0.000  0.00  0.00    +0.000 A 
ATOM     40  C   UNL     1      -7.311  -4.301   0.000  0.00  0.00    +0.000 A 
ENDBRANCH  33  34
ENDBRANCH  13  33
ENDBRANCH  10  13
ENDBRANCH   9  11
BRANCH   9  41
ATOM     41  C   UNL     1      -4.991  -0.052   0.000  0.00  0.00    +0.000 C 
BRANCH  41  43
ATOM     42  N   UNL     1      -4.604   2.085   0.000  0.00  0.00    +0.000 NA
ATOM     43  C   UNL     1      -4.587   0.669   0.000  0.00  0.00    +0.000 A 
ATOM     44  C   UNL     1      -5.003   1.369   0.000  0.00  0.00    +0.000 A 
ATOM     45  C   UNL     1      -3.774   2.098   0.000  0.00  0.00    +0.000 A 
ATOM     46  C   UNL     1      -3.762   0.673   0.000  0.00  0.00    +0.000 A 
ATOM     47  C   UNL     1      -3.362   1.393   0.000  0.00  0.00    +0.000 A 
ENDBRANCH  41  43
ENDBRANCH   9  41
ENDBRANCH   6   9
ENDBRANCH   5   7
BRANCH   5  48
ATOM     48  C   UNL     1      -2.837  -2.131   0.000  0.00  0.00    +0.000 C 
ATOM     49  O   UNL     1      -2.116  -2.543   0.000  0.00  0.00    +0.000 OA
ENDBRANCH   5  48
ENDBRANCH   2   5
ENDBRANCH   1   3
BRANCH   1  50
ATOM     50  C   UNL     1       0.033  -1.302   0.000  0.00  0.00    +0.000 C 
ATOM     51  N   UNL     1       0.750  -0.889   0.000  0.00  0.00    +0.000 NA
ATOM     52  O   UNL     1       0.033  -2.131   0.000  0.00  0.00    +0.000 OA
BRANCH  51  53
ATOM     53  C   UNL     1       1.462  -1.302   0.000  0.00  0.00    +0.000 C 
BRANCH  53  54
ATOM     54  C   UNL     1       2.175  -0.889   0.000  0.00  0.00    +0.000 C 
ATOM     55  N   UNL     1       2.895  -1.302   0.000  0.00  0.00    +0.000 NA
ATOM     56  O   UNL     1       2.175  -0.056   0.000  0.00  0.00    +0.000 OA
BRANCH  55  57
ATOM     57  C   UNL     1       3.608  -0.889   0.000  0.00  0.00    +0.000 C 
BRANCH  57  58
ATOM     58  C   UNL     1       4.320  -1.302   0.000  0.00  0.00    +0.000 C 
ATOM     59  N   UNL     1       5.037  -0.889   0.000  0.00  0.00    +0.000 NA
ATOM     60  O   UNL     1       4.320  -2.127   0.000  0.00  0.00    +0.000 OA
BRANCH  59  61
ATOM     61  C   UNL     1       5.749  -1.302   0.000  0.00  0.00    +0.000 C 
BRANCH  61  63
ATOM     62  N   UNL     1       7.174  -1.294   0.000  0.00  0.00    +0.000 N 
ATOM     63  C   UNL     1       6.462  -0.889   0.000  0.00  0.00    +0.000 C 
ATOM     64  C   UNL     1       7.895  -0.881   0.000  0.00  0.00    +0.000 C 
ATOM     65  O   UNL     1       6.462  -0.056   0.000  0.00  0.00    +0.000 OA
ATOM     66  C   UNL     1       7.174  -0.469   0.000  0.00  0.00    +0.000 C 
ATOM     67  C   UNL     1       7.895  -0.056   0.000  0.00  0.00    +0.000 C 
ATOM     68  C   UNL     1       7.386   0.331   0.000  0.00  0.00    +0.000 C 
BRANCH  64  69
ATOM     69  C   UNL     1       8.607  -1.294   0.000  0.00  0.00    +0.000 C 
ATOM     70  N   UNL     1       9.319  -0.889   0.000  0.00  0.00    +0.000 NA
ATOM     71  O   UNL     1       8.607  -2.118   0.000  0.00  0.00    +0.000 OA
BRANCH  70  72
ATOM     72  C   UNL     1      10.036  -1.302   0.000  0.00  0.00    +0.000 C 
ATOM     73  C   UNL     1      10.036  -2.127   0.000  0.00  0.00    +0.000 C 
BRANCH  72  74
ATOM     74  C   UNL     1      10.748  -0.889   0.000  0.00  0.00    +0.000 C 
ATOM     75  O   UNL     1      10.748  -0.056   0.000  0.00  0.00    +0.000 OA
ATOM     76  N   UNL     1      11.461  -1.294   0.000  0.00  0.00    +0.000 NA
ENDBRANCH  72  74
ENDBRANCH  70  72
ENDBRANCH  64  69
ENDBRANCH  61  63
BRANCH  61  77
ATOM     77  C   UNL     1       5.749  -2.127   0.000  0.00  0.00    +0.000 C 
BRANCH  77  78
ATOM     78  C   UNL     1       6.462  -2.539   0.000  0.00  0.00    +0.000 C 
BRANCH  78  79
ATOM     79  C   UNL     1       6.462  -3.364   0.000  0.00  0.00    +0.000 C 
BRANCH  79  80
ATOM     80  C   UNL     1       7.174  -3.776   0.000  0.00  0.00    +0.000 C 
BRANCH  80  81
ATOM     81  N   UNL     1       7.174  -4.601   0.000  0.00  0.00    +0.000 NA
BRANCH  81  82
ATOM     82  C   UNL     1       6.462  -5.014   0.000  0.00  0.00    +0.000 C 
ATOM     83  C   UNL     1       6.462  -5.839   0.000  0.00  0.00    +0.000 C 
ATOM     84  C   UNL     1       5.749  -4.601   0.000  0.00  0.00    +0.000 C 
ENDBRANCH  81  82
ENDBRANCH  80  81
ENDBRANCH  79  80
ENDBRANCH  78  79
ENDBRANCH  77  78
ENDBRANCH  61  77
ENDBRANCH  59  61
ENDBRANCH  57  58
BRANCH  57  85
ATOM     85  C   UNL     1       3.608  -0.056   0.000  0.00  0.00    +0.000 C 
BRANCH  85  86
ATOM     86  C   UNL     1       4.012   0.656   0.000  0.00  0.00    +0.000 C 
ATOM     87  C   UNL     1       4.837   0.660   0.000  0.00  0.00    +0.000 C 
ATOM     88  C   UNL     1       3.595   1.369   0.000  0.00  0.00    +0.000 C 
ENDBRANCH  85  86
ENDBRANCH  57  85
ENDBRANCH  55  57
ENDBRANCH  53  54
BRANCH  53  89
ATOM     89  C   UNL     1       1.462  -2.127   0.000  0.00  0.00    +0.000 C 
BRANCH  89  91
ATOM     90  C   UNL     1       2.675  -4.256   0.000  0.00  0.00    +0.000 A 
ATOM     91  C   UNL     1       1.875  -2.839   0.000  0.00  0.00    +0.000 A 
ATOM     92  C   UNL     1       1.858  -4.256   0.000  0.00  0.00    +0.000 A 
ATOM     93  C   UNL     1       3.095  -3.551   0.000  0.00  0.00    +0.000 A 
ATOM     94  C   UNL     1       2.687  -2.839   0.000  0.00  0.00    +0.000 A 
ATOM     95  C   UNL     1       1.450  -3.543   0.000  0.00  0.00    +0.000 A 
BRANCH  90  97
ATOM     96  C   UNL     1       2.670  -5.689   0.000  0.00  0.00    +0.000 C 
ATOM     97  N   UNL     1       3.087  -4.976   0.000  0.00  0.00    +0.000 NA
ATOM     98  O   UNL     1       1.845  -5.680   0.000  0.00  0.00    +0.000 OA
ATOM     99  N   UNL     1       3.075  -6.405   0.000  0.00  0.00    +0.000 NA
ENDBRANCH  90  97
ENDBRANCH  89  91
ENDBRANCH  53  89
ENDBRANCH  51  53
ENDBRANCH   1  50
BRANCH   1 100
ATOM    100  C   UNL     1      -0.687  -0.056   0.000  0.00  0.00    +0.000 C 
BRANCH 100 102
ATOM    101  C   UNL     1       0.537   2.106   0.000  0.00  0.00    +0.000 A 
ATOM    102  C   UNL     1      -0.275   0.669   0.000  0.00  0.00    +0.000 A 
ATOM    103  C   UNL     1      -0.292   2.093   0.000  0.00  0.00    +0.000 A 
ATOM    104  C   UNL     1       0.958   1.393   0.000  0.00  0.00    +0.000 A 
ATOM    105  C   UNL     1       0.550   0.673   0.000  0.00  0.00    +0.000 A 
ATOM    106  C   UNL     1      -0.700   1.373   0.000  0.00  0.00    +0.000 A 
BRANCH 101 108
ATOM    107  C   UNL     1       0.525   3.535   0.000  0.00  0.00    +0.000 C 
ATOM    108  N   UNL     1       0.946   2.822   0.000  0.00  0.00    +0.000 NA
ATOM    109  O   UNL     1      -0.304   3.556   0.000  0.00  0.00    +0.000 OA
BRANCH 107 114
ATOM    110  N   UNL     1       1.808   5.668   0.000  0.00  0.00    +0.000 NA
ATOM    111  C   UNL     1       0.975   5.680   0.000  0.00  0.00    +0.000 C 
ATOM    112  N   UNL     1       0.550   4.968   0.000  0.00  0.00    +0.000 NA
ATOM    113  C   UNL     1       2.208   4.943   0.000  0.00  0.00    +0.000 C 
ATOM    114  C   UNL     1       0.950   4.247   0.000  0.00  0.00    +0.000 C 
ATOM    115  C   UNL     1       1.775   4.231   0.000  0.00  0.00    +0.000 C 
ATOM    116  O   UNL     1       0.575   6.405   0.000  0.00  0.00    +0.000 OA
ATOM    117  O   UNL     1       3.037   4.922   0.000  0.00  0.00    +0.000 OA
ENDBRANCH 107 114
ENDBRANCH 101 108
ENDBRANCH 100 102
ENDBRANCH   1 100
TORSDOF 41
