REMARK  Name = 
REMARK  61 active torsions:
REMARK  status: ('A' for Active; 'I' for Inactive)
REMARK    1  A    between atoms: C_1  and  C_2
REMARK    2  A    between atoms: C_1  and  C_19
REMARK    3  A    between atoms: C_2  and  N_4
REMARK    4  A    between atoms: N_4  and  C_5
REMARK    5  A    between atoms: N_4  and  C_7
REMARK    6  A    between atoms: C_5  and  C_6
REMARK    7  A    between atoms: C_6  and  C_11
REMARK    8  A    between atoms: C_7  and  C_8
REMARK    9  A    between atoms: C_8  and  C_9
REMARK   10  A    between atoms: C_28  and  C_29
REMARK   11  A    between atoms: O_37  and  C_58
REMARK   12  A    between atoms: C_60  and  C_61
REMARK   13  A    between atoms: C_60  and  C_78
REMARK   14  A    between atoms: C_61  and  N_63
REMARK   15  A    between atoms: N_63  and  C_64
REMARK   16  A    between atoms: N_63  and  C_66
REMARK   17  A    between atoms: C_64  and  C_65
REMARK   18  A    between atoms: C_65  and  C_70
REMARK   19  A    between atoms: C_66  and  C_67
REMARK   20  A    between atoms: C_67  and  C_68
REMARK   21  A    between atoms: C_87  and  C_88
REMARK   22  A    between atoms: C_95  and  C_96
REMARK   23  A    between atoms: C_95  and  C_113
REMARK   24  A    between atoms: C_96  and  N_98
REMARK   25  A    between atoms: N_98  and  C_99
REMARK   26  A    between atoms: N_98  and  C_101
REMARK   27  A    between atoms: C_99  and  C_100
REMARK   28  A    between atoms: C_100  and  C_105
REMARK   29  A    between atoms: C_101  and  C_102
REMARK   30  A    between atoms: C_102  and  C_103
REMARK   31  A    between atoms: C_122  and  C_123
REMARK   32  A    between atoms: C_130  and  C_131
REMARK   33  A    between atoms: C_130  and  C_148
REMARK   34  A    between atoms: C_131  and  N_133
REMARK   35  A    between atoms: N_133  and  C_134
REMARK   36  A    between atoms: N_133  and  C_136
REMARK   37  A    between atoms: C_134  and  C_135
REMARK   38  A    between atoms: C_135  and  C_140
REMARK   39  A    between atoms: C_136  and  C_137
REMARK   40  A    between atoms: C_137  and  C_138
REMARK   41  A    between atoms: C_157  and  C_158
REMARK   42  A    between atoms: C_165  and  C_166
REMARK   43  A    between atoms: C_165  and  C_183
REMARK   44  A    between atoms: C_166  and  N_168
REMARK   45  A    between atoms: N_168  and  C_169
REMARK   46  A    between atoms: N_168  and  C_171
REMARK   47  A    between atoms: C_169  and  C_170
REMARK   48  A    between atoms: C_170  and  C_175
REMARK   49  A    between atoms: C_171  and  C_172
REMARK   50  A    between atoms: C_172  and  C_173
REMARK   51  A    between atoms: C_192  and  C_193
REMARK   52  A    between atoms: C_200  and  C_201
REMARK   53  A    between atoms: C_200  and  C_218
REMARK   54  A    between atoms: C_201  and  N_203
REMARK   55  A    between atoms: N_203  and  C_204
REMARK   56  A    between atoms: N_203  and  C_206
REMARK   57  A    between atoms: C_204  and  C_205
REMARK   58  A    between atoms: C_205  and  C_210
REMARK   59  A    between atoms: C_206  and  C_207
REMARK   60  A    between atoms: C_207  and  C_208
REMARK   61  A    between atoms: C_227  and  C_228
REMARK                            x       y       z     vdW  Elec       q    Type
REMARK                         _______ _______ _______ _____ _____    ______ ____
ROOT
ATOM      1  C   UNL     1      -1.803  -0.157   0.000  0.00  0.00    +0.000 C 
ATOM      2  C   UNL     1      -2.588  -1.230   0.000  0.00  0.00    +0.000 A 
ATOM      3  C   UNL     1      -2.588  -0.407   0.000  0.00  0.00    +0.000 A 
ATOM      4  C   UNL     1      -3.308   0.009   0.000  0.00  0.00    +0.000 A 
ATOM      5  C   UNL     1      -4.029  -0.413   0.000  0.00  0.00    +0.000 A 
ATOM      6  C   UNL     1      -4.029  -1.231   0.000  0.00  0.00    +0.000 A 
ATOM      7  C   UNL     1      -3.318  -1.648   0.000  0.00  0.00    +0.000 A 
ATOM      8  C   UNL     1      -1.317  -0.817   0.000  0.00  0.00    +0.000 A 
ATOM      9  C   UNL     1      -1.801  -1.489   0.000  0.00  0.00    +0.000 A 
ATOM     10  C   UNL     1      -1.456  -2.244   0.000  0.00  0.00    +0.000 A 
ATOM     11  C   UNL     1      -0.632  -2.327   0.000  0.00  0.00    +0.000 A 
ATOM     12  C   UNL     1      -0.152  -1.658   0.000  0.00  0.00    +0.000 A 
ATOM     13  C   UNL     1      -0.488  -0.899   0.000  0.00  0.00    +0.000 A 
ATOM     14 CL   UNL     1       0.672  -1.749   0.000  0.00  0.00    +0.000 Cl
ATOM     15 CL   UNL     1      -4.753  -0.004   0.000  0.00  0.00    +0.000 Cl
ATOM     16  C   UNL     1      -1.538   0.638   0.000  0.00  0.00    +0.000 C 
ENDROOT
BRANCH  16  17
ATOM     17  C   UNL     1      -2.089   1.261   0.000  0.00  0.00    +0.000 A 
ATOM     18  C   UNL     1      -1.827   2.043   0.000  0.00  0.00    +0.000 A 
ATOM     19  C   UNL     1      -2.374   2.656   0.000  0.00  0.00    +0.000 A 
ATOM     20  C   UNL     1      -3.186   2.496   0.000  0.00  0.00    +0.000 A 
ATOM     21  C   UNL     1      -3.446   1.713   0.000  0.00  0.00    +0.000 A 
ATOM     22  C   UNL     1      -2.900   1.095   0.000  0.00  0.00    +0.000 A 
ATOM     23 CL   UNL     1      -3.734   3.111   0.000  0.00  0.00    +0.000 Cl
ENDBRANCH  16  17
BRANCH   7  24
ATOM     24  C   UNL     1      -3.318  -2.299   0.000  0.00  0.00    +0.000 C 
ATOM     25  O   UNL     1      -2.608  -2.708   0.000  0.00  0.00    +0.000 OA
BRANCH  24  26
ATOM     26  C   UNL     1      -4.023  -2.710   0.000  0.00  0.00    +0.000 C 
BRANCH  26  27
ATOM     27  N   UNL     1      -4.738  -2.298   0.000  0.00  0.00    +0.000 NA
BRANCH  27  28
ATOM     28  C   UNL     1      -4.738  -1.482   0.000  0.00  0.00    +0.000 C 
BRANCH  28  29
ATOM     29  C   UNL     1      -5.449  -1.071   0.000  0.00  0.00    +0.000 C 
BRANCH  29  30
ATOM     30  C   UNL     1      -6.157  -1.477   0.000  0.00  0.00    +0.000 C 
ATOM     31  C   UNL     1      -6.869  -1.067   0.000  0.00  0.00    +0.000 C 
ENDBRANCH  29  30
ENDBRANCH  28  29
ENDBRANCH  27  28
BRANCH  27  32
ATOM     32  C   UNL     1      -5.445  -2.704   0.000  0.00  0.00    +0.000 C 
BRANCH  32  33
ATOM     33  C   UNL     1      -6.153  -2.293   0.000  0.00  0.00    +0.000 C 
BRANCH  33  34
ATOM     34  C   UNL     1      -6.864  -2.700   0.000  0.00  0.00    +0.000 C 
ATOM     35  C   UNL     1      -7.572  -2.289   0.000  0.00  0.00    +0.000 C 
ENDBRANCH  33  34
ENDBRANCH  32  33
ENDBRANCH  27  32
ENDBRANCH  26  27
ENDBRANCH  24  26
ENDBRANCH   7  24
TORSDOF 10
REMARK  Name = 
REMARK  61 active torsions:
REMARK  status: ('A' for Active; 'I' for Inactive)
REMARK    1  A    between atoms: C_1  and  C_2
REMARK    2  A    between atoms: C_1  and  C_19
REMARK    3  A    between atoms: C_2  and  N_4
REMARK    4  A    between atoms: N_4  and  C_5
REMARK    5  A    between atoms: N_4  and  C_7
REMARK    6  A    between atoms: C_5  and  C_6
REMARK    7  A    between atoms: C_6  and  C_11
REMARK    8  A    between atoms: C_7  and  C_8
REMARK    9  A    between atoms: C_8  and  C_9
REMARK   10  A    between atoms: C_28  and  C_29
REMARK   11  A    between atoms: O_37  and  C_58
REMARK   12  A    between atoms: C_60  and  C_61
REMARK   13  A    between atoms: C_60  and  C_78
REMARK   14  A    between atoms: C_61  and  N_63
REMARK   15  A    between atoms: N_63  and  C_64
REMARK   16  A    between atoms: N_63  and  C_66
REMARK   17  A    between atoms: C_64  and  C_65
REMARK   18  A    between atoms: C_65  and  C_70
REMARK   19  A    between atoms: C_66  and  C_67
REMARK   20  A    between atoms: C_67  and  C_68
REMARK   21  A    between atoms: C_87  and  C_88
REMARK   22  A    between atoms: C_95  and  C_96
REMARK   23  A    between atoms: C_95  and  C_113
REMARK   24  A    between atoms: C_96  and  N_98
REMARK   25  A    between atoms: N_98  and  C_99
REMARK   26  A    between atoms: N_98  and  C_101
REMARK   27  A    between atoms: C_99  and  C_100
REMARK   28  A    between atoms: C_100  and  C_105
REMARK   29  A    between atoms: C_101  and  C_102
REMARK   30  A    between atoms: C_102  and  C_103
REMARK   31  A    between atoms: C_122  and  C_123
REMARK   32  A    between atoms: C_130  and  C_131
REMARK   33  A    between atoms: C_130  and  C_148
REMARK   34  A    between atoms: C_131  and  N_133
REMARK   35  A    between atoms: N_133  and  C_134
REMARK   36  A    between atoms: N_133  and  C_136
REMARK   37  A    between atoms: C_134  and  C_135
REMARK   38  A    between atoms: C_135  and  C_140
REMARK   39  A    between atoms: C_136  and  C_137
REMARK   40  A    between atoms: C_137  and  C_138
REMARK   41  A    between atoms: C_157  and  C_158
REMARK   42  A    between atoms: C_165  and  C_166
REMARK   43  A    between atoms: C_165  and  C_183
REMARK   44  A    between atoms: C_166  and  N_168
REMARK   45  A    between atoms: N_168  and  C_169
REMARK   46  A    between atoms: N_168  and  C_171
REMARK   47  A    between atoms: C_169  and  C_170
REMARK   48  A    between atoms: C_170  and  C_175
REMARK   49  A    between atoms: C_171  and  C_172
REMARK   50  A    between atoms: C_172  and  C_173
REMARK   51  A    between atoms: C_192  and  C_193
REMARK   52  A    between atoms: C_200  and  C_201
REMARK   53  A    between atoms: C_200  and  C_218
REMARK   54  A    between atoms: C_201  and  N_203
REMARK   55  A    between atoms: N_203  and  C_204
REMARK   56  A    between atoms: N_203  and  C_206
REMARK   57  A    between atoms: C_204  and  C_205
REMARK   58  A    between atoms: C_205  and  C_210
REMARK   59  A    between atoms: C_206  and  C_207
REMARK   60  A    between atoms: C_207  and  C_208
REMARK   61  A    between atoms: C_227  and  C_228
REMARK                            x       y       z     vdW  Elec       q    Type
REMARK                         _______ _______ _______ _____ _____    ______ ____
ROOT
ATOM      1  C   UNL     1       4.712  -3.111   0.000  0.00  0.00    +0.000 C 
ATOM      2  C   UNL     1       4.507   1.890   0.000  0.00  0.00    +0.000 C 
ATOM      3  O   UNL     1       5.504   0.421   0.000  0.00  0.00    +0.000 OA
ATOM      4  O   UNL     1       5.131  -0.273   0.000  0.00  0.00    +0.000 OA
ATOM      5  C   UNL     1       5.428  -1.043   0.000  0.00  0.00    +0.000 C 
ATOM      6  C   UNL     1       4.712  -0.625   0.000  0.00  0.00    +0.000 C 
ATOM      7  O   UNL     1       4.315   0.229   0.000  0.00  0.00    +0.000 OA
ATOM      8  C   UNL     1       4.918   1.008   0.000  0.00  0.00    +0.000 C 
ATOM      9  C   UNL     1       5.885   1.008   0.000  0.00  0.00    +0.000 C 
ATOM     10  C   UNL     1       6.354   0.137   0.000  0.00  0.00    +0.000 C 
ATOM     11  C   UNL     1       6.141  -0.626   0.000  0.00  0.00    +0.000 C 
ATOM     12  C   UNL     1       7.572  -0.621   0.000  0.00  0.00    +0.000 C 
ATOM     13  C   UNL     1       6.860  -1.042   0.000  0.00  0.00    +0.000 C 
ATOM     14  C   UNL     1       6.860  -1.871   0.000  0.00  0.00    +0.000 C 
ATOM     15  C   UNL     1       6.143  -2.284   0.000  0.00  0.00    +0.000 C 
ATOM     16  C   UNL     1       5.428  -1.872   0.000  0.00  0.00    +0.000 C 
ATOM     17  C   UNL     1       4.712  -2.283   0.000  0.00  0.00    +0.000 C 
ATOM     18  C   UNL     1       3.997  -1.872   0.000  0.00  0.00    +0.000 C 
ATOM     19  O   UNL     1       3.997  -1.043   0.000  0.00  0.00    +0.000 OA
ENDROOT
BRANCH  18  21
ATOM     20  C   UNL     1       2.557  -1.868   0.000  0.00  0.00    +0.000 C 
ATOM     21  O   UNL     1       3.277  -2.283   0.000  0.00  0.00    +0.000 OA
ENDBRANCH  18  21
TORSDOF 1
REMARK  Name = 
REMARK  61 active torsions:
REMARK  status: ('A' for Active; 'I' for Inactive)
REMARK    1  A    between atoms: C_1  and  C_2
REMARK    2  A    between atoms: C_1  and  C_19
REMARK    3  A    between atoms: C_2  and  N_4
REMARK    4  A    between atoms: N_4  and  C_5
REMARK    5  A    between atoms: N_4  and  C_7
REMARK    6  A    between atoms: C_5  and  C_6
REMARK    7  A    between atoms: C_6  and  C_11
REMARK    8  A    between atoms: C_7  and  C_8
REMARK    9  A    between atoms: C_8  and  C_9
REMARK   10  A    between atoms: C_28  and  C_29
REMARK   11  A    between atoms: O_37  and  C_58
REMARK   12  A    between atoms: C_60  and  C_61
REMARK   13  A    between atoms: C_60  and  C_78
REMARK   14  A    between atoms: C_61  and  N_63
REMARK   15  A    between atoms: N_63  and  C_64
REMARK   16  A    between atoms: N_63  and  C_66
REMARK   17  A    between atoms: C_64  and  C_65
REMARK   18  A    between atoms: C_65  and  C_70
REMARK   19  A    between atoms: C_66  and  C_67
REMARK   20  A    between atoms: C_67  and  C_68
REMARK   21  A    between atoms: C_87  and  C_88
REMARK   22  A    between atoms: C_95  and  C_96
REMARK   23  A    between atoms: C_95  and  C_113
REMARK   24  A    between atoms: C_96  and  N_98
REMARK   25  A    between atoms: N_98  and  C_99
REMARK   26  A    between atoms: N_98  and  C_101
REMARK   27  A    between atoms: C_99  and  C_100
REMARK   28  A    between atoms: C_100  and  C_105
REMARK   29  A    between atoms: C_101  and  C_102
REMARK   30  A    between atoms: C_102  and  C_103
REMARK   31  A    between atoms: C_122  and  C_123
REMARK   32  A    between atoms: C_130  and  C_131
REMARK   33  A    between atoms: C_130  and  C_148
REMARK   34  A    between atoms: C_131  and  N_133
REMARK   35  A    between atoms: N_133  and  C_134
REMARK   36  A    between atoms: N_133  and  C_136
REMARK   37  A    between atoms: C_134  and  C_135
REMARK   38  A    between atoms: C_135  and  C_140
REMARK   39  A    between atoms: C_136  and  C_137
REMARK   40  A    between atoms: C_137  and  C_138
REMARK   41  A    between atoms: C_157  and  C_158
REMARK   42  A    between atoms: C_165  and  C_166
REMARK   43  A    between atoms: C_165  and  C_183
REMARK   44  A    between atoms: C_166  and  N_168
REMARK   45  A    between atoms: N_168  and  C_169
REMARK   46  A    between atoms: N_168  and  C_171
REMARK   47  A    between atoms: C_169  and  C_170
REMARK   48  A    between atoms: C_170  and  C_175
REMARK   49  A    between atoms: C_171  and  C_172
REMARK   50  A    between atoms: C_172  and  C_173
REMARK   51  A    between atoms: C_192  and  C_193
REMARK   52  A    between atoms: C_200  and  C_201
REMARK   53  A    between atoms: C_200  and  C_218
REMARK   54  A    between atoms: C_201  and  N_203
REMARK   55  A    between atoms: N_203  and  C_204
REMARK   56  A    between atoms: N_203  and  C_206
REMARK   57  A    between atoms: C_204  and  C_205
REMARK   58  A    between atoms: C_205  and  C_210
REMARK   59  A    between atoms: C_206  and  C_207
REMARK   60  A    between atoms: C_207  and  C_208
REMARK   61  A    between atoms: C_227  and  C_228
REMARK                            x       y       z     vdW  Elec       q    Type
REMARK                         _______ _______ _______ _____ _____    ______ ____
ROOT
ATOM      1  C   UNL     1      -1.803  -0.157   0.000  0.00  0.00    +0.000 C 
ATOM      2  C   UNL     1      -2.588  -1.230   0.000  0.00  0.00    +0.000 A 
ATOM      3  C   UNL     1      -2.588  -0.407   0.000  0.00  0.00    +0.000 A 
ATOM      4  C   UNL     1      -3.308   0.009   0.000  0.00  0.00    +0.000 A 
ATOM      5  C   UNL     1      -4.029  -0.413   0.000  0.00  0.00    +0.000 A 
ATOM      6  C   UNL     1      -4.029  -1.231   0.000  0.00  0.00    +0.000 A 
ATOM      7  C   UNL     1      -3.318  -1.648   0.000  0.00  0.00    +0.000 A 
ATOM      8  C   UNL     1      -1.317  -0.817   0.000  0.00  0.00    +0.000 A 
ATOM      9  C   UNL     1      -1.801  -1.489   0.000  0.00  0.00    +0.000 A 
ATOM     10  C   UNL     1      -1.456  -2.244   0.000  0.00  0.00    +0.000 A 
ATOM     11  C   UNL     1      -0.632  -2.327   0.000  0.00  0.00    +0.000 A 
ATOM     12  C   UNL     1      -0.152  -1.658   0.000  0.00  0.00    +0.000 A 
ATOM     13  C   UNL     1      -0.488  -0.899   0.000  0.00  0.00    +0.000 A 
ATOM     14 CL   UNL     1       0.672  -1.749   0.000  0.00  0.00    +0.000 Cl
ATOM     15 CL   UNL     1      -4.753  -0.004   0.000  0.00  0.00    +0.000 Cl
ATOM     16  C   UNL     1      -1.538   0.638   0.000  0.00  0.00    +0.000 C 
ENDROOT
BRANCH  16  17
ATOM     17  C   UNL     1      -2.089   1.261   0.000  0.00  0.00    +0.000 A 
ATOM     18  C   UNL     1      -1.827   2.043   0.000  0.00  0.00    +0.000 A 
ATOM     19  C   UNL     1      -2.374   2.656   0.000  0.00  0.00    +0.000 A 
ATOM     20  C   UNL     1      -3.186   2.496   0.000  0.00  0.00    +0.000 A 
ATOM     21  C   UNL     1      -3.446   1.713   0.000  0.00  0.00    +0.000 A 
ATOM     22  C   UNL     1      -2.900   1.095   0.000  0.00  0.00    +0.000 A 
ATOM     23 CL   UNL     1      -3.734   3.111   0.000  0.00  0.00    +0.000 Cl
ENDBRANCH  16  17
BRANCH   7  24
ATOM     24  C   UNL     1      -3.318  -2.299   0.000  0.00  0.00    +0.000 C 
ATOM     25  O   UNL     1      -2.608  -2.708   0.000  0.00  0.00    +0.000 OA
BRANCH  24  26
ATOM     26  C   UNL     1      -4.023  -2.710   0.000  0.00  0.00    +0.000 C 
BRANCH  26  27
ATOM     27  N   UNL     1      -4.738  -2.298   0.000  0.00  0.00    +0.000 NA
BRANCH  27  28
ATOM     28  C   UNL     1      -4.738  -1.482   0.000  0.00  0.00    +0.000 C 
BRANCH  28  29
ATOM     29  C   UNL     1      -5.449  -1.071   0.000  0.00  0.00    +0.000 C 
BRANCH  29  30
ATOM     30  C   UNL     1      -6.157  -1.477   0.000  0.00  0.00    +0.000 C 
ATOM     31  C   UNL     1      -6.869  -1.067   0.000  0.00  0.00    +0.000 C 
ENDBRANCH  29  30
ENDBRANCH  28  29
ENDBRANCH  27  28
BRANCH  27  32
ATOM     32  C   UNL     1      -5.445  -2.704   0.000  0.00  0.00    +0.000 C 
BRANCH  32  33
ATOM     33  C   UNL     1      -6.153  -2.293   0.000  0.00  0.00    +0.000 C 
BRANCH  33  34
ATOM     34  C   UNL     1      -6.864  -2.700   0.000  0.00  0.00    +0.000 C 
ATOM     35  C   UNL     1      -7.572  -2.289   0.000  0.00  0.00    +0.000 C 
ENDBRANCH  33  34
ENDBRANCH  32  33
ENDBRANCH  27  32
ENDBRANCH  26  27
ENDBRANCH  24  26
ENDBRANCH   7  24
TORSDOF 10
REMARK  Name = 
REMARK  61 active torsions:
REMARK  status: ('A' for Active; 'I' for Inactive)
REMARK    1  A    between atoms: C_1  and  C_2
REMARK    2  A    between atoms: C_1  and  C_19
REMARK    3  A    between atoms: C_2  and  N_4
REMARK    4  A    between atoms: N_4  and  C_5
REMARK    5  A    between atoms: N_4  and  C_7
REMARK    6  A    between atoms: C_5  and  C_6
REMARK    7  A    between atoms: C_6  and  C_11
REMARK    8  A    between atoms: C_7  and  C_8
REMARK    9  A    between atoms: C_8  and  C_9
REMARK   10  A    between atoms: C_28  and  C_29
REMARK   11  A    between atoms: O_37  and  C_58
REMARK   12  A    between atoms: C_60  and  C_61
REMARK   13  A    between atoms: C_60  and  C_78
REMARK   14  A    between atoms: C_61  and  N_63
REMARK   15  A    between atoms: N_63  and  C_64
REMARK   16  A    between atoms: N_63  and  C_66
REMARK   17  A    between atoms: C_64  and  C_65
REMARK   18  A    between atoms: C_65  and  C_70
REMARK   19  A    between atoms: C_66  and  C_67
REMARK   20  A    between atoms: C_67  and  C_68
REMARK   21  A    between atoms: C_87  and  C_88
REMARK   22  A    between atoms: C_95  and  C_96
REMARK   23  A    between atoms: C_95  and  C_113
REMARK   24  A    between atoms: C_96  and  N_98
REMARK   25  A    between atoms: N_98  and  C_99
REMARK   26  A    between atoms: N_98  and  C_101
REMARK   27  A    between atoms: C_99  and  C_100
REMARK   28  A    between atoms: C_100  and  C_105
REMARK   29  A    between atoms: C_101  and  C_102
REMARK   30  A    between atoms: C_102  and  C_103
REMARK   31  A    between atoms: C_122  and  C_123
REMARK   32  A    between atoms: C_130  and  C_131
REMARK   33  A    between atoms: C_130  and  C_148
REMARK   34  A    between atoms: C_131  and  N_133
REMARK   35  A    between atoms: N_133  and  C_134
REMARK   36  A    between atoms: N_133  and  C_136
REMARK   37  A    between atoms: C_134  and  C_135
REMARK   38  A    between atoms: C_135  and  C_140
REMARK   39  A    between atoms: C_136  and  C_137
REMARK   40  A    between atoms: C_137  and  C_138
REMARK   41  A    between atoms: C_157  and  C_158
REMARK   42  A    between atoms: C_165  and  C_166
REMARK   43  A    between atoms: C_165  and  C_183
REMARK   44  A    between atoms: C_166  and  N_168
REMARK   45  A    between atoms: N_168  and  C_169
REMARK   46  A    between atoms: N_168  and  C_171
REMARK   47  A    between atoms: C_169  and  C_170
REMARK   48  A    between atoms: C_170  and  C_175
REMARK   49  A    between atoms: C_171  and  C_172
REMARK   50  A    between atoms: C_172  and  C_173
REMARK   51  A    between atoms: C_192  and  C_193
REMARK   52  A    between atoms: C_200  and  C_201
REMARK   53  A    between atoms: C_200  and  C_218
REMARK   54  A    between atoms: C_201  and  N_203
REMARK   55  A    between atoms: N_203  and  C_204
REMARK   56  A    between atoms: N_203  and  C_206
REMARK   57  A    between atoms: C_204  and  C_205
REMARK   58  A    between atoms: C_205  and  C_210
REMARK   59  A    between atoms: C_206  and  C_207
REMARK   60  A    between atoms: C_207  and  C_208
REMARK   61  A    between atoms: C_227  and  C_228
REMARK                            x       y       z     vdW  Elec       q    Type
REMARK                         _______ _______ _______ _____ _____    ______ ____
ROOT
ATOM      1  C   UNL     1      -1.803  -0.157   0.000  0.00  0.00    +0.000 C 
ATOM      2  C   UNL     1      -2.588  -1.230   0.000  0.00  0.00    +0.000 A 
ATOM      3  C   UNL     1      -2.588  -0.407   0.000  0.00  0.00    +0.000 A 
ATOM      4  C   UNL     1      -3.308   0.009   0.000  0.00  0.00    +0.000 A 
ATOM      5  C   UNL     1      -4.029  -0.413   0.000  0.00  0.00    +0.000 A 
ATOM      6  C   UNL     1      -4.029  -1.231   0.000  0.00  0.00    +0.000 A 
ATOM      7  C   UNL     1      -3.318  -1.648   0.000  0.00  0.00    +0.000 A 
ATOM      8  C   UNL     1      -1.317  -0.817   0.000  0.00  0.00    +0.000 A 
ATOM      9  C   UNL     1      -1.801  -1.489   0.000  0.00  0.00    +0.000 A 
ATOM     10  C   UNL     1      -1.456  -2.244   0.000  0.00  0.00    +0.000 A 
ATOM     11  C   UNL     1      -0.632  -2.327   0.000  0.00  0.00    +0.000 A 
ATOM     12  C   UNL     1      -0.152  -1.658   0.000  0.00  0.00    +0.000 A 
ATOM     13  C   UNL     1      -0.488  -0.899   0.000  0.00  0.00    +0.000 A 
ATOM     14 CL   UNL     1       0.672  -1.749   0.000  0.00  0.00    +0.000 Cl
ATOM     15 CL   UNL     1      -4.753  -0.004   0.000  0.00  0.00    +0.000 Cl
ATOM     16  C   UNL     1      -1.538   0.638   0.000  0.00  0.00    +0.000 C 
ENDROOT
BRANCH  16  17
ATOM     17  C   UNL     1      -2.089   1.261   0.000  0.00  0.00    +0.000 A 
ATOM     18  C   UNL     1      -1.827   2.043   0.000  0.00  0.00    +0.000 A 
ATOM     19  C   UNL     1      -2.374   2.656   0.000  0.00  0.00    +0.000 A 
ATOM     20  C   UNL     1      -3.186   2.496   0.000  0.00  0.00    +0.000 A 
ATOM     21  C   UNL     1      -3.446   1.713   0.000  0.00  0.00    +0.000 A 
ATOM     22  C   UNL     1      -2.900   1.095   0.000  0.00  0.00    +0.000 A 
ATOM     23 CL   UNL     1      -3.734   3.111   0.000  0.00  0.00    +0.000 Cl
ENDBRANCH  16  17
BRANCH   7  24
ATOM     24  C   UNL     1      -3.318  -2.299   0.000  0.00  0.00    +0.000 C 
ATOM     25  O   UNL     1      -2.608  -2.708   0.000  0.00  0.00    +0.000 OA
BRANCH  24  26
ATOM     26  C   UNL     1      -4.023  -2.710   0.000  0.00  0.00    +0.000 C 
BRANCH  26  27
ATOM     27  N   UNL     1      -4.738  -2.298   0.000  0.00  0.00    +0.000 NA
BRANCH  27  28
ATOM     28  C   UNL     1      -4.738  -1.482   0.000  0.00  0.00    +0.000 C 
BRANCH  28  29
ATOM     29  C   UNL     1      -5.449  -1.071   0.000  0.00  0.00    +0.000 C 
BRANCH  29  30
ATOM     30  C   UNL     1      -6.157  -1.477   0.000  0.00  0.00    +0.000 C 
ATOM     31  C   UNL     1      -6.869  -1.067   0.000  0.00  0.00    +0.000 C 
ENDBRANCH  29  30
ENDBRANCH  28  29
ENDBRANCH  27  28
BRANCH  27  32
ATOM     32  C   UNL     1      -5.445  -2.704   0.000  0.00  0.00    +0.000 C 
BRANCH  32  33
ATOM     33  C   UNL     1      -6.153  -2.293   0.000  0.00  0.00    +0.000 C 
BRANCH  33  34
ATOM     34  C   UNL     1      -6.864  -2.700   0.000  0.00  0.00    +0.000 C 
ATOM     35  C   UNL     1      -7.572  -2.289   0.000  0.00  0.00    +0.000 C 
ENDBRANCH  33  34
ENDBRANCH  32  33
ENDBRANCH  27  32
ENDBRANCH  26  27
ENDBRANCH  24  26
ENDBRANCH   7  24
TORSDOF 10
REMARK  Name = 
REMARK  61 active torsions:
REMARK  status: ('A' for Active; 'I' for Inactive)
REMARK    1  A    between atoms: C_1  and  C_2
REMARK    2  A    between atoms: C_1  and  C_19
REMARK    3  A    between atoms: C_2  and  N_4
REMARK    4  A    between atoms: N_4  and  C_5
REMARK    5  A    between atoms: N_4  and  C_7
REMARK    6  A    between atoms: C_5  and  C_6
REMARK    7  A    between atoms: C_6  and  C_11
REMARK    8  A    between atoms: C_7  and  C_8
REMARK    9  A    between atoms: C_8  and  C_9
REMARK   10  A    between atoms: C_28  and  C_29
REMARK   11  A    between atoms: O_37  and  C_58
REMARK   12  A    between atoms: C_60  and  C_61
REMARK   13  A    between atoms: C_60  and  C_78
REMARK   14  A    between atoms: C_61  and  N_63
REMARK   15  A    between atoms: N_63  and  C_64
REMARK   16  A    between atoms: N_63  and  C_66
REMARK   17  A    between atoms: C_64  and  C_65
REMARK   18  A    between atoms: C_65  and  C_70
REMARK   19  A    between atoms: C_66  and  C_67
REMARK   20  A    between atoms: C_67  and  C_68
REMARK   21  A    between atoms: C_87  and  C_88
REMARK   22  A    between atoms: C_95  and  C_96
REMARK   23  A    between atoms: C_95  and  C_113
REMARK   24  A    between atoms: C_96  and  N_98
REMARK   25  A    between atoms: N_98  and  C_99
REMARK   26  A    between atoms: N_98  and  C_101
REMARK   27  A    between atoms: C_99  and  C_100
REMARK   28  A    between atoms: C_100  and  C_105
REMARK   29  A    between atoms: C_101  and  C_102
REMARK   30  A    between atoms: C_102  and  C_103
REMARK   31  A    between atoms: C_122  and  C_123
REMARK   32  A    between atoms: C_130  and  C_131
REMARK   33  A    between atoms: C_130  and  C_148
REMARK   34  A    between atoms: C_131  and  N_133
REMARK   35  A    between atoms: N_133  and  C_134
REMARK   36  A    between atoms: N_133  and  C_136
REMARK   37  A    between atoms: C_134  and  C_135
REMARK   38  A    between atoms: C_135  and  C_140
REMARK   39  A    between atoms: C_136  and  C_137
REMARK   40  A    between atoms: C_137  and  C_138
REMARK   41  A    between atoms: C_157  and  C_158
REMARK   42  A    between atoms: C_165  and  C_166
REMARK   43  A    between atoms: C_165  and  C_183
REMARK   44  A    between atoms: C_166  and  N_168
REMARK   45  A    between atoms: N_168  and  C_169
REMARK   46  A    between atoms: N_168  and  C_171
REMARK   47  A    between atoms: C_169  and  C_170
REMARK   48  A    between atoms: C_170  and  C_175
REMARK   49  A    between atoms: C_171  and  C_172
REMARK   50  A    between atoms: C_172  and  C_173
REMARK   51  A    between atoms: C_192  and  C_193
REMARK   52  A    between atoms: C_200  and  C_201
REMARK   53  A    between atoms: C_200  and  C_218
REMARK   54  A    between atoms: C_201  and  N_203
REMARK   55  A    between atoms: N_203  and  C_204
REMARK   56  A    between atoms: N_203  and  C_206
REMARK   57  A    between atoms: C_204  and  C_205
REMARK   58  A    between atoms: C_205  and  C_210
REMARK   59  A    between atoms: C_206  and  C_207
REMARK   60  A    between atoms: C_207  and  C_208
REMARK   61  A    between atoms: C_227  and  C_228
REMARK                            x       y       z     vdW  Elec       q    Type
REMARK                         _______ _______ _______ _____ _____    ______ ____
ROOT
ATOM      1  C   UNL     1      -1.803  -0.157   0.000  0.00  0.00    +0.000 C 
ATOM      2  C   UNL     1      -2.588  -1.230   0.000  0.00  0.00    +0.000 A 
ATOM      3  C   UNL     1      -2.588  -0.407   0.000  0.00  0.00    +0.000 A 
ATOM      4  C   UNL     1      -3.308   0.009   0.000  0.00  0.00    +0.000 A 
ATOM      5  C   UNL     1      -4.029  -0.413   0.000  0.00  0.00    +0.000 A 
ATOM      6  C   UNL     1      -4.029  -1.231   0.000  0.00  0.00    +0.000 A 
ATOM      7  C   UNL     1      -3.318  -1.648   0.000  0.00  0.00    +0.000 A 
ATOM      8  C   UNL     1      -1.317  -0.817   0.000  0.00  0.00    +0.000 A 
ATOM      9  C   UNL     1      -1.801  -1.489   0.000  0.00  0.00    +0.000 A 
ATOM     10  C   UNL     1      -1.456  -2.244   0.000  0.00  0.00    +0.000 A 
ATOM     11  C   UNL     1      -0.632  -2.327   0.000  0.00  0.00    +0.000 A 
ATOM     12  C   UNL     1      -0.152  -1.658   0.000  0.00  0.00    +0.000 A 
ATOM     13  C   UNL     1      -0.488  -0.899   0.000  0.00  0.00    +0.000 A 
ATOM     14 CL   UNL     1       0.672  -1.749   0.000  0.00  0.00    +0.000 Cl
ATOM     15 CL   UNL     1      -4.753  -0.004   0.000  0.00  0.00    +0.000 Cl
ATOM     16  C   UNL     1      -1.538   0.638   0.000  0.00  0.00    +0.000 C 
ENDROOT
BRANCH  16  17
ATOM     17  C   UNL     1      -2.089   1.261   0.000  0.00  0.00    +0.000 A 
ATOM     18  C   UNL     1      -1.827   2.043   0.000  0.00  0.00    +0.000 A 
ATOM     19  C   UNL     1      -2.374   2.656   0.000  0.00  0.00    +0.000 A 
ATOM     20  C   UNL     1      -3.186   2.496   0.000  0.00  0.00    +0.000 A 
ATOM     21  C   UNL     1      -3.446   1.713   0.000  0.00  0.00    +0.000 A 
ATOM     22  C   UNL     1      -2.900   1.095   0.000  0.00  0.00    +0.000 A 
ATOM     23 CL   UNL     1      -3.734   3.111   0.000  0.00  0.00    +0.000 Cl
ENDBRANCH  16  17
BRANCH   7  24
ATOM     24  C   UNL     1      -3.318  -2.299   0.000  0.00  0.00    +0.000 C 
ATOM     25  O   UNL     1      -2.608  -2.708   0.000  0.00  0.00    +0.000 OA
BRANCH  24  26
ATOM     26  C   UNL     1      -4.023  -2.710   0.000  0.00  0.00    +0.000 C 
BRANCH  26  27
ATOM     27  N   UNL     1      -4.738  -2.298   0.000  0.00  0.00    +0.000 NA
BRANCH  27  28
ATOM     28  C   UNL     1      -4.738  -1.482   0.000  0.00  0.00    +0.000 C 
BRANCH  28  29
ATOM     29  C   UNL     1      -5.449  -1.071   0.000  0.00  0.00    +0.000 C 
BRANCH  29  30
ATOM     30  C   UNL     1      -6.157  -1.477   0.000  0.00  0.00    +0.000 C 
ATOM     31  C   UNL     1      -6.869  -1.067   0.000  0.00  0.00    +0.000 C 
ENDBRANCH  29  30
ENDBRANCH  28  29
ENDBRANCH  27  28
BRANCH  27  32
ATOM     32  C   UNL     1      -5.445  -2.704   0.000  0.00  0.00    +0.000 C 
BRANCH  32  33
ATOM     33  C   UNL     1      -6.153  -2.293   0.000  0.00  0.00    +0.000 C 
BRANCH  33  34
ATOM     34  C   UNL     1      -6.864  -2.700   0.000  0.00  0.00    +0.000 C 
ATOM     35  C   UNL     1      -7.572  -2.289   0.000  0.00  0.00    +0.000 C 
ENDBRANCH  33  34
ENDBRANCH  32  33
ENDBRANCH  27  32
ENDBRANCH  26  27
ENDBRANCH  24  26
ENDBRANCH   7  24
TORSDOF 10
REMARK  Name = 
REMARK  61 active torsions:
REMARK  status: ('A' for Active; 'I' for Inactive)
REMARK    1  A    between atoms: C_1  and  C_2
REMARK    2  A    between atoms: C_1  and  C_19
REMARK    3  A    between atoms: C_2  and  N_4
REMARK    4  A    between atoms: N_4  and  C_5
REMARK    5  A    between atoms: N_4  and  C_7
REMARK    6  A    between atoms: C_5  and  C_6
REMARK    7  A    between atoms: C_6  and  C_11
REMARK    8  A    between atoms: C_7  and  C_8
REMARK    9  A    between atoms: C_8  and  C_9
REMARK   10  A    between atoms: C_28  and  C_29
REMARK   11  A    between atoms: O_37  and  C_58
REMARK   12  A    between atoms: C_60  and  C_61
REMARK   13  A    between atoms: C_60  and  C_78
REMARK   14  A    between atoms: C_61  and  N_63
REMARK   15  A    between atoms: N_63  and  C_64
REMARK   16  A    between atoms: N_63  and  C_66
REMARK   17  A    between atoms: C_64  and  C_65
REMARK   18  A    between atoms: C_65  and  C_70
REMARK   19  A    between atoms: C_66  and  C_67
REMARK   20  A    between atoms: C_67  and  C_68
REMARK   21  A    between atoms: C_87  and  C_88
REMARK   22  A    between atoms: C_95  and  C_96
REMARK   23  A    between atoms: C_95  and  C_113
REMARK   24  A    between atoms: C_96  and  N_98
REMARK   25  A    between atoms: N_98  and  C_99
REMARK   26  A    between atoms: N_98  and  C_101
REMARK   27  A    between atoms: C_99  and  C_100
REMARK   28  A    between atoms: C_100  and  C_105
REMARK   29  A    between atoms: C_101  and  C_102
REMARK   30  A    between atoms: C_102  and  C_103
REMARK   31  A    between atoms: C_122  and  C_123
REMARK   32  A    between atoms: C_130  and  C_131
REMARK   33  A    between atoms: C_130  and  C_148
REMARK   34  A    between atoms: C_131  and  N_133
REMARK   35  A    between atoms: N_133  and  C_134
REMARK   36  A    between atoms: N_133  and  C_136
REMARK   37  A    between atoms: C_134  and  C_135
REMARK   38  A    between atoms: C_135  and  C_140
REMARK   39  A    between atoms: C_136  and  C_137
REMARK   40  A    between atoms: C_137  and  C_138
REMARK   41  A    between atoms: C_157  and  C_158
REMARK   42  A    between atoms: C_165  and  C_166
REMARK   43  A    between atoms: C_165  and  C_183
REMARK   44  A    between atoms: C_166  and  N_168
REMARK   45  A    between atoms: N_168  and  C_169
REMARK   46  A    between atoms: N_168  and  C_171
REMARK   47  A    between atoms: C_169  and  C_170
REMARK   48  A    between atoms: C_170  and  C_175
REMARK   49  A    between atoms: C_171  and  C_172
REMARK   50  A    between atoms: C_172  and  C_173
REMARK   51  A    between atoms: C_192  and  C_193
REMARK   52  A    between atoms: C_200  and  C_201
REMARK   53  A    between atoms: C_200  and  C_218
REMARK   54  A    between atoms: C_201  and  N_203
REMARK   55  A    between atoms: N_203  and  C_204
REMARK   56  A    between atoms: N_203  and  C_206
REMARK   57  A    between atoms: C_204  and  C_205
REMARK   58  A    between atoms: C_205  and  C_210
REMARK   59  A    between atoms: C_206  and  C_207
REMARK   60  A    between atoms: C_207  and  C_208
REMARK   61  A    between atoms: C_227  and  C_228
REMARK                            x       y       z     vdW  Elec       q    Type
REMARK                         _______ _______ _______ _____ _____    ______ ____
ROOT
ATOM      1  C   UNL     1      -1.803  -0.157   0.000  0.00  0.00    +0.000 C 
ATOM      2  C   UNL     1      -2.588  -1.230   0.000  0.00  0.00    +0.000 A 
ATOM      3  C   UNL     1      -2.588  -0.407   0.000  0.00  0.00    +0.000 A 
ATOM      4  C   UNL     1      -3.308   0.009   0.000  0.00  0.00    +0.000 A 
ATOM      5  C   UNL     1      -4.029  -0.413   0.000  0.00  0.00    +0.000 A 
ATOM      6  C   UNL     1      -4.029  -1.231   0.000  0.00  0.00    +0.000 A 
ATOM      7  C   UNL     1      -3.318  -1.648   0.000  0.00  0.00    +0.000 A 
ATOM      8  C   UNL     1      -1.317  -0.817   0.000  0.00  0.00    +0.000 A 
ATOM      9  C   UNL     1      -1.801  -1.489   0.000  0.00  0.00    +0.000 A 
ATOM     10  C   UNL     1      -1.456  -2.244   0.000  0.00  0.00    +0.000 A 
ATOM     11  C   UNL     1      -0.632  -2.327   0.000  0.00  0.00    +0.000 A 
ATOM     12  C   UNL     1      -0.152  -1.658   0.000  0.00  0.00    +0.000 A 
ATOM     13  C   UNL     1      -0.488  -0.899   0.000  0.00  0.00    +0.000 A 
ATOM     14 CL   UNL     1       0.672  -1.749   0.000  0.00  0.00    +0.000 Cl
ATOM     15 CL   UNL     1      -4.753  -0.004   0.000  0.00  0.00    +0.000 Cl
ATOM     16  C   UNL     1      -1.538   0.638   0.000  0.00  0.00    +0.000 C 
ENDROOT
BRANCH  16  17
ATOM     17  C   UNL     1      -2.089   1.261   0.000  0.00  0.00    +0.000 A 
ATOM     18  C   UNL     1      -1.827   2.043   0.000  0.00  0.00    +0.000 A 
ATOM     19  C   UNL     1      -2.374   2.656   0.000  0.00  0.00    +0.000 A 
ATOM     20  C   UNL     1      -3.186   2.496   0.000  0.00  0.00    +0.000 A 
ATOM     21  C   UNL     1      -3.446   1.713   0.000  0.00  0.00    +0.000 A 
ATOM     22  C   UNL     1      -2.900   1.095   0.000  0.00  0.00    +0.000 A 
ATOM     23 CL   UNL     1      -3.734   3.111   0.000  0.00  0.00    +0.000 Cl
ENDBRANCH  16  17
BRANCH   7  24
ATOM     24  C   UNL     1      -3.318  -2.299   0.000  0.00  0.00    +0.000 C 
ATOM     25  O   UNL     1      -2.608  -2.708   0.000  0.00  0.00    +0.000 OA
BRANCH  24  26
ATOM     26  C   UNL     1      -4.023  -2.710   0.000  0.00  0.00    +0.000 C 
BRANCH  26  27
ATOM     27  N   UNL     1      -4.738  -2.298   0.000  0.00  0.00    +0.000 NA
BRANCH  27  28
ATOM     28  C   UNL     1      -4.738  -1.482   0.000  0.00  0.00    +0.000 C 
BRANCH  28  29
ATOM     29  C   UNL     1      -5.449  -1.071   0.000  0.00  0.00    +0.000 C 
BRANCH  29  30
ATOM     30  C   UNL     1      -6.157  -1.477   0.000  0.00  0.00    +0.000 C 
ATOM     31  C   UNL     1      -6.869  -1.067   0.000  0.00  0.00    +0.000 C 
ENDBRANCH  29  30
ENDBRANCH  28  29
ENDBRANCH  27  28
BRANCH  27  32
ATOM     32  C   UNL     1      -5.445  -2.704   0.000  0.00  0.00    +0.000 C 
BRANCH  32  33
ATOM     33  C   UNL     1      -6.153  -2.293   0.000  0.00  0.00    +0.000 C 
BRANCH  33  34
ATOM     34  C   UNL     1      -6.864  -2.700   0.000  0.00  0.00    +0.000 C 
ATOM     35  C   UNL     1      -7.572  -2.289   0.000  0.00  0.00    +0.000 C 
ENDBRANCH  33  34
ENDBRANCH  32  33
ENDBRANCH  27  32
ENDBRANCH  26  27
ENDBRANCH  24  26
ENDBRANCH   7  24
TORSDOF 10
REMARK  Name = 
REMARK  61 active torsions:
REMARK  status: ('A' for Active; 'I' for Inactive)
REMARK    1  A    between atoms: C_1  and  C_2
REMARK    2  A    between atoms: C_1  and  C_19
REMARK    3  A    between atoms: C_2  and  N_4
REMARK    4  A    between atoms: N_4  and  C_5
REMARK    5  A    between atoms: N_4  and  C_7
REMARK    6  A    between atoms: C_5  and  C_6
REMARK    7  A    between atoms: C_6  and  C_11
REMARK    8  A    between atoms: C_7  and  C_8
REMARK    9  A    between atoms: C_8  and  C_9
REMARK   10  A    between atoms: C_28  and  C_29
REMARK   11  A    between atoms: O_37  and  C_58
REMARK   12  A    between atoms: C_60  and  C_61
REMARK   13  A    between atoms: C_60  and  C_78
REMARK   14  A    between atoms: C_61  and  N_63
REMARK   15  A    between atoms: N_63  and  C_64
REMARK   16  A    between atoms: N_63  and  C_66
REMARK   17  A    between atoms: C_64  and  C_65
REMARK   18  A    between atoms: C_65  and  C_70
REMARK   19  A    between atoms: C_66  and  C_67
REMARK   20  A    between atoms: C_67  and  C_68
REMARK   21  A    between atoms: C_87  and  C_88
REMARK   22  A    between atoms: C_95  and  C_96
REMARK   23  A    between atoms: C_95  and  C_113
REMARK   24  A    between atoms: C_96  and  N_98
REMARK   25  A    between atoms: N_98  and  C_99
REMARK   26  A    between atoms: N_98  and  C_101
REMARK   27  A    between atoms: C_99  and  C_100
REMARK   28  A    between atoms: C_100  and  C_105
REMARK   29  A    between atoms: C_101  and  C_102
REMARK   30  A    between atoms: C_102  and  C_103
REMARK   31  A    between atoms: C_122  and  C_123
REMARK   32  A    between atoms: C_130  and  C_131
REMARK   33  A    between atoms: C_130  and  C_148
REMARK   34  A    between atoms: C_131  and  N_133
REMARK   35  A    between atoms: N_133  and  C_134
REMARK   36  A    between atoms: N_133  and  C_136
REMARK   37  A    between atoms: C_134  and  C_135
REMARK   38  A    between atoms: C_135  and  C_140
REMARK   39  A    between atoms: C_136  and  C_137
REMARK   40  A    between atoms: C_137  and  C_138
REMARK   41  A    between atoms: C_157  and  C_158
REMARK   42  A    between atoms: C_165  and  C_166
REMARK   43  A    between atoms: C_165  and  C_183
REMARK   44  A    between atoms: C_166  and  N_168
REMARK   45  A    between atoms: N_168  and  C_169
REMARK   46  A    between atoms: N_168  and  C_171
REMARK   47  A    between atoms: C_169  and  C_170
REMARK   48  A    between atoms: C_170  and  C_175
REMARK   49  A    between atoms: C_171  and  C_172
REMARK   50  A    between atoms: C_172  and  C_173
REMARK   51  A    between atoms: C_192  and  C_193
REMARK   52  A    between atoms: C_200  and  C_201
REMARK   53  A    between atoms: C_200  and  C_218
REMARK   54  A    between atoms: C_201  and  N_203
REMARK   55  A    between atoms: N_203  and  C_204
REMARK   56  A    between atoms: N_203  and  C_206
REMARK   57  A    between atoms: C_204  and  C_205
REMARK   58  A    between atoms: C_205  and  C_210
REMARK   59  A    between atoms: C_206  and  C_207
REMARK   60  A    between atoms: C_207  and  C_208
REMARK   61  A    between atoms: C_227  and  C_228
REMARK                            x       y       z     vdW  Elec       q    Type
REMARK                         _______ _______ _______ _____ _____    ______ ____
ROOT
ATOM      1  C   UNL     1      -1.803  -0.157   0.000  0.00  0.00    +0.000 C 
ATOM      2  C   UNL     1      -2.588  -1.230   0.000  0.00  0.00    +0.000 A 
ATOM      3  C   UNL     1      -2.588  -0.407   0.000  0.00  0.00    +0.000 A 
ATOM      4  C   UNL     1      -3.308   0.009   0.000  0.00  0.00    +0.000 A 
ATOM      5  C   UNL     1      -4.029  -0.413   0.000  0.00  0.00    +0.000 A 
ATOM      6  C   UNL     1      -4.029  -1.231   0.000  0.00  0.00    +0.000 A 
ATOM      7  C   UNL     1      -3.318  -1.648   0.000  0.00  0.00    +0.000 A 
ATOM      8  C   UNL     1      -1.317  -0.817   0.000  0.00  0.00    +0.000 A 
ATOM      9  C   UNL     1      -1.801  -1.489   0.000  0.00  0.00    +0.000 A 
ATOM     10  C   UNL     1      -1.456  -2.244   0.000  0.00  0.00    +0.000 A 
ATOM     11  C   UNL     1      -0.632  -2.327   0.000  0.00  0.00    +0.000 A 
ATOM     12  C   UNL     1      -0.152  -1.658   0.000  0.00  0.00    +0.000 A 
ATOM     13  C   UNL     1      -0.488  -0.899   0.000  0.00  0.00    +0.000 A 
ATOM     14 CL   UNL     1       0.672  -1.749   0.000  0.00  0.00    +0.000 Cl
ATOM     15 CL   UNL     1      -4.753  -0.004   0.000  0.00  0.00    +0.000 Cl
ATOM     16  C   UNL     1      -1.538   0.638   0.000  0.00  0.00    +0.000 C 
ENDROOT
BRANCH  16  17
ATOM     17  C   UNL     1      -2.089   1.261   0.000  0.00  0.00    +0.000 A 
ATOM     18  C   UNL     1      -1.827   2.043   0.000  0.00  0.00    +0.000 A 
ATOM     19  C   UNL     1      -2.374   2.656   0.000  0.00  0.00    +0.000 A 
ATOM     20  C   UNL     1      -3.186   2.496   0.000  0.00  0.00    +0.000 A 
ATOM     21  C   UNL     1      -3.446   1.713   0.000  0.00  0.00    +0.000 A 
ATOM     22  C   UNL     1      -2.900   1.095   0.000  0.00  0.00    +0.000 A 
ATOM     23 CL   UNL     1      -3.734   3.111   0.000  0.00  0.00    +0.000 Cl
ENDBRANCH  16  17
BRANCH   7  24
ATOM     24  C   UNL     1      -3.318  -2.299   0.000  0.00  0.00    +0.000 C 
ATOM     25  O   UNL     1      -2.608  -2.708   0.000  0.00  0.00    +0.000 OA
BRANCH  24  26
ATOM     26  C   UNL     1      -4.023  -2.710   0.000  0.00  0.00    +0.000 C 
BRANCH  26  27
ATOM     27  N   UNL     1      -4.738  -2.298   0.000  0.00  0.00    +0.000 NA
BRANCH  27  28
ATOM     28  C   UNL     1      -4.738  -1.482   0.000  0.00  0.00    +0.000 C 
BRANCH  28  29
ATOM     29  C   UNL     1      -5.449  -1.071   0.000  0.00  0.00    +0.000 C 
BRANCH  29  30
ATOM     30  C   UNL     1      -6.157  -1.477   0.000  0.00  0.00    +0.000 C 
ATOM     31  C   UNL     1      -6.869  -1.067   0.000  0.00  0.00    +0.000 C 
ENDBRANCH  29  30
ENDBRANCH  28  29
ENDBRANCH  27  28
BRANCH  27  32
ATOM     32  C   UNL     1      -5.445  -2.704   0.000  0.00  0.00    +0.000 C 
BRANCH  32  33
ATOM     33  C   UNL     1      -6.153  -2.293   0.000  0.00  0.00    +0.000 C 
BRANCH  33  34
ATOM     34  C   UNL     1      -6.864  -2.700   0.000  0.00  0.00    +0.000 C 
ATOM     35  C   UNL     1      -7.572  -2.289   0.000  0.00  0.00    +0.000 C 
ENDBRANCH  33  34
ENDBRANCH  32  33
ENDBRANCH  27  32
ENDBRANCH  26  27
ENDBRANCH  24  26
ENDBRANCH   7  24
TORSDOF 10
