REMARK  Name = 
REMARK  12 active torsions:
REMARK  status: ('A' for Active; 'I' for Inactive)
REMARK    1  A    between atoms: N_2  and  C_39
REMARK    2  A    between atoms: N_2  and  C_40
REMARK    3  A    between atoms: C_3  and  C_9
REMARK    4  A    between atoms: C_3  and  C_10
REMARK    5  A    between atoms: C_11  and  N_13
REMARK    6  A    between atoms: C_12  and  S_22
REMARK    7  A    between atoms: N_13  and  C_26
REMARK    8  A    between atoms: N_13  and  C_28
REMARK    9  A    between atoms: C_28  and  C_29
REMARK   10  A    between atoms: C_33  and  S_35
REMARK   11  A    between atoms: C_39  and  C_42
REMARK   12  A    between atoms: C_46  and  S_48
REMARK                            x       y       z     vdW  Elec       q    Type
REMARK                         _______ _______ _______ _____ _____    ______ ____
ROOT
ATOM      1  C   UNL     1       0.822   0.965   0.000  0.00  0.00    +0.000 C 
ATOM      2  N   UNL     1       2.965   2.304   0.000  0.00  0.00    +0.000 N 
ATOM      3  C   UNL     1       0.099   0.512   0.000  0.00  0.00    +0.000 C 
ATOM      4  C   UNL     1       2.242   1.852   0.000  0.00  0.00    +0.000 C 
ATOM      5  C   UNL     1       1.555   0.566   0.000  0.00  0.00    +0.000 C 
ATOM      6  C   UNL     1       0.785   1.798   0.000  0.00  0.00    +0.000 C 
ATOM      7  C   UNL     1       1.482   2.234   0.000  0.00  0.00    +0.000 C 
ATOM      8  C   UNL     1       2.252   1.001   0.000  0.00  0.00    +0.000 C 
ENDROOT
BRANCH   3   9
ATOM      9  C   UNL     1      -0.635   0.911   0.000  0.00  0.00    +0.000 A 
ATOM     10  C   UNL     1      -2.085   1.681   0.000  0.00  0.00    +0.000 A 
ATOM     11  C   UNL     1      -1.331   0.475   0.000  0.00  0.00    +0.000 A 
ATOM     12  C   UNL     1      -0.655   1.718   0.000  0.00  0.00    +0.000 A 
ATOM     13  C   UNL     1      -2.075   0.831   0.000  0.00  0.00    +0.000 A 
ATOM     14  C   UNL     1      -1.388   2.117   0.000  0.00  0.00    +0.000 A 
BRANCH  10  15
ATOM     15  N   UNL     1      -2.862   2.090   0.000  0.00  0.00    +0.000 N 
BRANCH  15  16
ATOM     16  C   UNL     1      -2.894   2.911   0.000  0.00  0.00    +0.000 C 
ATOM     17  C   UNL     1      -2.200   3.349   0.000  0.00  0.00    +0.000 C 
ENDBRANCH  15  16
BRANCH  15  18
ATOM     18  C   UNL     1      -3.557   1.651   0.000  0.00  0.00    +0.000 C 
BRANCH  18  19
ATOM     19  C   UNL     1      -4.290   2.050   0.000  0.00  0.00    +0.000 A 
ATOM     20  C   UNL     1      -5.740   2.820   0.000  0.00  0.00    +0.000 A 
ATOM     21  C   UNL     1      -4.987   1.615   0.000  0.00  0.00    +0.000 A 
ATOM     22  C   UNL     1      -4.310   2.857   0.000  0.00  0.00    +0.000 A 
ATOM     23  C   UNL     1      -5.731   1.970   0.000  0.00  0.00    +0.000 A 
ATOM     24  C   UNL     1      -5.044   3.256   0.000  0.00  0.00    +0.000 A 
BRANCH  23  25
ATOM     25  S   UNL     1      -6.444   1.554   0.000  0.00  0.00    +0.000 S 
ATOM     26  O   UNL     1      -7.157   1.959   0.000  0.00  0.00    +0.000 OA
ATOM     27  O   UNL     1      -6.029   0.841   0.000  0.00  0.00    +0.000 OA
ATOM     28  O   UNL     1      -6.860   0.841   0.000  0.00  0.00    +0.000 OA
ENDBRANCH  23  25
ENDBRANCH  18  19
ENDBRANCH  15  18
ENDBRANCH  10  15
ENDBRANCH   3   9
BRANCH   3  29
ATOM     29  C   UNL     1       0.152  -0.348   0.000  0.00  0.00    +0.000 A 
ATOM     30  C   UNL     1       0.226  -2.016   0.000  0.00  0.00    +0.000 A 
ATOM     31  C   UNL     1       0.885  -0.747   0.000  0.00  0.00    +0.000 A 
ATOM     32  C   UNL     1      -0.545  -0.783   0.000  0.00  0.00    +0.000 A 
ATOM     33  C   UNL     1      -0.535  -1.634   0.000  0.00  0.00    +0.000 A 
ATOM     34  C   UNL     1       0.922  -1.581   0.000  0.00  0.00    +0.000 A 
BRANCH  30  35
ATOM     35  S   UNL     1       0.226  -2.842   0.000  0.00  0.00    +0.000 S 
ATOM     36  O   UNL     1      -0.484  -3.253   0.000  0.00  0.00    +0.000 OA
ATOM     37  O   UNL     1       1.050  -2.842   0.000  0.00  0.00    +0.000 OA
ATOM     38  O   UNL     1       0.632  -3.560   0.000  0.00  0.00    +0.000 OA
ENDBRANCH  30  35
ENDBRANCH   3  29
BRANCH   2  39
ATOM     39  C   UNL     1       2.937   3.125   0.000  0.00  0.00    +0.000 C 
ATOM     40  C   UNL     1       3.633   3.560   0.000  0.00  0.00    +0.000 C 
ENDBRANCH   2  39
BRANCH   2  41
ATOM     41  C   UNL     1       3.691   1.918   0.000  0.00  0.00    +0.000 C 
BRANCH  41  42
ATOM     42  C   UNL     1       4.424   2.317   0.000  0.00  0.00    +0.000 A 
ATOM     43  C   UNL     1       5.874   3.087   0.000  0.00  0.00    +0.000 A 
ATOM     44  C   UNL     1       5.121   1.882   0.000  0.00  0.00    +0.000 A 
ATOM     45  C   UNL     1       4.444   3.124   0.000  0.00  0.00    +0.000 A 
ATOM     46  C   UNL     1       5.864   2.237   0.000  0.00  0.00    +0.000 A 
ATOM     47  C   UNL     1       5.178   3.523   0.000  0.00  0.00    +0.000 A 
BRANCH  46  48
ATOM     48  S   UNL     1       6.578   1.821   0.000  0.00  0.00    +0.000 S 
ATOM     49  O   UNL     1       7.291   2.226   0.000  0.00  0.00    +0.000 OA
ATOM     50  O   UNL     1       6.162   1.108   0.000  0.00  0.00    +0.000 OA
ATOM     51  O   UNL     1       6.994   1.108   0.000  0.00  0.00    +0.000 OA
ENDBRANCH  46  48
ENDBRANCH  41  42
ENDBRANCH   2  41
TORSDOF 12
REMARK  Name = 
REMARK  12 active torsions:
REMARK  status: ('A' for Active; 'I' for Inactive)
REMARK    1  A    between atoms: N_2  and  C_39
REMARK    2  A    between atoms: N_2  and  C_40
REMARK    3  A    between atoms: C_3  and  C_9
REMARK    4  A    between atoms: C_3  and  C_10
REMARK    5  A    between atoms: C_11  and  N_13
REMARK    6  A    between atoms: C_12  and  S_22
REMARK    7  A    between atoms: N_13  and  C_26
REMARK    8  A    between atoms: N_13  and  C_28
REMARK    9  A    between atoms: C_28  and  C_29
REMARK   10  A    between atoms: C_33  and  S_35
REMARK   11  A    between atoms: C_39  and  C_42
REMARK   12  A    between atoms: C_46  and  S_48
REMARK                            x       y       z     vdW  Elec       q    Type
REMARK                         _______ _______ _______ _____ _____    ______ ____
ROOT
ATOM      1 NA   UNL     1      -8.180   1.423   0.000  0.00  0.00    +0.000 Na
ENDROOT
TORSDOF 0
REMARK  Name = 
REMARK  12 active torsions:
REMARK  status: ('A' for Active; 'I' for Inactive)
REMARK    1  A    between atoms: N_2  and  C_39
REMARK    2  A    between atoms: N_2  and  C_40
REMARK    3  A    between atoms: C_3  and  C_9
REMARK    4  A    between atoms: C_3  and  C_10
REMARK    5  A    between atoms: C_11  and  N_13
REMARK    6  A    between atoms: C_12  and  S_22
REMARK    7  A    between atoms: N_13  and  C_26
REMARK    8  A    between atoms: N_13  and  C_28
REMARK    9  A    between atoms: C_28  and  C_29
REMARK   10  A    between atoms: C_33  and  S_35
REMARK   11  A    between atoms: C_39  and  C_42
REMARK   12  A    between atoms: C_46  and  S_48
REMARK                            x       y       z     vdW  Elec       q    Type
REMARK                         _______ _______ _______ _____ _____    ______ ____
ROOT
ATOM      1 NA   UNL     1       8.180   1.720   0.000  0.00  0.00    +0.000 Na
ENDROOT
TORSDOF 0
