REMARK  Name = 
REMARK  4 active torsions:
REMARK  status: ('A' for Active; 'I' for Inactive)
REMARK    1  A    between atoms: C_1  and  C_2
REMARK    2  A    between atoms: C_1  and  C_3
REMARK    3  A    between atoms: C_12  and  C_18
REMARK    4  A    between atoms: C_19  and  N_27
REMARK                            x       y       z     vdW  Elec       q    Type
REMARK                         _______ _______ _______ _____ _____    ______ ____
ROOT
ATOM      1  C   UNL     1       0.689   1.037   0.000  0.00  0.00    +0.000 C 
ATOM      2  C   UNL     1      -0.385   1.818   0.000  0.00  0.00    +0.000 C 
ATOM      3  N   UNL     1      -0.687  -0.686   0.000  0.00  0.00    +0.000 N 
ATOM      4  C   UNL     1       0.027  -0.275   0.000  0.00  0.00    +0.000 C 
ATOM      5  N   UNL     1       0.027   0.547   0.000  0.00  0.00    +0.000 N 
ATOM      6  C   UNL     1      -1.401  -0.273   0.000  0.00  0.00    +0.000 C 
ATOM      7  O   UNL     1       0.742  -0.688   0.000  0.00  0.00    +0.000 OA
ATOM      8  C   UNL     1       0.436   1.817   0.000  0.00  0.00    +0.000 C 
ATOM      9  C   UNL     1      -0.640   1.034   0.000  0.00  0.00    +0.000 C 
ENDROOT
BRANCH   2  12
ATOM     10  C   UNL     1      -2.006   3.283   0.000  0.00  0.00    +0.000 A 
ATOM     11  C   UNL     1      -1.607   2.559   0.000  0.00  0.00    +0.000 A 
ATOM     12  C   UNL     1      -0.783   2.541   0.000  0.00  0.00    +0.000 A 
ATOM     13  C   UNL     1      -0.356   3.251   0.000  0.00  0.00    +0.000 A 
ATOM     14  C   UNL     1      -0.758   3.975   0.000  0.00  0.00    +0.000 A 
ATOM     15  C   UNL     1      -1.583   3.987   0.000  0.00  0.00    +0.000 A 
ATOM     16  F   UNL     1      -2.833   3.285   0.000  0.00  0.00    +0.000 F 
ATOM     17  F   UNL     1       0.469   3.236   0.000  0.00  0.00    +0.000 F 
ENDBRANCH   2  12
BRANCH   3  18
ATOM     18  C   UNL     1      -0.687  -1.511   0.000  0.00  0.00    +0.000 C 
ATOM     19  C   UNL     1      -1.404  -1.922   0.000  0.00  0.00    +0.000 C 
ATOM     20  C   UNL     1      -1.407  -2.744   0.000  0.00  0.00    +0.000 C 
ATOM     21  N   UNL     1      -0.694  -3.162   0.000  0.00  0.00    +0.000 NA
ATOM     22  C   UNL     1       0.024  -2.751   0.000  0.00  0.00    +0.000 C 
ATOM     23  C   UNL     1       0.028  -1.922   0.000  0.00  0.00    +0.000 C 
ATOM     24  F   UNL     1      -2.118  -1.507   0.000  0.00  0.00    +0.000 F 
ATOM     25  C   UNL     1      -0.697  -3.987   0.000  0.00  0.00    +0.000 C 
ENDBRANCH   3  18
BRANCH   1  26
ATOM     26  C   UNL     1       1.404   1.451   0.000  0.00  0.00    +0.000 A 
ATOM     27  C   UNL     1       2.119   1.037   0.000  0.00  0.00    +0.000 A 
ATOM     28  C   UNL     1       2.833   1.450   0.000  0.00  0.00    +0.000 A 
ATOM     29  C   UNL     1       2.832   2.277   0.000  0.00  0.00    +0.000 A 
ATOM     30  C   UNL     1       2.111   2.688   0.000  0.00  0.00    +0.000 A 
ATOM     31  C   UNL     1       1.400   2.272   0.000  0.00  0.00    +0.000 A 
ENDBRANCH   1  26
BRANCH   1  32
ATOM     32  C   UNL     1       1.404   0.626   0.000  0.00  0.00    +0.000 C 
ATOM     33  O   UNL     1       1.401  -0.199   0.000  0.00  0.00    +0.000 OA
ENDBRANCH   1  32
TORSDOF 4
