REMARK  Name = 
REMARK  3 active torsions:
REMARK  status: ('A' for Active; 'I' for Inactive)
REMARK    1  A    between atoms: C_1  and  HG_2
REMARK    2  A    between atoms: HG_2  and  O_5
REMARK    3  A    between atoms: O_5  and  C_8
REMARK                            x       y       z     vdW  Elec       q    Type
REMARK                         _______ _______ _______ _____ _____    ______ ____
ROOT
ATOM      1  C   UNL     1       0.715   0.000   0.000  0.00  0.00    +0.000 A 
ATOM      2  C   UNL     1       1.429   0.412   0.000  0.00  0.00    +0.000 A 
ATOM      3  C   UNL     1       0.715  -0.825   0.000  0.00  0.00    +0.000 A 
ATOM      4  C   UNL     1       2.143   0.000   0.000  0.00  0.00    +0.000 A 
ATOM      5  C   UNL     1       1.429  -1.238   0.000  0.00  0.00    +0.000 A 
ATOM      6  C   UNL     1       2.143  -0.825   0.000  0.00  0.00    +0.000 A 
ENDROOT
BRANCH   1   7
ATOM      7 HG   UNL     1       0.000   0.412   0.000  0.00  0.00    +0.000 Hg
BRANCH   7   8
ATOM      8  O   UNL     1      -0.715   0.000   0.000  0.00  0.00    +0.000 OA
BRANCH   8   9
ATOM      9  C   UNL     1      -1.429   0.412   0.000  0.00  0.00    +0.000 C 
ATOM     10  C   UNL     1      -2.143   0.000   0.000  0.00  0.00    +0.000 C 
ATOM     11  O   UNL     1      -1.429   1.238   0.000  0.00  0.00    +0.000 OA
ENDBRANCH   8   9
ENDBRANCH   7   8
ENDBRANCH   1   7
TORSDOF 3
