REMARK  Name = 
REMARK  2 active torsions:
REMARK  status: ('A' for Active; 'I' for Inactive)
REMARK    1  A    between atoms: C_11  and  C_13
REMARK    2  A    between atoms: C_12  and  S_19
REMARK                            x       y       z     vdW  Elec       q    Type
REMARK                         _______ _______ _______ _____ _____    ______ ____
ROOT
ATOM      1  C   UNL     1      -0.584   2.237   0.000  0.00  0.00    +0.000 A 
ATOM      2  C   UNL     1      -0.584   0.808   0.000  0.00  0.00    +0.000 A 
ATOM      3  C   UNL     1      -1.409   2.237   0.000  0.00  0.00    +0.000 A 
ATOM      4  C   UNL     1      -1.409   0.808   0.000  0.00  0.00    +0.000 A 
ATOM      5  C   UNL     1      -0.171   1.523   0.000  0.00  0.00    +0.000 A 
ATOM      6  C   UNL     1      -1.821   1.523   0.000  0.00  0.00    +0.000 A 
ENDROOT
BRANCH   5  12
ATOM      7  C   UNL     1       3.352   1.110   0.000  0.00  0.00    +0.000 A 
ATOM      8  C   UNL     1       3.352   1.935   0.000  0.00  0.00    +0.000 A 
ATOM      9  C   UNL     1       2.638   0.698   0.000  0.00  0.00    +0.000 A 
ATOM     10  C   UNL     1       2.638   2.348   0.000  0.00  0.00    +0.000 A 
ATOM     11  C   UNL     1       1.139   2.190   0.000  0.00  0.00    +0.000 A 
ATOM     12  C   UNL     1       0.654   1.523   0.000  0.00  0.00    +0.000 A 
ATOM     13  C   UNL     1       1.923   1.110   0.000  0.00  0.00    +0.000 A 
ATOM     14  N   UNL     1       1.139   0.856   0.000  0.00  0.00    +0.000 NA
ATOM     15  N   UNL     1       1.923   1.935   0.000  0.00  0.00    +0.000 N 
ENDBRANCH   5  12
BRANCH   6  19
ATOM     16  C   UNL     1      -3.471   1.523   0.000  0.00  0.00    +0.000 C 
ATOM     17  O   UNL     1      -2.646   0.698   0.000  0.00  0.00    +0.000 OA
ATOM     18  O   UNL     1      -2.646   2.348   0.000  0.00  0.00    +0.000 OA
ATOM     19  S   UNL     1      -2.646   1.523   0.000  0.00  0.00    +0.000 S 
ENDBRANCH   6  19
TORSDOF 2
