REMARK  Name = 
REMARK  0 active torsions:
REMARK  status: ('A' for Active; 'I' for Inactive)
REMARK                            x       y       z     vdW  Elec       q    Type
REMARK                         _______ _______ _______ _____ _____    ______ ____
ROOT
ATOM      1  O   UNL     1      -0.715   0.619   0.000  0.00  0.00    +0.000 OA
ATOM      2  S   UNL     1      -0.715  -0.206   0.000  0.00  0.00    +0.000 S 
ATOM      3  O   UNL     1       0.000  -0.619   0.000  0.00  0.00    +0.000 OA
ATOM      4  O   UNL     1      -1.429  -0.619   0.000  0.00  0.00    +0.000 OA
ENDROOT
TORSDOF 0
REMARK  Name = 
REMARK  0 active torsions:
REMARK  status: ('A' for Active; 'I' for Inactive)
REMARK                            x       y       z     vdW  Elec       q    Type
REMARK                         _______ _______ _______ _____ _____    ______ ____
ROOT
ATOM      1 NA   UNL     1       1.429  -0.619   0.000  0.00  0.00    +0.000 Na
ENDROOT
TORSDOF 0
