REMARK  Name = 
REMARK  4 active torsions:
REMARK  status: ('A' for Active; 'I' for Inactive)
REMARK    1  A    between atoms: SI_1  and  O_6
REMARK    2  A    between atoms: SI_1  and  O_7
REMARK    3  A    between atoms: SI_2  and  O_6
REMARK    4  A    between atoms: SI_3  and  O_7
REMARK                            x       y       z     vdW  Elec       q    Type
REMARK                         _______ _______ _______ _____ _____    ______ ____
ROOT
ATOM      1 SI   UNL     1       0.000  -0.495   0.000  0.00  0.00    +0.000 Si
ATOM      2  O   UNL     1      -0.583  -1.078   0.000  0.00  0.00    +0.000 OA
ATOM      3  O   UNL     1       0.583  -1.078   0.000  0.00  0.00    +0.000 OA
ENDROOT
BRANCH   1   4
ATOM      4  O   UNL     1       0.762  -0.179   0.000  0.00  0.00    +0.000 OA
BRANCH   4   5
ATOM      5 SI   UNL     1       1.078   0.583   0.000  0.00  0.00    +0.000 Si
ATOM      6  O   UNL     1       0.762   1.346   0.000  0.00  0.00    +0.000 OA
ATOM      7  O   UNL     1       1.903   0.583   0.000  0.00  0.00    +0.000 OA
ENDBRANCH   4   5
ENDBRANCH   1   4
BRANCH   1   8
ATOM      8  O   UNL     1      -0.762  -0.179   0.000  0.00  0.00    +0.000 OA
BRANCH   8   9
ATOM      9 SI   UNL     1      -1.078   0.583   0.000  0.00  0.00    +0.000 Si
ATOM     10  O   UNL     1      -0.762   1.346   0.000  0.00  0.00    +0.000 OA
ATOM     11  O   UNL     1      -1.903   0.583   0.000  0.00  0.00    +0.000 OA
ENDBRANCH   8   9
ENDBRANCH   1   8
TORSDOF 4
REMARK  Name = 
REMARK  4 active torsions:
REMARK  status: ('A' for Active; 'I' for Inactive)
REMARK    1  A    between atoms: SI_1  and  O_6
REMARK    2  A    between atoms: SI_1  and  O_7
REMARK    3  A    between atoms: SI_2  and  O_6
REMARK    4  A    between atoms: SI_3  and  O_7
REMARK                            x       y       z     vdW  Elec       q    Type
REMARK                         _______ _______ _______ _____ _____    ______ ____
ROOT
ATOM      1 MG   UNL     1       0.000  -1.661   0.000  0.00  0.00    +0.000 Mg
ENDROOT
TORSDOF 0
REMARK  Name = 
REMARK  4 active torsions:
REMARK  status: ('A' for Active; 'I' for Inactive)
REMARK    1  A    between atoms: SI_1  and  O_6
REMARK    2  A    between atoms: SI_1  and  O_7
REMARK    3  A    between atoms: SI_2  and  O_6
REMARK    4  A    between atoms: SI_3  and  O_7
REMARK                            x       y       z     vdW  Elec       q    Type
REMARK                         _______ _______ _______ _____ _____    ______ ____
ROOT
ATOM      1 MG   UNL     1       0.000   1.661   0.000  0.00  0.00    +0.000 Mg
ENDROOT
TORSDOF 0
