REMARK  Name = 
REMARK  2 active torsions:
REMARK  status: ('A' for Active; 'I' for Inactive)
REMARK    1  A    between atoms: C_4  and  C_12
REMARK    2  A    between atoms: C_24  and  S_26
REMARK                            x       y       z     vdW  Elec       q    Type
REMARK                         _______ _______ _______ _____ _____    ______ ____
ROOT
ATOM      1  C   UNL     1       1.429   0.000   0.000  0.00  0.00    +0.000 A 
ATOM      2  C   UNL     1       2.143  -0.412   0.000  0.00  0.00    +0.000 A 
ATOM      3  O   UNL     1       2.858   0.000   0.000  0.00  0.00    +0.000 OA
ATOM      4  C   UNL     1       3.572  -0.412   0.000  0.00  0.00    +0.000 C 
ATOM      5  C   UNL     1       3.854   0.363   0.000  0.00  0.00    +0.000 C 
ATOM      6  C   UNL     1       4.385  -0.556   0.000  0.00  0.00    +0.000 C 
ATOM      7  C   UNL     1       3.572  -1.238   0.000  0.00  0.00    +0.000 C 
ATOM      8  O   UNL     1       4.287  -1.650   0.000  0.00  0.00    +0.000 OA
ATOM      9  N   UNL     1       2.858  -1.650   0.000  0.00  0.00    +0.000 N 
ATOM     10  C   UNL     1       2.858  -2.475   0.000  0.00  0.00    +0.000 C 
ATOM     11  C   UNL     1       2.143  -1.238   0.000  0.00  0.00    +0.000 A 
ATOM     12  C   UNL     1       1.429  -1.650   0.000  0.00  0.00    +0.000 A 
ATOM     13  C   UNL     1       0.715  -1.238   0.000  0.00  0.00    +0.000 A 
ATOM     14  C   UNL     1       0.715  -0.412   0.000  0.00  0.00    +0.000 A 
ENDROOT
BRANCH   1  18
ATOM     15  C   UNL     1       2.858   2.475   0.000  0.00  0.00    +0.000 C 
ATOM     16  N   UNL     1       2.143   2.062   0.000  0.00  0.00    +0.000 N 
ATOM     17  C   UNL     1       2.143   1.238   0.000  0.00  0.00    +0.000 A 
ATOM     18  C   UNL     1       1.429   0.825   0.000  0.00  0.00    +0.000 A 
ATOM     19  C   UNL     1       0.715   1.238   0.000  0.00  0.00    +0.000 A 
ATOM     20  C   UNL     1       0.715   2.062   0.000  0.00  0.00    +0.000 A 
ATOM     21  N   UNL     1      -0.070   2.317   0.000  0.00  0.00    +0.000 NA
ATOM     22  C   UNL     1      -0.555   1.650   0.000  0.00  0.00    +0.000 A 
ATOM     23  C   UNL     1      -0.070   0.983   0.000  0.00  0.00    +0.000 A 
ATOM     24  C   UNL     1       1.429   2.475   0.000  0.00  0.00    +0.000 A 
ATOM     25  O   UNL     1       1.429   3.300   0.000  0.00  0.00    +0.000 OA
ENDBRANCH   1  18
BRANCH  13  26
ATOM     26  S   UNL     1       0.000  -1.650   0.000  0.00  0.00    +0.000 S 
ATOM     27  C   UNL     1      -0.715  -2.062   0.000  0.00  0.00    +0.000 C 
ATOM     28  O   UNL     1      -0.412  -0.935   0.000  0.00  0.00    +0.000 OA
ATOM     29  O   UNL     1       0.412  -2.365   0.000  0.00  0.00    +0.000 OA
ENDBRANCH  13  26
TORSDOF 2
