REMARK  Name = 
REMARK  1 active torsions:
REMARK  status: ('A' for Active; 'I' for Inactive)
REMARK    1  A    between atoms: C_4  and  C_21
REMARK                            x       y       z     vdW  Elec       q    Type
REMARK                         _______ _______ _______ _____ _____    ______ ____
ROOT
ATOM      1  C   UNL     1       4.019   1.049   0.000  0.00  0.00    +0.000 C 
ATOM      2  C   UNL     1       2.818  -2.021   0.000  0.00  0.00    +0.000 C 
ATOM      3  C   UNL     1       6.959  -1.329   0.000  0.00  0.00    +0.000 C 
ATOM      4  C   UNL     1       6.146  -1.474   0.000  0.00  0.00    +0.000 C 
ATOM      5  C   UNL     1       4.522  -1.764   0.000  0.00  0.00    +0.000 C 
ATOM      6  C   UNL     1       2.807   0.004   0.000  0.00  0.00    +0.000 C 
ATOM      7  C   UNL     1       3.710  -1.909   0.000  0.00  0.00    +0.000 C 
ATOM      8  C   UNL     1       2.124  -0.460   0.000  0.00  0.00    +0.000 C 
ATOM      9  C   UNL     1       5.363   0.564   0.000  0.00  0.00    +0.000 C 
ATOM     10  C   UNL     1       6.707   0.078   0.000  0.00  0.00    +0.000 C 
ATOM     11  C   UNL     1       4.551   0.418   0.000  0.00  0.00    +0.000 C 
ATOM     12  C   UNL     1       5.895  -0.067   0.000  0.00  0.00    +0.000 C 
ATOM     13  C   UNL     1       7.239  -0.553   0.000  0.00  0.00    +0.000 C 
ATOM     14  C   UNL     1       5.615  -0.843   0.000  0.00  0.00    +0.000 C 
ATOM     15  C   UNL     1       4.803  -0.988   0.000  0.00  0.00    +0.000 C 
ATOM     16  C   UNL     1       3.459  -0.503   0.000  0.00  0.00    +0.000 C 
ATOM     17  C   UNL     1       4.271  -0.358   0.000  0.00  0.00    +0.000 C 
ATOM     18  C   UNL     1       3.178  -1.279   0.000  0.00  0.00    +0.000 C 
ATOM     19  C   UNL     1       2.354  -1.252   0.000  0.00  0.00    +0.000 C 
ATOM     20  O   UNL     1       8.051  -0.407   0.000  0.00  0.00    +0.000 OA
ATOM     21  O   UNL     1       2.413  -2.075   0.000  0.00  0.00    +0.000 OA
ENDROOT
BRANCH  19  23
ATOM     22  C   UNL     1       0.730  -1.542   0.000  0.00  0.00    +0.000 C 
ATOM     23  C   UNL     1       1.542  -1.397   0.000  0.00  0.00    +0.000 C 
ENDBRANCH  19  23
TORSDOF 1
