REMARK  Name = 
REMARK  11 active torsions:
REMARK  status: ('A' for Active; 'I' for Inactive)
REMARK    1  A    between atoms: C_1  and  C_2
REMARK    2  A    between atoms: C_1  and  C_3
REMARK    3  A    between atoms: C_2  and  O_5
REMARK    4  A    between atoms: O_5  and  C_15
REMARK    5  A    between atoms: N_6  and  C_12
REMARK    6  A    between atoms: N_6  and  C_13
REMARK    7  A    between atoms: N_6  and  C_14
REMARK    8  A    between atoms: O_9  and  C_16
REMARK    9  A    between atoms: O_9  and  C_17
REMARK   10  A    between atoms: C_12  and  C_16
REMARK   11  A    between atoms: C_15  and  C_17
REMARK                            x       y       z     vdW  Elec       q    Type
REMARK                         _______ _______ _______ _____ _____    ______ ____
ROOT
ATOM      1  C   UNL     1       1.365  -1.250   0.000  0.00  0.00    +0.000 C 
ATOM      2  O   UNL     1       1.621  -2.043   0.000  0.00  0.00    +0.000 OA
ENDROOT
BRANCH   1   3
ATOM      3  C   UNL     1       1.928  -0.624   0.000  0.00  0.00    +0.000 C 
ATOM      4  C   UNL     1       1.327  -0.080   0.000  0.00  0.00    +0.000 C 
ATOM      5  C   UNL     1       2.651  -0.202   0.000  0.00  0.00    +0.000 C 
ATOM      6  C   UNL     1       2.465   0.585   0.000  0.00  0.00    +0.000 C 
ATOM      7  C   UNL     1       1.672   0.668   0.000  0.00  0.00    +0.000 C 
BRANCH   3   8
ATOM      8  C   UNL     1       2.369  -1.353   0.000  0.00  0.00    +0.000 A 
ATOM      9  C   UNL     1       3.195  -1.353   0.000  0.00  0.00    +0.000 A 
ATOM     10  C   UNL     1       1.947  -2.082   0.000  0.00  0.00    +0.000 A 
ATOM     11  C   UNL     1       3.617  -2.082   0.000  0.00  0.00    +0.000 A 
ATOM     12  C   UNL     1       2.369  -2.792   0.000  0.00  0.00    +0.000 A 
ATOM     13  C   UNL     1       3.195  -2.792   0.000  0.00  0.00    +0.000 A 
ENDBRANCH   3   8
ENDBRANCH   1   3
BRANCH   1  14
ATOM     14  O   UNL     1       0.566  -1.058   0.000  0.00  0.00    +0.000 OA
BRANCH  14  15
ATOM     15  C   UNL     1       0.317  -0.291   0.000  0.00  0.00    +0.000 C 
BRANCH  15  16
ATOM     16  C   UNL     1      -0.476  -0.086   0.000  0.00  0.00    +0.000 C 
BRANCH  16  17
ATOM     17  O   UNL     1      -0.707   0.668   0.000  0.00  0.00    +0.000 OA
BRANCH  17  18
ATOM     18  C   UNL     1      -1.525   0.860   0.000  0.00  0.00    +0.000 C 
BRANCH  18  19
ATOM     19  C   UNL     1      -1.756   1.640   0.000  0.00  0.00    +0.000 C 
BRANCH  19  20
ATOM     20  N   UNL     1      -2.568   1.832   0.000  0.00  0.00    +0.000 NA
BRANCH  20  21
ATOM     21  C   UNL     1      -2.830   2.619   0.000  0.00  0.00    +0.000 C 
ATOM     22  C   UNL     1      -3.617   2.792   0.000  0.00  0.00    +0.000 C 
ENDBRANCH  20  21
BRANCH  20  23
ATOM     23  C   UNL     1      -3.118   1.218   0.000  0.00  0.00    +0.000 C 
ATOM     24  C   UNL     1      -2.868   0.432   0.000  0.00  0.00    +0.000 C 
ENDBRANCH  20  23
ENDBRANCH  19  20
ENDBRANCH  18  19
ENDBRANCH  17  18
ENDBRANCH  16  17
ENDBRANCH  15  16
ENDBRANCH  14  15
ENDBRANCH   1  14
TORSDOF 11
