REMARK  Name = 
REMARK  7 active torsions:
REMARK  status: ('A' for Active; 'I' for Inactive)
REMARK    1  A    between atoms: C_2  and  C_4
REMARK    2  A    between atoms: C_7  and  C_10
REMARK    3  A    between atoms: C_12  and  N_13
REMARK    4  A    between atoms: C_14  and  C_16
REMARK    5  A    between atoms: C_16  and  C_19
REMARK    6  A    between atoms: C_34  and  O_35
REMARK    7  A    between atoms: O_35  and  C_36
REMARK                            x       y       z     vdW  Elec       q    Type
REMARK                         _______ _______ _______ _____ _____    ______ ____
ROOT
ATOM      1  C   UNL     1      -0.715  -0.412   0.000  0.00  0.00    +0.000 C 
ATOM      2  C   UNL     1      -0.715  -1.238   0.000  0.00  0.00    +0.000 C 
ATOM      3  C   UNL     1       0.000  -1.650   0.000  0.00  0.00    +0.000 C 
ATOM      4  C   UNL     1       0.715  -1.238   0.000  0.00  0.00    +0.000 A 
ATOM      5  C   UNL     1       0.715  -0.412   0.000  0.00  0.00    +0.000 A 
ATOM      6  O   UNL     1       0.000   0.000   0.000  0.00  0.00    +0.000 OA
ATOM      7  C   UNL     1       1.429   0.000   0.000  0.00  0.00    +0.000 A 
ATOM      8  C   UNL     1       2.143  -0.412   0.000  0.00  0.00    +0.000 A 
ATOM      9  C   UNL     1       2.143  -1.238   0.000  0.00  0.00    +0.000 A 
ATOM     10  C   UNL     1       1.429  -1.650   0.000  0.00  0.00    +0.000 A 
ENDROOT
BRANCH   1  14
ATOM     11  C   UNL     1      -2.858   0.825   0.000  0.00  0.00    +0.000 A 
ATOM     12  C   UNL     1      -2.143   1.238   0.000  0.00  0.00    +0.000 A 
ATOM     13  C   UNL     1      -1.429   0.825   0.000  0.00  0.00    +0.000 A 
ATOM     14  C   UNL     1      -1.429   0.000   0.000  0.00  0.00    +0.000 A 
ATOM     15  C   UNL     1      -2.143  -0.412   0.000  0.00  0.00    +0.000 A 
ATOM     16  C   UNL     1      -2.858   0.000   0.000  0.00  0.00    +0.000 A 
BRANCH  11  18
ATOM     17  O   UNL     1      -4.287   0.825   0.000  0.00  0.00    +0.000 OA
ATOM     18  C   UNL     1      -3.572   1.238   0.000  0.00  0.00    +0.000 C 
ATOM     19  O   UNL     1      -3.572   2.062   0.000  0.00  0.00    +0.000 OA
ENDBRANCH  11  18
ENDBRANCH   1  14
BRANCH   3  20
ATOM     20  N   UNL     1       0.000  -2.475   0.000  0.00  0.00    +0.000 NA
ATOM     21  C   UNL     1       0.715  -2.888   0.000  0.00  0.00    +0.000 C 
ATOM     22  O   UNL     1       1.429  -2.475   0.000  0.00  0.00    +0.000 OA
BRANCH  21  23
ATOM     23  C   UNL     1       0.715  -3.712   0.000  0.00  0.00    +0.000 C 
ATOM     24  C   UNL     1       0.432  -4.488   0.000  0.00  0.00    +0.000 C 
ATOM     25  C   UNL     1      -0.098  -3.856   0.000  0.00  0.00    +0.000 C 
BRANCH  23  26
ATOM     26  C   UNL     1       1.527  -3.856   0.000  0.00  0.00    +0.000 A 
ATOM     27  C   UNL     1       2.057  -3.224   0.000  0.00  0.00    +0.000 A 
ATOM     28  C   UNL     1       2.870  -3.367   0.000  0.00  0.00    +0.000 A 
ATOM     29  C   UNL     1       3.152  -4.142   0.000  0.00  0.00    +0.000 A 
ATOM     30  O   UNL     1       3.976  -4.114   0.000  0.00  0.00    +0.000 OA
ATOM     31  C   UNL     1       4.204  -3.320   0.000  0.00  0.00    +0.000 C 
ATOM     32  F   UNL     1       4.969  -3.630   0.000  0.00  0.00    +0.000 F 
ATOM     33  F   UNL     1       4.591  -2.592   0.000  0.00  0.00    +0.000 F 
ATOM     34  O   UNL     1       3.520  -2.859   0.000  0.00  0.00    +0.000 OA
ATOM     35  C   UNL     1       2.622  -4.774   0.000  0.00  0.00    +0.000 A 
ATOM     36  C   UNL     1       1.809  -4.631   0.000  0.00  0.00    +0.000 A 
ENDBRANCH  23  26
ENDBRANCH  21  23
ENDBRANCH   3  20
BRANCH   8  37
ATOM     37  O   UNL     1       2.858   0.000   0.000  0.00  0.00    +0.000 OA
BRANCH  37  38
ATOM     38  C   UNL     1       2.858   0.825   0.000  0.00  0.00    +0.000 C 
ATOM     39  F   UNL     1       2.143   1.238   0.000  0.00  0.00    +0.000 F 
ATOM     40  F   UNL     1       3.572   1.238   0.000  0.00  0.00    +0.000 F 
ENDBRANCH  37  38
ENDBRANCH   8  37
TORSDOF 7
