REMARK  Name = 
REMARK  3 active torsions:
REMARK  status: ('A' for Active; 'I' for Inactive)
REMARK    1  A    between atoms: N_5  and  C_8
REMARK    2  A    between atoms: C_11  and  N_15
REMARK    3  A    between atoms: C_17  and  C_21
REMARK                            x       y       z     vdW  Elec       q    Type
REMARK                         _______ _______ _______ _____ _____    ______ ____
ROOT
ATOM      1  C   UNL     1       0.715   5.941   0.000  0.00  0.00    +0.000 A 
ATOM      2  C   UNL     1       1.429   5.529   0.000  0.00  0.00    +0.000 A 
ATOM      3  C   UNL     1       1.429   4.704   0.000  0.00  0.00    +0.000 A 
ATOM      4  C   UNL     1       0.715   4.291   0.000  0.00  0.00    +0.000 A 
ATOM      5  C   UNL     1       0.000   4.704   0.000  0.00  0.00    +0.000 A 
ATOM      6  C   UNL     1       0.000   5.529   0.000  0.00  0.00    +0.000 A 
ATOM      7  F   UNL     1      -0.715   5.941   0.000  0.00  0.00    +0.000 F 
ENDROOT
BRANCH   1  12
ATOM      8  C   UNL     1       0.715   9.241   0.000  0.00  0.00    +0.000 C 
ATOM      9  N   UNL     1       0.715   8.416   0.000  0.00  0.00    +0.000 N 
ATOM     10  C   UNL     1       1.429   8.004   0.000  0.00  0.00    +0.000 C 
ATOM     11  C   UNL     1       1.429   7.179   0.000  0.00  0.00    +0.000 C 
ATOM     12  N   UNL     1       0.715   6.766   0.000  0.00  0.00    +0.000 N 
ATOM     13  C   UNL     1       0.000   7.179   0.000  0.00  0.00    +0.000 C 
ATOM     14  N   UNL     1       0.000   8.004   0.000  0.00  0.00    +0.000 NA
ENDBRANCH   1  12
BRANCH   4  15
ATOM     15  N   UNL     1       0.715   3.466   0.000  0.00  0.00    +0.000 N 
ATOM     16  C   UNL     1       1.382   2.981   0.000  0.00  0.00    +0.000 C 
ATOM     17  C   UNL     1       1.127   2.196   0.000  0.00  0.00    +0.000 C 
ATOM     18  O   UNL     1       0.302   2.196   0.000  0.00  0.00    +0.000 OA
ATOM     19  C   UNL     1       0.047   2.981   0.000  0.00  0.00    +0.000 C 
ATOM     20  O   UNL     1      -0.738   3.236   0.000  0.00  0.00    +0.000 OA
BRANCH  17  21
ATOM     21  C   UNL     1       1.612   1.529   0.000  0.00  0.00    +0.000 C 
ATOM     22  O   UNL     1       2.432   1.615   0.000  0.00  0.00    +0.000 OA
ENDBRANCH  17  21
ENDBRANCH   4  15
TORSDOF 3
