REMARK  Name = 
REMARK  9 active torsions:
REMARK  status: ('A' for Active; 'I' for Inactive)
REMARK    1  A    between atoms: C_1  and  N_45
REMARK    2  A    between atoms: C_6  and  O_7
REMARK    3  A    between atoms: O_7  and  C_8
REMARK    4  A    between atoms: C_8  and  C_9
REMARK    5  A    between atoms: C_9  and  C_11
REMARK    6  A    between atoms: C_30  and  C_35
REMARK    7  A    between atoms: C_31  and  C_32
REMARK    8  A    between atoms: C_35  and  C_36
REMARK    9  A    between atoms: C_46  and  C_50
REMARK                            x       y       z     vdW  Elec       q    Type
REMARK                         _______ _______ _______ _____ _____    ______ ____
ROOT
ATOM      1  C   UNL     1      -2.143  -0.165   0.000  0.00  0.00    +0.000 C 
ATOM      2  C   UNL     1      -1.427   0.252   0.000  0.00  0.00    +0.000 C 
ATOM      3  C   UNL     1      -0.711  -0.165   0.000  0.00  0.00    +0.000 C 
ATOM      4  C   UNL     1      -0.711  -0.985   0.000  0.00  0.00    +0.000 C 
ATOM      5  C   UNL     1      -1.427  -1.402   0.000  0.00  0.00    +0.000 C 
ATOM      6  C   UNL     1      -2.143  -0.985   0.000  0.00  0.00    +0.000 C 
ATOM      7  C   UNL     1      -1.819  -0.818   0.000  0.00  0.00    +0.000 C 
ATOM      8  O   UNL     1      -1.819  -0.336   0.000  0.00  0.00    +0.000 OA
ATOM      9  C   UNL     1      -1.405  -0.055   0.000  0.00  0.00    +0.000 C 
ATOM     10  C   UNL     1      -1.427  -2.230   0.000  0.00  0.00    +0.000 C 
ATOM     11  C   UNL     1       0.000  -1.402   0.000  0.00  0.00    +0.000 C 
ATOM     12  C   UNL     1       0.716  -0.985   0.000  0.00  0.00    +0.000 C 
ATOM     13  C   UNL     1       0.716  -0.165   0.000  0.00  0.00    +0.000 C 
ATOM     14  C   UNL     1       0.000   0.252   0.000  0.00  0.00    +0.000 C 
ATOM     15  C   UNL     1       0.000   1.073   0.000  0.00  0.00    +0.000 C 
ATOM     16  C   UNL     1       0.716   1.485   0.000  0.00  0.00    +0.000 C 
ATOM     17  C   UNL     1       1.427   1.073   0.000  0.00  0.00    +0.000 C 
ATOM     18  C   UNL     1       1.427   0.252   0.000  0.00  0.00    +0.000 C 
ATOM     19  C   UNL     1       2.143  -0.165   0.000  0.00  0.00    +0.000 C 
ATOM     20  C   UNL     1       2.855   0.252   0.000  0.00  0.00    +0.000 C 
ATOM     21  C   UNL     1       2.855   1.073   0.000  0.00  0.00    +0.000 C 
ATOM     22  C   UNL     1       2.143   1.485   0.000  0.00  0.00    +0.000 C 
ATOM     23  C   UNL     1       2.855   1.902   0.000  0.00  0.00    +0.000 C 
ATOM     24  C   UNL     1       1.427  -0.573   0.000  0.00  0.00    +0.000 C 
ATOM     25  C   UNL     1       1.427   1.902   0.000  0.00  0.00    +0.000 C 
ENDROOT
BRANCH   1  26
ATOM     26  N   UNL     1      -2.855   0.252   0.000  0.00  0.00    +0.000 N 
ATOM     27  C   UNL     1      -2.944   1.069   0.000  0.00  0.00    +0.000 A 
ATOM     28  N   UNL     1      -3.736   1.284   0.000  0.00  0.00    +0.000 NA
ATOM     29  C   UNL     1      -4.161   0.526   0.000  0.00  0.00    +0.000 A 
ATOM     30  N   UNL     1      -3.579  -0.056   0.000  0.00  0.00    +0.000 NA
BRANCH  27  31
ATOM     31  C   UNL     1      -2.360   1.653   0.000  0.00  0.00    +0.000 A 
ATOM     32  C   UNL     1      -2.575   2.448   0.000  0.00  0.00    +0.000 A 
ATOM     33  C   UNL     1      -1.993   3.033   0.000  0.00  0.00    +0.000 A 
ATOM     34  N   UNL     1      -1.193   2.818   0.000  0.00  0.00    +0.000 NA
ATOM     35  C   UNL     1      -0.982   2.025   0.000  0.00  0.00    +0.000 A 
ATOM     36  C   UNL     1      -1.560   1.437   0.000  0.00  0.00    +0.000 A 
ENDBRANCH  27  31
ENDBRANCH   1  26
BRANCH  22  37
ATOM     37  C   UNL     1       2.143   2.310   0.000  0.00  0.00    +0.000 C 
ATOM     38  O   UNL     1       1.427   2.723   0.000  0.00  0.00    +0.000 OA
ATOM     39  O   UNL     1       2.855   2.723   0.000  0.00  0.00    +0.000 OA
ENDBRANCH  22  37
BRANCH  21  40
ATOM     40  C   UNL     1       3.571   1.485   0.000  0.00  0.00    +0.000 C 
ATOM     41  C   UNL     1       3.571   2.310   0.000  0.00  0.00    +0.000 C 
BRANCH  40  42
ATOM     42  C   UNL     1       4.287   1.073   0.000  0.00  0.00    +0.000 C 
ATOM     43  C   UNL     1       5.003   1.485   0.000  0.00  0.00    +0.000 C 
ATOM     44  C   UNL     1       4.287   0.252   0.000  0.00  0.00    +0.000 C 
ENDBRANCH  40  42
ENDBRANCH  21  40
BRANCH   6  45
ATOM     45  O   UNL     1      -2.855  -1.402   0.000  0.00  0.00    +0.000 OA
BRANCH  45  46
ATOM     46  C   UNL     1      -3.571  -0.985   0.000  0.00  0.00    +0.000 C 
BRANCH  46  47
ATOM     47  C   UNL     1      -4.287  -1.402   0.000  0.00  0.00    +0.000 C 
ATOM     48  N   UNL     1      -5.003  -0.985   0.000  0.00  0.00    +0.000 NA
ATOM     49  C   UNL     1      -3.487  -1.613   0.000  0.00  0.00    +0.000 C 
BRANCH  47  50
ATOM     50  C   UNL     1      -4.287  -2.223   0.000  0.00  0.00    +0.000 C 
ATOM     51  C   UNL     1      -3.571  -2.635   0.000  0.00  0.00    +0.000 C 
ATOM     52  C   UNL     1      -5.003  -2.635   0.000  0.00  0.00    +0.000 C 
ATOM     53  C   UNL     1      -4.357  -3.033   0.000  0.00  0.00    +0.000 C 
ENDBRANCH  47  50
ENDBRANCH  46  47
ENDBRANCH  45  46
ENDBRANCH   6  45
TORSDOF 9
