REMARK  Name = 
REMARK  9 active torsions:
REMARK  status: ('A' for Active; 'I' for Inactive)
REMARK    1  A    between atoms: C_4  and  C_24
REMARK    2  A    between atoms: C_7  and  C_33
REMARK    3  A    between atoms: C_11  and  C_42
REMARK    4  A    between atoms: C_20  and  N_51
REMARK    5  A    between atoms: C_24  and  C_25
REMARK    6  A    between atoms: C_33  and  C_34
REMARK    7  A    between atoms: C_42  and  C_43
REMARK    8  A    between atoms: C_43  and  C_44
REMARK    9  A    between atoms: C_44  and  N_45
REMARK                            x       y       z     vdW  Elec       q    Type
REMARK                         _______ _______ _______ _____ _____    ______ ____
ROOT
ATOM      1  C   UNL     1      -3.571  -0.175   0.000  0.00  0.00    +0.000 C 
ATOM      2  C   UNL     1      -2.811   0.315   0.000  0.00  0.00    +0.000 C 
ATOM      3  C   UNL     1      -2.561   1.095   0.000  0.00  0.00    +0.000 C 
ATOM      4  C   UNL     1      -1.730   1.095   0.000  0.00  0.00    +0.000 C 
ATOM      5  N   UNL     1      -1.480   0.315   0.000  0.00  0.00    +0.000 NA
ATOM      6  C   UNL     1      -0.710  -0.175   0.000  0.00  0.00    +0.000 C 
ATOM      7  C   UNL     1      -0.710  -0.995   0.000  0.00  0.00    +0.000 C 
ATOM      8  N   UNL     1       0.000  -1.405   0.000  0.00  0.00    +0.000 NA
ATOM      9  C   UNL     1       0.000  -2.236   0.000  0.00  0.00    +0.000 C 
ATOM     10  C   UNL     1       0.710  -2.646   0.000  0.00  0.00    +0.000 C 
ATOM     11  C   UNL     1       0.710  -3.466   0.000  0.00  0.00    +0.000 C 
ATOM     12  N   UNL     1       0.000  -3.886   0.000  0.00  0.00    +0.000 NA
ATOM     13  C   UNL     1      -0.710  -3.466   0.000  0.00  0.00    +0.000 C 
ATOM     14  C   UNL     1      -1.430  -3.886   0.000  0.00  0.00    +0.000 C 
ATOM     15  C   UNL     1      -1.600  -4.686   0.000  0.00  0.00    +0.000 C 
ATOM     16  C   UNL     1      -2.421  -4.776   0.000  0.00  0.00    +0.000 C 
ATOM     17  C   UNL     1      -2.761  -4.026   0.000  0.00  0.00    +0.000 C 
ATOM     18  N   UNL     1      -2.140  -3.466   0.000  0.00  0.00    +0.000 N 
ATOM     19  C   UNL     1      -2.140  -2.646   0.000  0.00  0.00    +0.000 C 
ATOM     20  C   UNL     1      -2.861  -2.236   0.000  0.00  0.00    +0.000 C 
ATOM     21  C   UNL     1      -2.861  -1.405   0.000  0.00  0.00    +0.000 C 
ATOM     22  N   UNL     1      -3.571  -0.995   0.000  0.00  0.00    +0.000 NA
ATOM     23  O   UNL     1      -4.291   0.225   0.000  0.00  0.00    +0.000 OA
ATOM     24  O   UNL     1       0.010   0.225   0.000  0.00  0.00    +0.000 OA
ATOM     25  O   UNL     1      -0.710  -2.646   0.000  0.00  0.00    +0.000 OA
ATOM     26  O   UNL     1       1.530  -2.736   0.000  0.00  0.00    +0.000 OA
ATOM     27  O   UNL     1      -1.200  -2.806   0.000  0.00  0.00    +0.000 OA
ATOM     28  O   UNL     1      -1.430  -2.236   0.000  0.00  0.00    +0.000 OA
ENDROOT
BRANCH  20  29
ATOM     29  N   UNL     1      -3.571  -2.646   0.000  0.00  0.00    +0.000 NA
ATOM     30  C   UNL     1      -4.291  -2.236   0.000  0.00  0.00    +0.000 C 
ATOM     31  O   UNL     1      -5.001  -2.646   0.000  0.00  0.00    +0.000 OA
ENDBRANCH  20  29
BRANCH   7  32
ATOM     32  C   UNL     1       0.000  -0.585   0.000  0.00  0.00    +0.000 C 
BRANCH  32  33
ATOM     33  C   UNL     1       0.710  -0.995   0.000  0.00  0.00    +0.000 A 
ATOM     34  C   UNL     1       1.430  -0.585   0.000  0.00  0.00    +0.000 A 
ATOM     35  C   UNL     1       2.140  -0.995   0.000  0.00  0.00    +0.000 A 
ATOM     36  C   UNL     1       2.140  -1.825   0.000  0.00  0.00    +0.000 A 
ATOM     37  C   UNL     1       1.430  -2.236   0.000  0.00  0.00    +0.000 A 
ATOM     38  C   UNL     1       0.710  -1.825   0.000  0.00  0.00    +0.000 A 
ENDBRANCH  32  33
ENDBRANCH   7  32
BRANCH   4  39
ATOM     39  C   UNL     1      -1.250   1.765   0.000  0.00  0.00    +0.000 C 
BRANCH  39  40
ATOM     40  C   UNL     1      -1.580   2.515   0.000  0.00  0.00    +0.000 A 
ATOM     41  C   UNL     1      -2.401   2.606   0.000  0.00  0.00    +0.000 A 
ATOM     42  C   UNL     1      -2.741   3.356   0.000  0.00  0.00    +0.000 A 
ATOM     43  C   UNL     1      -2.251   4.026   0.000  0.00  0.00    +0.000 A 
ATOM     44  C   UNL     1      -1.430   3.946   0.000  0.00  0.00    +0.000 A 
ATOM     45  C   UNL     1      -1.100   3.186   0.000  0.00  0.00    +0.000 A 
ATOM     46  O   UNL     1      -2.591   4.776   0.000  0.00  0.00    +0.000 OA
ENDBRANCH  39  40
ENDBRANCH   4  39
BRANCH  11  47
ATOM     47  C   UNL     1       1.430  -3.886   0.000  0.00  0.00    +0.000 C 
BRANCH  47  48
ATOM     48  C   UNL     1       2.140  -3.466   0.000  0.00  0.00    +0.000 C 
BRANCH  48  49
ATOM     49  C   UNL     1       2.861  -3.886   0.000  0.00  0.00    +0.000 C 
BRANCH  49  50
ATOM     50  N   UNL     1       3.571  -3.466   0.000  0.00  0.00    +0.000 NA
ATOM     51  C   UNL     1       4.291  -3.886   0.000  0.00  0.00    +0.000 C 
ATOM     52  N   UNL     1       4.291  -4.706   0.000  0.00  0.00    +0.000 NA
ATOM     53  N   UNL     1       5.001  -3.466   0.000  0.00  0.00    +0.000 NA
ENDBRANCH  49  50
ENDBRANCH  48  49
ENDBRANCH  47  48
ENDBRANCH  11  47
TORSDOF 9
