REMARK  Name = 
REMARK  6 active torsions:
REMARK  status: ('A' for Active; 'I' for Inactive)
REMARK    1  A    between atoms: C_1  and  C_2
REMARK    2  A    between atoms: N_5  and  CA_9
REMARK    3  A    between atoms: CA_9  and  CB_11
REMARK    4  A    between atoms: CA_9  and  C_12
REMARK    5  A    between atoms: C_10  and  C_13
REMARK    6  A    between atoms: CB_11  and  CG_14
REMARK                            x       y       z     vdW  Elec       q    Type
REMARK                         _______ _______ _______ _____ _____    ______ ____
ROOT
ATOM      1  C   UNK A   0       1.423   0.616   0.000  0.00  0.00    +0.000 C 
ATOM      2  N   PHE A   1       0.709   1.028   0.000  0.00  0.00    +0.000 NA
ATOM      3  O   UNK A   0       2.138   1.028   0.000  0.00  0.00    +0.000 OA
ENDROOT
BRANCH   1   4
ATOM      4  C   UNK A   0       1.423  -0.203   0.000  0.00  0.00    +0.000 C 
ATOM      5  C   UNK A   0       0.709  -0.616   0.000  0.00  0.00    +0.000 C 
ATOM      6  C   UNK A   0       2.138  -0.616   0.000  0.00  0.00    +0.000 C 
ATOM      7  C   UNK A   0       0.709  -1.440   0.000  0.00  0.00    +0.000 C 
ATOM      8  C   UNK A   0       2.138  -1.440   0.000  0.00  0.00    +0.000 C 
ATOM      9  C   UNK A   0       1.423  -1.852   0.000  0.00  0.00    +0.000 C 
BRANCH   9  10
ATOM     10  C   UNK A   0       1.423  -2.677   0.000  0.00  0.00    +0.000 C 
ATOM     11  C   UNK A   0       0.709  -3.089   0.000  0.00  0.00    +0.000 C 
ATOM     12  C   UNK A   0       2.138  -3.089   0.000  0.00  0.00    +0.000 C 
ENDBRANCH   9  10
ENDBRANCH   1   4
BRANCH   2  13
ATOM     13  CA  PHE A   1       0.709   1.852   0.000  0.00  0.00    +0.000 C 
BRANCH  13  14
ATOM     14  C   PHE A   1       1.423   2.264   0.000  0.00  0.00    +0.000 C 
ATOM     15  O   PHE A   1       2.138   1.852   0.000  0.00  0.00    +0.000 OA
ATOM     16  OXT PHE A   1       1.423   3.089   0.000  0.00  0.00    +0.000 OA
ENDBRANCH  13  14
BRANCH  13  17
ATOM     17  CB  PHE A   1       0.000   2.264   0.000  0.00  0.00    +0.000 C 
BRANCH  17  18
ATOM     18  CG  PHE A   1      -0.709   1.852   0.000  0.00  0.00    +0.000 A 
ATOM     19  CD1 PHE A   1      -1.423   2.264   0.000  0.00  0.00    +0.000 A 
ATOM     20  CD2 PHE A   1      -0.709   1.028   0.000  0.00  0.00    +0.000 A 
ATOM     21  CE1 PHE A   1      -2.138   1.852   0.000  0.00  0.00    +0.000 A 
ATOM     22  CE2 PHE A   1      -1.423   0.616   0.000  0.00  0.00    +0.000 A 
ATOM     23  CZ  PHE A   1      -2.138   1.028   0.000  0.00  0.00    +0.000 A 
ENDBRANCH  17  18
ENDBRANCH  13  17
ENDBRANCH   2  13
TORSDOF 6
