REMARK  Name = 
REMARK  15 active torsions:
REMARK  status: ('A' for Active; 'I' for Inactive)
REMARK    1  A    between atoms: O_4  and  C_28
REMARK    2  A    between atoms: O_4  and  C_30
REMARK    3  A    between atoms: O_5  and  C_29
REMARK    4  A    between atoms: O_5  and  C_31
REMARK    5  A    between atoms: N_9  and  C_12
REMARK    6  A    between atoms: N_10  and  C_16
REMARK    7  A    between atoms: N_11  and  C_20
REMARK    8  A    between atoms: C_16  and  C_17
REMARK    9  A    between atoms: C_16  and  C_18
REMARK   10  A    between atoms: C_18  and  C_19
REMARK   11  A    between atoms: C_20  and  C_21
REMARK   12  A    between atoms: C_20  and  C_22
REMARK   13  A    between atoms: C_21  and  C_23
REMARK   14  A    between atoms: C_30  and  C_32
REMARK   15  A    between atoms: C_31  and  C_33
REMARK                            x       y       z     vdW  Elec       q    Type
REMARK                         _______ _______ _______ _____ _____    ______ ____
ROOT
ATOM      1  O   UNL     1      -2.076   2.537   0.000  0.00  0.00    +0.000 OA
ATOM      2  O   UNL     1       0.913   0.602   0.000  0.00  0.00    +0.000 OA
ATOM      3  N   UNL     1      -0.243   1.442   0.000  0.00  0.00    +0.000 N 
ATOM      4  C   UNL     1      -1.549   1.164   0.000  0.00  0.00    +0.000 C 
ATOM      5  C   UNL     1      -0.795   0.829   0.000  0.00  0.00    +0.000 C 
ATOM      6  C   UNL     1      -0.656   2.156   0.000  0.00  0.00    +0.000 C 
ATOM      7  C   UNL     1      -1.463   1.985   0.000  0.00  0.00    +0.000 C 
ATOM      8  C   UNL     1       0.577   1.356   0.000  0.00  0.00    +0.000 C 
ENDROOT
BRANCH   4  10
ATOM      9  O   UNL     1      -2.978   1.990   0.000  0.00  0.00    +0.000 OA
ATOM     10  N   UNL     1      -2.263   0.752   0.000  0.00  0.00    +0.000 N 
ATOM     11  C   UNL     1      -2.978   1.164   0.000  0.00  0.00    +0.000 C 
ATOM     12  H   UNL     1      -2.263   0.240   0.000  0.00  0.00    +0.000 HD
BRANCH  11  13
ATOM     13  C   UNL     1      -3.692   0.752   0.000  0.00  0.00    +0.000 C 
BRANCH  13  15
ATOM     14  O   UNL     1      -5.121  -0.073   0.000  0.00  0.00    +0.000 OA
ATOM     15  N   UNL     1      -3.692  -0.073   0.000  0.00  0.00    +0.000 N 
ATOM     16  C   UNL     1      -4.407  -0.485   0.000  0.00  0.00    +0.000 C 
ATOM     17  H   UNL     1      -3.249  -0.329   0.000  0.00  0.00    +0.000 HD
BRANCH  16  18
ATOM     18  O   UNL     1      -4.407  -1.310   0.000  0.00  0.00    +0.000 OA
BRANCH  18  19
ATOM     19  C   UNL     1      -5.121  -1.723   0.000  0.00  0.00    +0.000 C 
BRANCH  19  20
ATOM     20  C   UNL     1      -5.121  -2.548   0.000  0.00  0.00    +0.000 A 
ATOM     21  C   UNL     1      -4.407  -2.961   0.000  0.00  0.00    +0.000 A 
ATOM     22  C   UNL     1      -5.836  -2.961   0.000  0.00  0.00    +0.000 A 
ATOM     23  C   UNL     1      -4.407  -3.785   0.000  0.00  0.00    +0.000 A 
ATOM     24  C   UNL     1      -5.836  -3.785   0.000  0.00  0.00    +0.000 A 
ATOM     25  C   UNL     1      -5.121  -4.198   0.000  0.00  0.00    +0.000 A 
ENDBRANCH  19  20
ENDBRANCH  18  19
ENDBRANCH  16  18
ENDBRANCH  13  15
BRANCH  13  26
ATOM     26  C   UNL     1      -4.407   1.164   0.000  0.00  0.00    +0.000 C 
BRANCH  26  27
ATOM     27  C   UNL     1      -4.407   1.990   0.000  0.00  0.00    +0.000 C 
ATOM     28  C   UNL     1      -5.121   2.402   0.000  0.00  0.00    +0.000 C 
ATOM     29  C   UNL     1      -3.692   2.402   0.000  0.00  0.00    +0.000 C 
ENDBRANCH  26  27
ENDBRANCH  13  26
ENDBRANCH  11  13
ENDBRANCH   4  10
BRANCH   8  30
ATOM     30  C   UNL     1       1.062   2.023   0.000  0.00  0.00    +0.000 C 
BRANCH  30  32
ATOM     31  O   UNL     1       1.733   0.516   0.000  0.00  0.00    +0.000 OA
ATOM     32  N   UNL     1       1.883   1.937   0.000  0.00  0.00    +0.000 N 
ATOM     33  C   UNL     1       2.218   1.183   0.000  0.00  0.00    +0.000 C 
ATOM     34  H   UNL     1       2.183   2.351   0.000  0.00  0.00    +0.000 HD
BRANCH  33  35
ATOM     35  O   UNL     1       3.039   1.097   0.000  0.00  0.00    +0.000 OA
BRANCH  35  36
ATOM     36  C   UNL     1       3.374   0.343   0.000  0.00  0.00    +0.000 C 
BRANCH  36  37
ATOM     37  C   UNL     1       4.195   0.257   0.000  0.00  0.00    +0.000 A 
ATOM     38  C   UNL     1       4.680   0.924   0.000  0.00  0.00    +0.000 A 
ATOM     39  C   UNL     1       4.530  -0.496   0.000  0.00  0.00    +0.000 A 
ATOM     40  C   UNL     1       5.500   0.838   0.000  0.00  0.00    +0.000 A 
ATOM     41  C   UNL     1       5.351  -0.583   0.000  0.00  0.00    +0.000 A 
ATOM     42  C   UNL     1       5.836   0.085   0.000  0.00  0.00    +0.000 A 
ENDBRANCH  36  37
ENDBRANCH  35  36
ENDBRANCH  33  35
ENDBRANCH  30  32
BRANCH  30  43
ATOM     43  C   UNL     1       0.727   2.777   0.000  0.00  0.00    +0.000 C 
BRANCH  43  44
ATOM     44  C   UNL     1       1.212   3.444   0.000  0.00  0.00    +0.000 C 
ATOM     45  C   UNL     1       0.876   4.198   0.000  0.00  0.00    +0.000 C 
ATOM     46  C   UNL     1       2.032   3.358   0.000  0.00  0.00    +0.000 C 
ENDBRANCH  43  44
ENDBRANCH  30  43
ENDBRANCH   8  30
TORSDOF 15
