REMARK  Name = 
REMARK  11 active torsions:
REMARK  status: ('A' for Active; 'I' for Inactive)
REMARK    1  A    between atoms: P_1  and  O_4
REMARK    2  A    between atoms: P_1  and  O_23
REMARK    3  A    between atoms: O_4  and  C_5
REMARK    4  A    between atoms: C_5  and  C_6
REMARK    5  A    between atoms: C_12  and  N_13
REMARK    6  A    between atoms: O_23  and  P_24
REMARK    7  A    between atoms: P_24  and  O_27
REMARK    8  A    between atoms: O_27  and  C_28
REMARK    9  A    between atoms: C_28  and  C_29
REMARK   10  A    between atoms: C_35  and  C_36
REMARK   11  A    between atoms: C_38  and  C_39
REMARK                            x       y       z     vdW  Elec       q    Type
REMARK                         _______ _______ _______ _____ _____    ______ ____
ROOT
ATOM      1  P   UNL     1       1.256  -1.234   0.000  0.00  0.00    +0.000 P 
ATOM      2  O   UNL     1       0.771  -0.566   0.000  0.00  0.00    +0.000 OA
ATOM      3  O   UNL     1       1.741  -1.901   0.000  0.00  0.00    +0.000 OA
ENDROOT
BRANCH   1   4
ATOM      4  O   UNL     1       0.589  -1.718   0.000  0.00  0.00    +0.000 OA
BRANCH   4   5
ATOM      5  P   UNL     1      -0.165  -1.383   0.000  0.00  0.00    +0.000 P 
ATOM      6  O   UNL     1       0.171  -0.629   0.000  0.00  0.00    +0.000 OA
ATOM      7  O   UNL     1      -0.500  -2.137   0.000  0.00  0.00    +0.000 OA
BRANCH   5   8
ATOM      8  O   UNL     1      -0.918  -1.047   0.000  0.00  0.00    +0.000 OA
BRANCH   8   9
ATOM      9  C   UNL     1      -1.586  -1.532   0.000  0.00  0.00    +0.000 C 
BRANCH   9  10
ATOM     10  C   UNL     1      -2.340  -1.197   0.000  0.00  0.00    +0.000 C 
ATOM     11  O   UNL     1      -3.054  -1.609   0.000  0.00  0.00    +0.000 OA
ATOM     12  C   UNL     1      -2.511  -0.390   0.000  0.00  0.00    +0.000 C 
ATOM     13  O   UNL     1      -1.959   0.223   0.000  0.00  0.00    +0.000 OA
ATOM     14  C   UNL     1      -3.332  -0.304   0.000  0.00  0.00    +0.000 C 
ATOM     15  O   UNL     1      -3.744   0.411   0.000  0.00  0.00    +0.000 OA
ATOM     16  C   UNL     1      -3.667  -1.057   0.000  0.00  0.00    +0.000 C 
BRANCH  16  17
ATOM     17  C   UNL     1      -4.474  -1.229   0.000  0.00  0.00    +0.000 A 
ATOM     18  C   UNL     1      -4.729  -2.013   0.000  0.00  0.00    +0.000 A 
ATOM     19  C   UNL     1      -5.536  -2.185   0.000  0.00  0.00    +0.000 A 
ATOM     20  C   UNL     1      -6.088  -1.572   0.000  0.00  0.00    +0.000 A 
ATOM     21  N   UNL     1      -5.833  -0.787   0.000  0.00  0.00    +0.000 NA
ATOM     22  C   UNL     1      -5.026  -0.616   0.000  0.00  0.00    +0.000 A 
BRANCH  19  23
ATOM     23  C   UNL     1      -5.791  -2.970   0.000  0.00  0.00    +0.000 C 
ATOM     24  O   UNL     1      -6.598  -3.141   0.000  0.00  0.00    +0.000 OA
ATOM     25  N   UNL     1      -5.239  -3.583   0.000  0.00  0.00    +0.000 NA
ENDBRANCH  19  23
ENDBRANCH  16  17
ENDBRANCH   9  10
ENDBRANCH   8   9
ENDBRANCH   5   8
ENDBRANCH   4   5
ENDBRANCH   1   4
BRANCH   1  26
ATOM     26  O   UNL     1       1.924  -0.749   0.000  0.00  0.00    +0.000 OA
BRANCH  26  27
ATOM     27  C   UNL     1       2.677  -1.084   0.000  0.00  0.00    +0.000 C 
BRANCH  27  28
ATOM     28  C   UNL     1       3.345  -0.599   0.000  0.00  0.00    +0.000 C 
ATOM     29  O   UNL     1       3.345   0.226   0.000  0.00  0.00    +0.000 OA
ATOM     30  C   UNL     1       4.129  -0.854   0.000  0.00  0.00    +0.000 C 
ATOM     31  O   UNL     1       4.384  -1.639   0.000  0.00  0.00    +0.000 OA
ATOM     32  C   UNL     1       4.614  -0.187   0.000  0.00  0.00    +0.000 C 
ATOM     33  O   UNL     1       5.439  -0.187   0.000  0.00  0.00    +0.000 OA
ATOM     34  C   UNL     1       4.129   0.481   0.000  0.00  0.00    +0.000 C 
BRANCH  34  35
ATOM     35  N   UNL     1       4.384   1.265   0.000  0.00  0.00    +0.000 N 
ATOM     36  C   UNL     1       3.899   1.933   0.000  0.00  0.00    +0.000 A 
ATOM     37  N   UNL     1       4.384   2.600   0.000  0.00  0.00    +0.000 NA
ATOM     38  C   UNL     1       5.169   2.345   0.000  0.00  0.00    +0.000 A 
ATOM     39  C   UNL     1       5.883   2.758   0.000  0.00  0.00    +0.000 A 
ATOM     40  N   UNL     1       5.883   3.583   0.000  0.00  0.00    +0.000 NA
ATOM     41  N   UNL     1       6.598   2.345   0.000  0.00  0.00    +0.000 NA
ATOM     42  C   UNL     1       6.598   1.520   0.000  0.00  0.00    +0.000 A 
ATOM     43  N   UNL     1       5.883   1.108   0.000  0.00  0.00    +0.000 NA
ATOM     44  C   UNL     1       5.169   1.520   0.000  0.00  0.00    +0.000 A 
ENDBRANCH  34  35
ENDBRANCH  27  28
ENDBRANCH  26  27
ENDBRANCH   1  26
TORSDOF 11
