REMARK  Name = 
REMARK  5 active torsions:
REMARK  status: ('A' for Active; 'I' for Inactive)
REMARK    1  A    between atoms: N_4  and  C_18
REMARK    2  A    between atoms: C_5  and  C_7
REMARK    3  A    between atoms: N_8  and  C_9
REMARK    4  A    between atoms: C_18  and  C_19
REMARK    5  A    between atoms: C_19  and  C_20
REMARK                            x       y       z     vdW  Elec       q    Type
REMARK                         _______ _______ _______ _____ _____    ______ ____
ROOT
ATOM      1  C   UNL     1       0.000  -0.412   0.000  0.00  0.00    +0.000 C 
ATOM      2  N   UNL     1      -0.714  -0.825   0.000  0.00  0.00    +0.000 NA
ATOM      3  O   UNL     1       0.000   0.412   0.000  0.00  0.00    +0.000 OA
ENDROOT
BRANCH   2   4
ATOM      4  C   UNL     1      -1.429  -0.412   0.000  0.00  0.00    +0.000 A 
ATOM      5  C   UNL     1      -1.429   0.412   0.000  0.00  0.00    +0.000 A 
ATOM      6  C   UNL     1      -2.143   0.825   0.000  0.00  0.00    +0.000 A 
ATOM      7  C   UNL     1      -2.858   0.412   0.000  0.00  0.00    +0.000 A 
ATOM      8  C   UNL     1      -2.858  -0.412   0.000  0.00  0.00    +0.000 A 
ATOM      9  C   UNL     1      -2.143  -0.825   0.000  0.00  0.00    +0.000 A 
ATOM     10  C   UNL     1      -2.143  -1.650   0.000  0.00  0.00    +0.000 C 
ATOM     11  C   UNL     1      -0.714   0.825   0.000  0.00  0.00    +0.000 C 
ENDBRANCH   2   4
BRANCH   1  16
ATOM     12  C   UNL     1       1.429  -2.062   0.000  0.00  0.00    +0.000 C 
ATOM     13  C   UNL     1       2.143  -1.650   0.000  0.00  0.00    +0.000 C 
ATOM     14  C   UNL     1       2.143  -0.825   0.000  0.00  0.00    +0.000 C 
ATOM     15  N   UNL     1       1.429  -0.412   0.000  0.00  0.00    +0.000 NA
ATOM     16  C   UNL     1       0.714  -0.825   0.000  0.00  0.00    +0.000 C 
ATOM     17  C   UNL     1       0.714  -1.650   0.000  0.00  0.00    +0.000 C 
BRANCH  15  18
ATOM     18  C   UNL     1       1.429   0.412   0.000  0.00  0.00    +0.000 C 
BRANCH  18  19
ATOM     19  C   UNL     1       2.143   0.825   0.000  0.00  0.00    +0.000 C 
BRANCH  19  20
ATOM     20  C   UNL     1       2.143   1.650   0.000  0.00  0.00    +0.000 C 
ATOM     21  C   UNL     1       2.858   2.062   0.000  0.00  0.00    +0.000 C 
ENDBRANCH  19  20
ENDBRANCH  18  19
ENDBRANCH  15  18
ENDBRANCH   1  16
TORSDOF 5
