REMARK  Name = 
REMARK  11 active torsions:
REMARK  status: ('A' for Active; 'I' for Inactive)
REMARK    1  A    between atoms: P_1  and  O_2
REMARK    2  A    between atoms: P_1  and  O_4
REMARK    3  A    between atoms: P_1  and  N_34
REMARK    4  A    between atoms: O_2  and  C_28
REMARK    5  A    between atoms: O_4  and  C_5
REMARK    6  A    between atoms: C_5  and  C_7
REMARK    7  A    between atoms: C_10  and  N_15
REMARK    8  A    between atoms: C_20  and  C_21
REMARK    9  A    between atoms: C_20  and  N_34
REMARK   10  A    between atoms: C_21  and  O_24
REMARK   11  A    between atoms: O_24  and  C_25
REMARK                            x       y       z     vdW  Elec       q    Type
REMARK                         _______ _______ _______ _____ _____    ______ ____
ROOT
ATOM      1  P   UNL     1      -1.397  -0.325   0.000  0.00  0.00    +0.000 P 
ATOM      2  O   UNL     1      -1.127   0.455   0.000  0.00  0.00    +0.000 OA
ENDROOT
BRANCH   1   3
ATOM      3  O   UNL     1      -1.674  -1.104   0.000  0.00  0.00    +0.000 OA
BRANCH   3   4
ATOM      4  C   UNL     1      -2.486  -1.253   0.000  0.00  0.00    +0.000 A 
ATOM      5  C   UNL     1      -3.018  -0.623   0.000  0.00  0.00    +0.000 A 
ATOM      6  C   UNL     1      -3.829  -0.771   0.000  0.00  0.00    +0.000 A 
ATOM      7  C   UNL     1      -4.106  -1.549   0.000  0.00  0.00    +0.000 A 
ATOM      8  C   UNL     1      -3.567  -2.179   0.000  0.00  0.00    +0.000 A 
ATOM      9  C   UNL     1      -2.758  -2.027   0.000  0.00  0.00    +0.000 A 
ENDBRANCH   3   4
ENDBRANCH   1   3
BRANCH   1  10
ATOM     10  O   UNL     1      -0.619  -0.602   0.000  0.00  0.00    +0.000 OA
BRANCH  10  11
ATOM     11  C   UNL     1       0.007  -0.065   0.000  0.00  0.00    +0.000 C 
BRANCH  11  13
ATOM     12  O   UNL     1       1.447   0.101   0.000  0.00  0.00    +0.000 OA
ATOM     13  C   UNL     1       0.772  -0.380   0.000  0.00  0.00    +0.000 C 
ATOM     14  C   UNL     1       1.019  -1.164   0.000  0.00  0.00    +0.000 C 
ATOM     15  C   UNL     1       1.846  -1.174   0.000  0.00  0.00    +0.000 C 
ATOM     16  C   UNL     1       2.106  -0.393   0.000  0.00  0.00    +0.000 C 
ATOM     17  F   UNL     1       1.836  -1.996   0.000  0.00  0.00    +0.000 F 
ATOM     18  C   UNL     1       2.667  -1.133   0.000  0.00  0.00    +0.000 C 
ATOM     19  O   UNL     1       0.524  -1.831   0.000  0.00  0.00    +0.000 OA
BRANCH  16  24
ATOM     20  C   UNL     1       3.541  -0.383   0.000  0.00  0.00    +0.000 A 
ATOM     21  C   UNL     1       4.245   0.860   0.000  0.00  0.00    +0.000 A 
ATOM     22  C   UNL     1       3.529   1.268   0.000  0.00  0.00    +0.000 A 
ATOM     23  C   UNL     1       2.817   0.850   0.000  0.00  0.00    +0.000 A 
ATOM     24  N   UNL     1       2.825   0.026   0.000  0.00  0.00    +0.000 N 
ATOM     25  O   UNL     1       4.956   1.278   0.000  0.00  0.00    +0.000 OA
ATOM     26  O   UNL     1       3.545  -1.211   0.000  0.00  0.00    +0.000 OA
ATOM     27  N   UNL     1       4.252   0.035   0.000  0.00  0.00    +0.000 NA
ENDBRANCH  16  24
ENDBRANCH  11  13
ENDBRANCH  10  11
ENDBRANCH   1  10
BRANCH   1  28
ATOM     28  N   UNL     1      -2.108   0.094   0.000  0.00  0.00    +0.000 NA
BRANCH  28  29
ATOM     29  C   UNL     1      -2.099   0.919   0.000  0.00  0.00    +0.000 C 
ATOM     30  C   UNL     1      -1.380   1.324   0.000  0.00  0.00    +0.000 C 
BRANCH  29  31
ATOM     31  C   UNL     1      -2.809   1.339   0.000  0.00  0.00    +0.000 C 
ATOM     32  O   UNL     1      -2.800   2.164   0.000  0.00  0.00    +0.000 OA
BRANCH  31  33
ATOM     33  O   UNL     1      -3.527   0.934   0.000  0.00  0.00    +0.000 OA
BRANCH  33  34
ATOM     34  C   UNL     1      -4.238   1.354   0.000  0.00  0.00    +0.000 C 
ATOM     35  C   UNL     1      -4.229   2.179   0.000  0.00  0.00    +0.000 C 
ATOM     36  C   UNL     1      -4.956   0.949   0.000  0.00  0.00    +0.000 C 
ENDBRANCH  33  34
ENDBRANCH  31  33
ENDBRANCH  29  31
ENDBRANCH  28  29
ENDBRANCH   1  28
TORSDOF 11
