REMARK  Name = 
REMARK  2 active torsions:
REMARK  status: ('A' for Active; 'I' for Inactive)
REMARK    1  A    between atoms: N_1  and  C_24
REMARK    2  A    between atoms: C_7  and  C_28
REMARK                            x       y       z     vdW  Elec       q    Type
REMARK                         _______ _______ _______ _____ _____    ______ ____
ROOT
ATOM      1  C   UNL     1       2.733  -1.830   0.000  0.00  0.00    +0.000 C 
ATOM      2  O   UNL     1       3.223  -1.160   0.000  0.00  0.00    +0.000 OA
ATOM      3  C   UNL     1       2.887  -0.412   0.000  0.00  0.00    +0.000 C 
ATOM      4  C   UNL     1       1.908  -1.727   0.000  0.00  0.00    +0.000 C 
ATOM      5  C   UNL     1       1.573  -0.980   0.000  0.00  0.00    +0.000 A 
ATOM      6  C   UNL     1       2.062  -0.309   0.000  0.00  0.00    +0.000 A 
ATOM      7  C   UNL     1       1.727   0.438   0.000  0.00  0.00    +0.000 A 
ATOM      8  C   UNL     1       0.773  -0.876   0.000  0.00  0.00    +0.000 A 
ATOM      9  C   UNL     1       0.412  -0.129   0.000  0.00  0.00    +0.000 A 
ATOM     10  N   UNL     1       0.928   0.516   0.000  0.00  0.00    +0.000 N 
ATOM     11  C   UNL     1       0.412   1.186   0.000  0.00  0.00    +0.000 C 
ATOM     12  C   UNL     1      -0.361   0.928   0.000  0.00  0.00    +0.000 A 
ATOM     13  C   UNL     1      -0.361   0.103   0.000  0.00  0.00    +0.000 A 
ATOM     14  N   UNL     1      -1.083  -0.309   0.000  0.00  0.00    +0.000 NA
ATOM     15  C   UNL     1      -1.083   1.341   0.000  0.00  0.00    +0.000 A 
ATOM     16  C   UNL     1      -1.779   0.928   0.000  0.00  0.00    +0.000 A 
ATOM     17  C   UNL     1      -1.779   0.103   0.000  0.00  0.00    +0.000 A 
ATOM     18  C   UNL     1      -2.501  -0.309   0.000  0.00  0.00    +0.000 A 
ATOM     19  C   UNL     1      -3.197   0.103   0.000  0.00  0.00    +0.000 A 
ATOM     20  C   UNL     1      -3.197   0.928   0.000  0.00  0.00    +0.000 A 
ATOM     21  C   UNL     1      -2.501   1.341   0.000  0.00  0.00    +0.000 A 
ATOM     22  O   UNL     1       3.068  -2.578   0.000  0.00  0.00    +0.000 OA
ATOM     23  O   UNL     1       2.217   1.109   0.000  0.00  0.00    +0.000 OA
ATOM     24  O   UNL     1       1.907  -2.558   0.000  0.00  0.00    +0.000 OA
ENDROOT
BRANCH  21  25
ATOM     25  N   UNL     1      -2.501   2.166   0.000  0.00  0.00    +0.000 N 
ATOM     26  O   UNL     1      -3.223   2.578   0.000  0.00  0.00    +0.000 OA
ATOM     27  O   UNL     1      -1.805   2.578   0.000  0.00  0.00    +0.000 OA
ENDBRANCH  21  25
BRANCH   4  28
ATOM     28  C   UNL     1       1.076  -1.727   0.000  0.00  0.00    +0.000 C 
ATOM     29  C   UNL     1       0.596  -2.406   0.000  0.00  0.00    +0.000 C 
ENDBRANCH   4  28
TORSDOF 2
