REMARK  Name = 
REMARK  2 active torsions:
REMARK  status: ('A' for Active; 'I' for Inactive)
REMARK    1  A    between atoms: N9_6  and  C1*_10
REMARK    2  A    between atoms: C4*_13  and  C5*_15
REMARK                            x       y       z     vdW  Elec       q    Type
REMARK                         _______ _______ _______ _____ _____    ______ ____
ROOT
ATOM      1  O6    I A   1      -1.246  -2.915   0.000  0.00  0.00    +0.000 OA
ATOM      2  N9    I A   1       0.249  -0.601   0.000  0.00  0.00    +0.000 N 
ATOM      3  N7    I A   1       0.249  -1.929   0.000  0.00  0.00    +0.000 N 
ATOM      4  N3    I A   1      -1.246  -0.440   0.000  0.00  0.00    +0.000 N 
ATOM      5  N1    I A   1      -1.960  -1.677   0.000  0.00  0.00    +0.000 NA
ATOM      6  C4    I A   1      -0.531  -0.853   0.000  0.00  0.00    +0.000 A 
ATOM      7  C5    I A   1      -0.531  -1.677   0.000  0.00  0.00    +0.000 A 
ATOM      8  C8    I A   1       0.731  -1.265   0.000  0.00  0.00    +0.000 A 
ATOM      9  C6    I A   1      -1.246  -2.090   0.000  0.00  0.00    +0.000 C 
ATOM     10  C2    I A   1      -1.960  -0.853   0.000  0.00  0.00    +0.000 C 
ATOM     11  H7    I A   1       0.408  -2.415   0.000  0.00  0.00    +0.000 HD
ATOM     12  H3    I A   1      -1.246   0.071   0.000  0.00  0.00    +0.000 HD
ENDROOT
BRANCH   2  16
ATOM     13  O4*   I A   1       0.022   0.851   0.000  0.00  0.00    +0.000 OA
ATOM     14  O2*   I A   1       1.957  -0.049   0.000  0.00  0.00    +0.000 OA
ATOM     15  O3*   I A   1       1.960   1.745   0.000  0.00  0.00    +0.000 OA
ATOM     16  C1*   I A   1       0.505   0.183   0.000  0.00  0.00    +0.000 C 
ATOM     17  C2*   I A   1       1.291   0.436   0.000  0.00  0.00    +0.000 C 
ATOM     18  C3*   I A   1       1.292   1.262   0.000  0.00  0.00    +0.000 C 
ATOM     19  C4*   I A   1       0.508   1.518   0.000  0.00  0.00    +0.000 C 
BRANCH  19  21
ATOM     20  O5*   I A   1       0.807   2.915   0.000  0.00  0.00    +0.000 OA
ATOM     21  C5*   I A   1       0.254   2.303   0.000  0.00  0.00    +0.000 C 
ENDBRANCH  19  21
ENDBRANCH   2  16
TORSDOF 2
