REMARK  Name = 
REMARK  6 active torsions:
REMARK  status: ('A' for Active; 'I' for Inactive)
REMARK    1  A    between atoms: N_1  and  C_19
REMARK    2  A    between atoms: N_3  and  C_5
REMARK    3  A    between atoms: C_5  and  N_6
REMARK    4  A    between atoms: N_8  and  C_10
REMARK    5  A    between atoms: N_11  and  C_14
REMARK    6  A    between atoms: N_20  and  C_23
REMARK                            x       y       z     vdW  Elec       q    Type
REMARK                         _______ _______ _______ _____ _____    ______ ____
ROOT
ATOM      1  C   UNL     1       0.000  -0.511   0.000  0.00  0.00    +0.000 C 
ENDROOT
BRANCH   1   2
ATOM      2  N   UNL     1       0.715  -0.924   0.000  0.00  0.00    +0.000 NA
ATOM      3  C   UNL     1       1.429  -0.511   0.000  0.00  0.00    +0.000 C 
ATOM      4  N   UNL     1       2.143  -0.924   0.000  0.00  0.00    +0.000 NA
ATOM      5  O   UNL     1       1.429   0.314   0.000  0.00  0.00    +0.000 OA
BRANCH   4   6
ATOM      6  C   UNL     1       2.858  -0.511   0.000  0.00  0.00    +0.000 C 
ATOM      7  N   UNL     1       2.858   0.314   0.000  0.00  0.00    +0.000 N 
ATOM      8  C   UNL     1       3.643  -0.766   0.000  0.00  0.00    +0.000 C 
ATOM      9  C   UNL     1       3.643   0.568   0.000  0.00  0.00    +0.000 C 
ATOM     10  N   UNL     1       4.127  -0.099   0.000  0.00  0.00    +0.000 NA
ATOM     11  O   UNL     1       3.897  -1.551   0.000  0.00  0.00    +0.000 OA
ATOM     12  O   UNL     1       3.897   1.353   0.000  0.00  0.00    +0.000 OA
BRANCH   7  13
ATOM     13  C   UNL     1       2.143   0.726   0.000  0.00  0.00    +0.000 C 
ATOM     14  O   UNL     1       2.143   1.551   0.000  0.00  0.00    +0.000 OA
ENDBRANCH   7  13
ENDBRANCH   4   6
ENDBRANCH   1   2
BRANCH   1  17
ATOM     15  N   UNL     1      -2.143  -0.924   0.000  0.00  0.00    +0.000 NA
ATOM     16  C   UNL     1      -1.429  -0.511   0.000  0.00  0.00    +0.000 C 
ATOM     17  N   UNL     1      -0.715  -0.924   0.000  0.00  0.00    +0.000 NA
ATOM     18  O   UNL     1      -1.429   0.314   0.000  0.00  0.00    +0.000 OA
BRANCH  15  19
ATOM     19  C   UNL     1      -2.858  -0.511   0.000  0.00  0.00    +0.000 C 
ATOM     20  N   UNL     1      -2.858   0.314   0.000  0.00  0.00    +0.000 N 
ATOM     21  C   UNL     1      -3.643  -0.766   0.000  0.00  0.00    +0.000 C 
ATOM     22  C   UNL     1      -3.643   0.568   0.000  0.00  0.00    +0.000 C 
ATOM     23  N   UNL     1      -4.127  -0.099   0.000  0.00  0.00    +0.000 NA
ATOM     24  O   UNL     1      -3.897  -1.551   0.000  0.00  0.00    +0.000 OA
ATOM     25  O   UNL     1      -3.897   1.353   0.000  0.00  0.00    +0.000 OA
BRANCH  20  26
ATOM     26  C   UNL     1      -2.143   0.726   0.000  0.00  0.00    +0.000 C 
ATOM     27  O   UNL     1      -2.143   1.551   0.000  0.00  0.00    +0.000 OA
ENDBRANCH  20  26
ENDBRANCH  15  19
ENDBRANCH   1  17
TORSDOF 6
