REMARK  Name = 
REMARK  11 active torsions:
REMARK  status: ('A' for Active; 'I' for Inactive)
REMARK    1  A    between atoms: C_2  and  CA_4
REMARK    2  A    between atoms: N_5  and  CA_8
REMARK    3  A    between atoms: C_6  and  CA_8
REMARK    4  A    between atoms: CB_7  and  CA_8
REMARK    5  A    between atoms: CB_7  and  CG_12
REMARK    6  A    between atoms: N_10  and  CA_18
REMARK    7  A    between atoms: C_16  and  CA_18
REMARK    8  A    between atoms: CA_18  and  CB_19
REMARK    9  A    between atoms: CB_19  and  CG_20
REMARK   10  A    between atoms: CG_20  and  CD_21
REMARK   11  A    between atoms: CD_21  and  CE_22
REMARK                            x       y       z     vdW  Elec       q    Type
REMARK                         _______ _______ _______ _____ _____    ______ ____
ROOT
ATOM      1  C   HIS A   2       0.357   0.325   0.000  0.00  0.00    +0.000 C 
ATOM      2  O   HIS A   2       0.357  -0.500   0.000  0.00  0.00    +0.000 OA
ATOM      3  N   LYS A   3       1.072   0.738   0.000  0.00  0.00    +0.000 NA
ENDROOT
BRANCH   1   4
ATOM      4  CA  HIS A   2      -0.357   0.738   0.000  0.00  0.00    +0.000 C 
BRANCH   4   7
ATOM      5  C   GLY A   1      -1.786   0.737   0.000  0.00  0.00    +0.000 C 
ATOM      6  O   GLY A   1      -1.786   1.562   0.000  0.00  0.00    +0.000 OA
ATOM      7  N   HIS A   2      -1.072   0.325   0.000  0.00  0.00    +0.000 NA
BRANCH   5   9
ATOM      8  N   GLY A   1      -3.215   0.737   0.000  0.00  0.00    +0.000 NA
ATOM      9  CA  GLY A   1      -2.501   0.325   0.000  0.00  0.00    +0.000 C 
ENDBRANCH   5   9
ENDBRANCH   4   7
BRANCH   4  10
ATOM     10  CB  HIS A   2      -0.357   1.563   0.000  0.00  0.00    +0.000 C 
BRANCH  10  12
ATOM     11  ND1 HIS A   2       1.118   1.640   0.000  0.00  0.00    +0.000 NA
ATOM     12  CG  HIS A   2       0.360   1.977   0.000  0.00  0.00    +0.000 A 
ATOM     13  NE2 HIS A   2       1.258   2.974   0.000  0.00  0.00    +0.000 NA
ATOM     14  CE1 HIS A   2       1.673   2.256   0.000  0.00  0.00    +0.000 A 
ATOM     15  CD2 HIS A   2       0.447   2.802   0.000  0.00  0.00    +0.000 A 
ENDBRANCH  10  12
ENDBRANCH   4  10
ENDBRANCH   1   4
BRANCH   3  16
ATOM     16  CA  LYS A   3       1.786   0.325   0.000  0.00  0.00    +0.000 C 
BRANCH  16  17
ATOM     17  C   LYS A   3       2.501   0.738   0.000  0.00  0.00    +0.000 C 
ATOM     18  O   LYS A   3       2.501   1.563   0.000  0.00  0.00    +0.000 OA
ATOM     19  OXT LYS A   3       3.215   0.325   0.000  0.00  0.00    +0.000 OA
ENDBRANCH  16  17
BRANCH  16  20
ATOM     20  CB  LYS A   3       1.786  -0.499   0.000  0.00  0.00    +0.000 C 
BRANCH  20  21
ATOM     21  CG  LYS A   3       2.501  -0.912   0.000  0.00  0.00    +0.000 C 
BRANCH  21  22
ATOM     22  CD  LYS A   3       2.501  -1.737   0.000  0.00  0.00    +0.000 C 
BRANCH  22  23
ATOM     23  CE  LYS A   3       3.215  -2.150   0.000  0.00  0.00    +0.000 C 
ATOM     24  NZ  LYS A   3       3.215  -2.974   0.000  0.00  0.00    +0.000 NA
ENDBRANCH  22  23
ENDBRANCH  21  22
ENDBRANCH  20  21
ENDBRANCH  16  20
ENDBRANCH   3  16
TORSDOF 11
