REMARK  Name = 
REMARK  5 active torsions:
REMARK  status: ('A' for Active; 'I' for Inactive)
REMARK    1  A    between atoms: C_1  and  N_2
REMARK    2  A    between atoms: C_6  and  C_7
REMARK    3  A    between atoms: N_8  and  N_9
REMARK    4  A    between atoms: C_12  and  C_14
REMARK    5  A    between atoms: C_14  and  N_15
REMARK                            x       y       z     vdW  Elec       q    Type
REMARK                         _______ _______ _______ _____ _____    ______ ____
ROOT
ATOM      1  N   UNL     1      -1.117   0.953   0.000  0.00  0.00    +0.000 N 
ATOM      2  C   UNL     1      -1.602   1.621   0.000  0.00  0.00    +0.000 C 
ATOM      3  O   UNL     1      -2.387   1.366   0.000  0.00  0.00    +0.000 OA
ATOM      4  C   UNL     1      -2.387   0.541   0.000  0.00  0.00    +0.000 C 
ATOM      5  C   UNL     1      -1.602   0.286   0.000  0.00  0.00    +0.000 C 
ATOM      6  O   UNL     1      -1.347   2.405   0.000  0.00  0.00    +0.000 OA
ENDROOT
BRANCH   1   8
ATOM      7  C   UNL     1       0.120   0.239   0.000  0.00  0.00    +0.000 C 
ATOM      8  N   UNL     1      -0.292   0.953   0.000  0.00  0.00    +0.000 NA
BRANCH   7  11
ATOM      9  C   UNL     1       2.215   0.651   0.000  0.00  0.00    +0.000 A 
ATOM     10  O   UNL     1       1.430   0.906   0.000  0.00  0.00    +0.000 OA
ATOM     11  C   UNL     1       0.945   0.239   0.000  0.00  0.00    +0.000 A 
ATOM     12  C   UNL     1       1.430  -0.429   0.000  0.00  0.00    +0.000 A 
ATOM     13  C   UNL     1       2.215  -0.174   0.000  0.00  0.00    +0.000 A 
BRANCH   9  14
ATOM     14  N   UNL     1       2.882   1.136   0.000  0.00  0.00    +0.000 N 
ATOM     15  O   UNL     1       2.796   1.957   0.000  0.00  0.00    +0.000 OA
ATOM     16  O   UNL     1       3.636   0.801   0.000  0.00  0.00    +0.000 OA
ENDBRANCH   9  14
ENDBRANCH   7  11
ENDBRANCH   1   8
BRANCH   4  17
ATOM     17  C   UNL     1      -3.054   0.056   0.000  0.00  0.00    +0.000 C 
BRANCH  17  18
ATOM     18  N   UNL     1      -2.968  -0.764   0.000  0.00  0.00    +0.000 NA
ATOM     19  C   UNL     1      -2.215  -1.100   0.000  0.00  0.00    +0.000 C 
ATOM     20  C   UNL     1      -2.128  -1.921   0.000  0.00  0.00    +0.000 C 
ATOM     21  O   UNL     1      -2.796  -2.405   0.000  0.00  0.00    +0.000 OA
ATOM     22  C   UNL     1      -3.549  -2.070   0.000  0.00  0.00    +0.000 C 
ATOM     23  C   UNL     1      -3.636  -1.250   0.000  0.00  0.00    +0.000 C 
ENDBRANCH  17  18
ENDBRANCH   4  17
TORSDOF 5
