REMARK  Name = 
REMARK  10 active torsions:
REMARK  status: ('A' for Active; 'I' for Inactive)
REMARK    1  A    between atoms: C_2  and  C_3
REMARK    2  A    between atoms: C_2  and  C_11
REMARK    3  A    between atoms: C_3  and  N_4
REMARK    4  A    between atoms: N_4  and  S_5
REMARK    5  A    between atoms: S_5  and  C_8
REMARK    6  A    between atoms: C_14  and  C_17
REMARK    7  A    between atoms: C_20  and  C_23
REMARK    8  A    between atoms: C_23  and  C_24
REMARK    9  A    between atoms: C_24  and  N_25
REMARK   10  A    between atoms: N_25  and  S_26
REMARK                            x       y       z     vdW  Elec       q    Type
REMARK                         _______ _______ _______ _____ _____    ______ ____
ROOT
ATOM      1  C   UNL     1       0.715  -1.238   0.000  0.00  0.00    +0.000 A 
ATOM      2  C   UNL     1       1.429  -1.650   0.000  0.00  0.00    +0.000 A 
ATOM      3  C   UNL     1       1.429  -2.475   0.000  0.00  0.00    +0.000 A 
ATOM      4  C   UNL     1       0.715  -2.888   0.000  0.00  0.00    +0.000 A 
ATOM      5  C   UNL     1       0.000  -2.475   0.000  0.00  0.00    +0.000 A 
ATOM      6  C   UNL     1       0.000  -1.650   0.000  0.00  0.00    +0.000 A 
ENDROOT
BRANCH   4   7
ATOM      7  C   UNL     1       0.715  -3.712   0.000  0.00  0.00    +0.000 A 
ATOM      8  C   UNL     1       1.429  -4.125   0.000  0.00  0.00    +0.000 A 
ATOM      9  C   UNL     1       1.429  -4.950   0.000  0.00  0.00    +0.000 A 
ATOM     10  C   UNL     1       0.715  -5.362   0.000  0.00  0.00    +0.000 A 
ATOM     11  C   UNL     1       0.000  -4.950   0.000  0.00  0.00    +0.000 A 
ATOM     12  C   UNL     1       0.000  -4.125   0.000  0.00  0.00    +0.000 A 
BRANCH  10  13
ATOM     13  C   UNL     1       0.715  -6.188   0.000  0.00  0.00    +0.000 C 
BRANCH  13  14
ATOM     14  C   UNL     1       1.429  -6.600   0.000  0.00  0.00    +0.000 C 
BRANCH  14  15
ATOM     15  N   UNL     1       1.429  -7.425   0.000  0.00  0.00    +0.000 NA
BRANCH  15  16
ATOM     16  S   UNL     1       2.143  -7.838   0.000  0.00  0.00    +0.000 S 
ATOM     17  O   UNL     1       2.858  -8.250   0.000  0.00  0.00    +0.000 OA
ATOM     18  O   UNL     1       1.731  -8.552   0.000  0.00  0.00    +0.000 OA
ATOM     19  C   UNL     1       2.556  -7.123   0.000  0.00  0.00    +0.000 C 
ENDBRANCH  15  16
ENDBRANCH  14  15
ENDBRANCH  13  14
ENDBRANCH  10  13
ENDBRANCH   4   7
BRANCH   1  21
ATOM     20  C   UNL     1       1.429   0.000   0.000  0.00  0.00    +0.000 C 
ATOM     21  C   UNL     1       0.715  -0.412   0.000  0.00  0.00    +0.000 C 
BRANCH  21  22
ATOM     22  C   UNL     1       0.000   0.000   0.000  0.00  0.00    +0.000 C 
BRANCH  22  23
ATOM     23  N   UNL     1       0.000   0.825   0.000  0.00  0.00    +0.000 NA
BRANCH  23  24
ATOM     24  S   UNL     1      -0.715   1.238   0.000  0.00  0.00    +0.000 S 
ATOM     25  O   UNL     1      -1.127   0.523   0.000  0.00  0.00    +0.000 OA
ATOM     26  O   UNL     1      -0.302   1.952   0.000  0.00  0.00    +0.000 OA
BRANCH  24  27
ATOM     27  C   UNL     1      -1.429   1.650   0.000  0.00  0.00    +0.000 C 
ATOM     28  C   UNL     1      -1.429   2.475   0.000  0.00  0.00    +0.000 C 
ATOM     29  C   UNL     1      -2.143   1.238   0.000  0.00  0.00    +0.000 C 
ENDBRANCH  24  27
ENDBRANCH  23  24
ENDBRANCH  22  23
ENDBRANCH  21  22
ENDBRANCH   1  21
TORSDOF 10
