REMARK  Name = 
REMARK  3 active torsions:
REMARK  status: ('A' for Active; 'I' for Inactive)
REMARK    1  A    between atoms: C_2  and  O_4
REMARK    2  A    between atoms: O_4  and  C_5
REMARK    3  A    between atoms: C_14  and  O_24
REMARK                            x       y       z     vdW  Elec       q    Type
REMARK                         _______ _______ _______ _____ _____    ______ ____
ROOT
ATOM      1  C   UNL     1       1.119  -1.637   0.000  0.00  0.00    +0.000 C 
ATOM      2  C   UNL     1       0.560  -1.037   0.000  0.00  0.00    +0.000 C 
ATOM      3  C   UNL     1       0.873  -0.296   0.000  0.00  0.00    +0.000 C 
ATOM      4  C   UNL     1       1.847  -0.149   0.000  0.00  0.00    +0.000 C 
ATOM      5  C   UNL     1       2.437   0.636   0.000  0.00  0.00    +0.000 C 
ATOM      6  C   UNL     1       3.256   0.626   0.000  0.00  0.00    +0.000 C 
ATOM      7  C   UNL     1       3.554  -0.123   0.000  0.00  0.00    +0.000 A 
ATOM      8  C   UNL     1       4.379  -0.209   0.000  0.00  0.00    +0.000 A 
ATOM      9  C   UNL     1       4.691  -0.974   0.000  0.00  0.00    +0.000 A 
ATOM     10  C   UNL     1       4.171  -1.630   0.000  0.00  0.00    +0.000 A 
ATOM     11  C   UNL     1       3.322  -1.536   0.000  0.00  0.00    +0.000 A 
ATOM     12  C   UNL     1       3.031  -0.769   0.000  0.00  0.00    +0.000 A 
ATOM     13  C   UNL     1       2.159  -0.645   0.000  0.00  0.00    +0.000 C 
ATOM     14  C   UNL     1       1.945  -1.477   0.000  0.00  0.00    +0.000 C 
ATOM     15  O   UNL     1       2.610  -1.980   0.000  0.00  0.00    +0.000 OA
ATOM     16  C   UNL     1       1.314  -0.046   0.000  0.00  0.00    +0.000 C 
ATOM     17  C   UNL     1       1.172   0.841   0.000  0.00  0.00    +0.000 C 
ATOM     18  N   UNL     1       1.893   1.225   0.000  0.00  0.00    +0.000 NA
ATOM     19  C   UNL     1       2.031   2.038   0.000  0.00  0.00    +0.000 C 
ENDROOT
BRANCH  10  20
ATOM     20  O   UNL     1       4.488  -2.392   0.000  0.00  0.00    +0.000 OA
ATOM     21  C   UNL     1       3.987  -3.048   0.000  0.00  0.00    +0.000 C 
ENDBRANCH  10  20
BRANCH   1  22
ATOM     22  O   UNL     1       0.864  -2.422   0.000  0.00  0.00    +0.000 OA
BRANCH  22  24
ATOM     23  C   UNL     1       1.160  -3.820   0.000  0.00  0.00    +0.000 C 
ATOM     24  C   UNL     1       1.415  -3.035   0.000  0.00  0.00    +0.000 C 
ATOM     25  O   UNL     1       2.223  -2.864   0.000  0.00  0.00    +0.000 OA
ENDBRANCH  22  24
ENDBRANCH   1  22
TORSDOF 3
