REMARK  Name = 
REMARK  7 active torsions:
REMARK  status: ('A' for Active; 'I' for Inactive)
REMARK    1  A    between atoms: C_4  and  C_10
REMARK    2  A    between atoms: C_5  and  C_10
REMARK    3  A    between atoms: C_10  and  C_13
REMARK    4  A    between atoms: C_11  and  C_14
REMARK    5  A    between atoms: C_12  and  O_18
REMARK    6  A    between atoms: C_13  and  O_18
REMARK    7  A    between atoms: C_14  and  O_17
REMARK                            x       y       z     vdW  Elec       q    Type
REMARK                         _______ _______ _______ _____ _____    ______ ____
ROOT
ATOM      1  C   UNL     1       2.143   1.031   0.000  0.00  0.00    +0.000 A 
ATOM      2  C   UNL     1       1.429   1.444   0.000  0.00  0.00    +0.000 A 
ATOM      3  C   UNL     1       2.143   0.206   0.000  0.00  0.00    +0.000 A 
ATOM      4  C   UNL     1       0.714   1.031   0.000  0.00  0.00    +0.000 A 
ATOM      5  C   UNL     1       1.429  -0.206   0.000  0.00  0.00    +0.000 A 
ATOM      6  C   UNL     1       0.714   0.206   0.000  0.00  0.00    +0.000 A 
ENDROOT
BRANCH   5   7
ATOM      7  C   UNL     1       1.429  -1.031   0.000  0.00  0.00    +0.000 C 
ATOM      8  O   UNL     1       0.714  -1.444   0.000  0.00  0.00    +0.000 OA
BRANCH   7  10
ATOM      9  C   UNL     1       2.858  -1.031   0.000  0.00  0.00    +0.000 C 
ATOM     10  O   UNL     1       2.143  -1.444   0.000  0.00  0.00    +0.000 OA
ENDBRANCH   7  10
ENDBRANCH   5   7
BRANCH   6  11
ATOM     11  O   UNL     1       0.000  -0.206   0.000  0.00  0.00    +0.000 OA
BRANCH  11  12
ATOM     12  C   UNL     1      -0.714   0.206   0.000  0.00  0.00    +0.000 C 
ATOM     13  O   UNL     1      -0.714   1.031   0.000  0.00  0.00    +0.000 OA
BRANCH  12  14
ATOM     14  C   UNL     1      -1.429  -0.206   0.000  0.00  0.00    +0.000 C 
BRANCH  14  16
ATOM     15  C   UNL     1      -2.858  -0.206   0.000  0.00  0.00    +0.000 C 
ATOM     16  C   UNL     1      -2.143   0.206   0.000  0.00  0.00    +0.000 C 
ENDBRANCH  14  16
BRANCH  14  18
ATOM     17  C   UNL     1      -2.143  -1.444   0.000  0.00  0.00    +0.000 C 
ATOM     18  C   UNL     1      -1.429  -1.031   0.000  0.00  0.00    +0.000 C 
ENDBRANCH  14  18
ENDBRANCH  12  14
ENDBRANCH  11  12
ENDBRANCH   6  11
TORSDOF 7
