REMARK  Name = 
REMARK  3 active torsions:
REMARK  status: ('A' for Active; 'I' for Inactive)
REMARK    1  A    between atoms: C_8  and  C_20
REMARK    2  A    between atoms: N_18  and  C_19
REMARK    3  A    between atoms: C_19  and  C_20
REMARK                            x       y       z     vdW  Elec       q    Type
REMARK                         _______ _______ _______ _____ _____    ______ ____
ROOT
ATOM      1  C   UNL     1       0.827  -3.367   0.000  0.00  0.00    +0.000 C 
ATOM      2  C   UNL     1       0.026  -3.751   0.000  0.00  0.00    +0.000 C 
ATOM      3  C   UNL     1       1.702  -3.726   0.000  0.00  0.00    +0.000 C 
ATOM      4 FE   UNL     1       0.813  -2.436   0.000  0.00  0.00    +0.000 Fe
ATOM      5  C   UNL     1       0.468  -4.241   0.000  0.00  0.00    +0.000 C 
ATOM      6  C   UNL     1       1.213  -4.230   0.000  0.00  0.00    +0.000 C 
ATOM      7  C   UNL     1       0.797  -1.380   0.000  0.00  0.00    +0.000 C 
ATOM      8  C   UNL     1       1.660  -0.933   0.000  0.00  0.00    +0.000 C 
ATOM      9  C   UNL     1       1.156  -0.443   0.000  0.00  0.00    +0.000 C 
ATOM     10  C   UNL     1       0.411  -0.455   0.000  0.00  0.00    +0.000 C 
ATOM     11  C   UNL     1       0.045  -0.895   0.000  0.00  0.00    +0.000 C 
ENDROOT
BRANCH   8  12
ATOM     12  C   UNL     1       2.485  -0.946   0.000  0.00  0.00    +0.000 C 
BRANCH  12  13
ATOM     13  C   UNL     1       2.886  -1.667   0.000  0.00  0.00    +0.000 C 
BRANCH  13  20
ATOM     14  O   UNL     1       3.964  -0.232   0.000  0.00  0.00    +0.000 OA
ATOM     15  C   UNL     1       4.206  -1.020   0.000  0.00  0.00    +0.000 C 
ATOM     16  C   UNL     1       4.987  -1.288   0.000  0.00  0.00    +0.000 C 
ATOM     17  C   UNL     1       4.974  -2.113   0.000  0.00  0.00    +0.000 C 
ATOM     18  C   UNL     1       4.185  -2.355   0.000  0.00  0.00    +0.000 C 
ATOM     19  O   UNL     1       3.917  -3.136   0.000  0.00  0.00    +0.000 OA
ATOM     20  N   UNL     1       3.711  -1.680   0.000  0.00  0.00    +0.000 N 
ENDBRANCH  13  20
ENDBRANCH  12  13
ENDBRANCH   8  12
TORSDOF 3
