REMARK  Name = 
REMARK  2 active torsions:
REMARK  status: ('A' for Active; 'I' for Inactive)
REMARK    1  A    between atoms: N_1  and  RU_10
REMARK    2  A    between atoms: RU_10  and  N_15
REMARK                            x       y       z     vdW  Elec       q    Type
REMARK                         _______ _______ _______ _____ _____    ______ ____
ROOT
ATOM      1 RU   UNL     1      -0.451  -0.002   0.000  0.00  0.00    +0.000 Ru
ATOM      2 CL   UNL     1      -1.034   0.580   0.000  0.00  0.00    +0.000 Cl
ATOM      3 CL   UNL     1       0.131  -0.585   0.000  0.00  0.00    +0.000 Cl
ATOM      4 CL   UNL     1       0.131   0.580   0.000  0.00  0.00    +0.000 Cl
ATOM      5 CL   UNL     1      -1.034  -0.585   0.000  0.00  0.00    +0.000 Cl
ENDROOT
BRANCH   1   6
ATOM      6  N   UNL     1      -0.495  -0.827   0.000  0.00  0.00    +0.000 N 
ATOM      7  N   UNL     1       0.168  -1.319   0.000  0.00  0.00    +0.000 NA
ATOM      8  C   UNL     1      -0.925  -2.086   0.000  0.00  0.00    +0.000 A 
ATOM      9  C   UNL     1      -0.101  -2.098   0.000  0.00  0.00    +0.000 A 
ATOM     10  C   UNL     1      -1.167  -1.300   0.000  0.00  0.00    +0.000 C 
ATOM     11  C   UNL     1      -1.351  -2.800   0.000  0.00  0.00    +0.000 A 
ATOM     12  C   UNL     1       0.305  -2.823   0.000  0.00  0.00    +0.000 A 
ATOM     13  C   UNL     1      -0.945  -3.522   0.000  0.00  0.00    +0.000 A 
ATOM     14  C   UNL     1      -0.121  -3.533   0.000  0.00  0.00    +0.000 A 
ENDBRANCH   1   6
BRANCH   1  15
ATOM     15  N   UNL     1      -0.454   0.822   0.000  0.00  0.00    +0.000 N 
ATOM     16  N   UNL     1      -1.128   1.288   0.000  0.00  0.00    +0.000 NA
ATOM     17  C   UNL     1      -0.075   2.098   0.000  0.00  0.00    +0.000 A 
ATOM     18  C   UNL     1      -0.899   2.076   0.000  0.00  0.00    +0.000 A 
ATOM     19  C   UNL     1       0.199   1.322   0.000  0.00  0.00    +0.000 C 
ATOM     20  C   UNL     1       0.323   2.829   0.000  0.00  0.00    +0.000 A 
ATOM     21  C   UNL     1      -1.329   2.785   0.000  0.00  0.00    +0.000 A 
ATOM     22  C   UNL     1      -0.112   3.533   0.000  0.00  0.00    +0.000 A 
ATOM     23  C   UNL     1      -0.936   3.512   0.000  0.00  0.00    +0.000 A 
ENDBRANCH   1  15
TORSDOF 2
REMARK  Name = 
REMARK  2 active torsions:
REMARK  status: ('A' for Active; 'I' for Inactive)
REMARK    1  A    between atoms: N_1  and  RU_10
REMARK    2  A    between atoms: RU_10  and  N_15
REMARK                            x       y       z     vdW  Elec       q    Type
REMARK                         _______ _______ _______ _____ _____    ______ ____
ROOT
ATOM      1 NA   UNL     1       1.351  -0.006   0.000  0.00  0.00    +0.000 Na
ENDROOT
TORSDOF 0
