REMARK  Name = 
REMARK  5 active torsions:
REMARK  status: ('A' for Active; 'I' for Inactive)
REMARK    1  A    between atoms: C_6  and  C_7
REMARK    2  A    between atoms: C_7  and  C_8
REMARK    3  A    between atoms: N_18  and  C_19
REMARK    4  A    between atoms: C_19  and  C_20
REMARK    5  A    between atoms: C_23  and  C_26
REMARK                            x       y       z     vdW  Elec       q    Type
REMARK                         _______ _______ _______ _____ _____    ______ ____
ROOT
ATOM      1  C   UNL     1      -0.101   2.152   0.000  0.00  0.00    +0.000 A 
ATOM      2  C   UNL     1       0.451   2.765   0.000  0.00  0.00    +0.000 A 
ATOM      3  C   UNL     1       1.258   2.593   0.000  0.00  0.00    +0.000 A 
ATOM      4  N   UNL     1       1.513   1.809   0.000  0.00  0.00    +0.000 NA
ATOM      5  C   UNL     1       0.961   1.196   0.000  0.00  0.00    +0.000 A 
ATOM      6  C   UNL     1       0.154   1.367   0.000  0.00  0.00    +0.000 A 
ATOM      7  N   UNL     1       1.810   3.207   0.000  0.00  0.00    +0.000 NA
ENDROOT
BRANCH   6   8
ATOM      8  C   UNL     1      -0.398   0.754   0.000  0.00  0.00    +0.000 C 
BRANCH   8   9
ATOM      9  C   UNL     1      -0.143  -0.030   0.000  0.00  0.00    +0.000 A 
ATOM     10  C   UNL     1      -0.628  -0.698   0.000  0.00  0.00    +0.000 A 
ATOM     11  N   UNL     1      -0.143  -1.365   0.000  0.00  0.00    +0.000 NA
ATOM     12  C   UNL     1       0.641  -1.110   0.000  0.00  0.00    +0.000 A 
ATOM     13  C   UNL     1       0.641  -0.285   0.000  0.00  0.00    +0.000 A 
ATOM     14  C   UNL     1       1.356   0.127   0.000  0.00  0.00    +0.000 A 
ATOM     15  C   UNL     1       2.070  -0.285   0.000  0.00  0.00    +0.000 A 
ATOM     16  C   UNL     1       2.070  -1.110   0.000  0.00  0.00    +0.000 A 
ATOM     17  N   UNL     1       1.356  -1.523   0.000  0.00  0.00    +0.000 NA
ATOM     18 CL   UNL     1       2.784   0.127   0.000  0.00  0.00    +0.000 Cl
ENDBRANCH   8   9
ENDBRANCH   6   8
BRANCH   7  19
ATOM     19  C   UNL     1       1.555   3.991   0.000  0.00  0.00    +0.000 C 
BRANCH  19  20
ATOM     20  C   UNL     1       2.107   4.604   0.000  0.00  0.00    +0.000 A 
ATOM     21  C   UNL     1       1.852   5.389   0.000  0.00  0.00    +0.000 A 
ATOM     22  C   UNL     1       2.404   6.002   0.000  0.00  0.00    +0.000 A 
ATOM     23  C   UNL     1       3.211   5.830   0.000  0.00  0.00    +0.000 A 
ATOM     24  N   UNL     1       3.466   5.046   0.000  0.00  0.00    +0.000 NA
ATOM     25  C   UNL     1       2.914   4.433   0.000  0.00  0.00    +0.000 A 
BRANCH  23  26
ATOM     26  C   UNL     1       3.763   6.444   0.000  0.00  0.00    +0.000 C 
ATOM     27  F   UNL     1       4.315   7.057   0.000  0.00  0.00    +0.000 F 
ATOM     28  F   UNL     1       4.376   5.891   0.000  0.00  0.00    +0.000 F 
ATOM     29  F   UNL     1       3.150   6.995   0.000  0.00  0.00    +0.000 F 
ENDBRANCH  23  26
ENDBRANCH  19  20
ENDBRANCH   7  19
TORSDOF 5
