REMARK  Name = 
REMARK  3 active torsions:
REMARK  status: ('A' for Active; 'I' for Inactive)
REMARK    1  A    between atoms: C_8  and  C_20
REMARK    2  A    between atoms: C_14  and  C_18
REMARK    3  A    between atoms: C_22  and  C_26
REMARK                            x       y       z     vdW  Elec       q    Type
REMARK                         _______ _______ _______ _____ _____    ______ ____
ROOT
ATOM      1  C   UNL     1      -2.851   1.645   0.000  0.00  0.00    +0.000 A 
ATOM      2  C   UNL     1      -2.852   0.817   0.000  0.00  0.00    +0.000 A 
ATOM      3  C   UNL     1      -2.137   0.404   0.000  0.00  0.00    +0.000 A 
ATOM      4  C   UNL     1      -2.139   2.057   0.000  0.00  0.00    +0.000 A 
ATOM      5  O   UNL     1      -2.141   2.882   0.000  0.00  0.00    +0.000 OA
ATOM      6  C   UNL     1      -1.423   1.648   0.000  0.00  0.00    +0.000 A 
ATOM      7  C   UNL     1      -1.425   0.820   0.000  0.00  0.00    +0.000 A 
ATOM      8  C   UNL     1      -0.712   0.407   0.000  0.00  0.00    +0.000 C 
ATOM      9  C   UNL     1      -0.709   2.064   0.000  0.00  0.00    +0.000 C 
ATOM     10  O   UNL     1      -0.709   2.889   0.000  0.00  0.00    +0.000 OA
ATOM     11  C   UNL     1       0.008   1.646   0.000  0.00  0.00    +0.000 A 
ATOM     12  C   UNL     1       0.006   0.821   0.000  0.00  0.00    +0.000 A 
ATOM     13  C   UNL     1       0.719   0.409   0.000  0.00  0.00    +0.000 A 
ATOM     14  C   UNL     1       1.433   0.821   0.000  0.00  0.00    +0.000 A 
ATOM     15  C   UNL     1       1.431   1.649   0.000  0.00  0.00    +0.000 A 
ATOM     16  C   UNL     1       0.718   2.057   0.000  0.00  0.00    +0.000 A 
ATOM     17  O   UNL     1       0.716   2.882   0.000  0.00  0.00    +0.000 OA
ENDROOT
BRANCH   8  18
ATOM     18  C   UNL     1      -0.712  -0.418   0.000  0.00  0.00    +0.000 C 
ATOM     19  O   UNL     1      -1.431  -0.825   0.000  0.00  0.00    +0.000 OA
ATOM     20  C   UNL     1      -1.433  -1.647   0.000  0.00  0.00    +0.000 C 
ATOM     21  C   UNL     1      -0.721  -2.064   0.000  0.00  0.00    +0.000 C 
ATOM     22  C   UNL     1      -0.004  -1.653   0.000  0.00  0.00    +0.000 C 
ATOM     23  C   UNL     1       0.000  -0.825   0.000  0.00  0.00    +0.000 C 
ATOM     24  O   UNL     1      -0.725  -2.889   0.000  0.00  0.00    +0.000 OA
ATOM     25  O   UNL     1       0.708  -2.068   0.000  0.00  0.00    +0.000 OA
ATOM     26  O   UNL     1       0.715  -0.413   0.000  0.00  0.00    +0.000 OA
BRANCH  20  27
ATOM     27  C   UNL     1      -2.150  -2.056   0.000  0.00  0.00    +0.000 C 
ATOM     28  O   UNL     1      -2.862  -1.640   0.000  0.00  0.00    +0.000 OA
ENDBRANCH  20  27
ENDBRANCH   8  18
BRANCH  14  29
ATOM     29  C   UNL     1       2.148   0.409   0.000  0.00  0.00    +0.000 C 
ATOM     30  O   UNL     1       2.862   0.822   0.000  0.00  0.00    +0.000 OA
ENDBRANCH  14  29
TORSDOF 3
