REMARK  Name = 
REMARK  7 active torsions:
REMARK  status: ('A' for Active; 'I' for Inactive)
REMARK    1  A    between atoms: O_1  and  C_13
REMARK    2  A    between atoms: O_1  and  C_21
REMARK    3  A    between atoms: O_2  and  C_14
REMARK    4  A    between atoms: O_2  and  C_22
REMARK    5  A    between atoms: C_5  and  C_6
REMARK    6  A    between atoms: C_5  and  C_7
REMARK    7  A    between atoms: C_6  and  C_8
REMARK                            x       y       z     vdW  Elec       q    Type
REMARK                         _______ _______ _______ _____ _____    ______ ____
ROOT
ATOM      1  C   UNL     1       0.209  -0.351   0.000  0.00  0.00    +0.000 C 
ATOM      2  C   UNL     1      -0.209  -1.071   0.000  0.00  0.00    +0.000 C 
ATOM      3  C   UNL     1       0.209  -1.783   0.000  0.00  0.00    +0.000 C 
ENDROOT
BRANCH   1   4
ATOM      4  C   UNL     1       1.034  -0.351   0.000  0.00  0.00    +0.000 A 
ATOM      5  C   UNL     1       1.441  -1.071   0.000  0.00  0.00    +0.000 A 
ATOM      6  C   UNL     1       1.441   0.360   0.000  0.00  0.00    +0.000 A 
ATOM      7  C   UNL     1       2.684  -0.360   0.000  0.00  0.00    +0.000 A 
ATOM      8  C   UNL     1       2.267  -1.071   0.000  0.00  0.00    +0.000 A 
ATOM      9  C   UNL     1       2.267   0.360   0.000  0.00  0.00    +0.000 A 
BRANCH   7  10
ATOM     10  O   UNL     1       3.509  -0.360   0.000  0.00  0.00    +0.000 OA
BRANCH  10  12
ATOM     11  O   UNL     1       3.509   1.072   0.000  0.00  0.00    +0.000 OA
ATOM     12  C   UNL     1       3.917   0.360   0.000  0.00  0.00    +0.000 C 
ATOM     13  C   UNL     1       4.742   0.360   0.000  0.00  0.00    +0.000 C 
ENDBRANCH  10  12
ENDBRANCH   7  10
ENDBRANCH   1   4
BRANCH   1  14
ATOM     14  C   UNL     1      -0.209   0.360   0.000  0.00  0.00    +0.000 C 
ATOM     15  C   UNL     1       0.209   1.072   0.000  0.00  0.00    +0.000 C 
ATOM     16  C   UNL     1      -0.209   1.783   0.000  0.00  0.00    +0.000 C 
BRANCH  14  17
ATOM     17  C   UNL     1      -1.034   0.360   0.000  0.00  0.00    +0.000 A 
ATOM     18  C   UNL     1      -1.441   1.072   0.000  0.00  0.00    +0.000 A 
ATOM     19  C   UNL     1      -1.441  -0.351   0.000  0.00  0.00    +0.000 A 
ATOM     20  C   UNL     1      -2.684   0.360   0.000  0.00  0.00    +0.000 A 
ATOM     21  C   UNL     1      -2.266   1.072   0.000  0.00  0.00    +0.000 A 
ATOM     22  C   UNL     1      -2.266  -0.351   0.000  0.00  0.00    +0.000 A 
BRANCH  20  23
ATOM     23  O   UNL     1      -3.509   0.360   0.000  0.00  0.00    +0.000 OA
BRANCH  23  25
ATOM     24  O   UNL     1      -3.509  -1.062   0.000  0.00  0.00    +0.000 OA
ATOM     25  C   UNL     1      -3.916  -0.351   0.000  0.00  0.00    +0.000 C 
ATOM     26  C   UNL     1      -4.742  -0.351   0.000  0.00  0.00    +0.000 C 
ENDBRANCH  23  25
ENDBRANCH  20  23
ENDBRANCH  14  17
ENDBRANCH   1  14
TORSDOF 7
