REMARK  Name = 
REMARK  5 active torsions:
REMARK  status: ('A' for Active; 'I' for Inactive)
REMARK    1  A    between atoms: C_2  and  C_5
REMARK    2  A    between atoms: C_8  and  C_10
REMARK    3  A    between atoms: C_13  and  N_15
REMARK    4  A    between atoms: C_23  and  N_24
REMARK    5  A    between atoms: N_24  and  C_25
REMARK                            x       y       z     vdW  Elec       q    Type
REMARK                         _______ _______ _______ _____ _____    ______ ____
ROOT
ATOM      1  N   UNL     1      -0.143  -0.030   0.000  0.00  0.00    +0.000 N 
ATOM      2  C   UNL     1      -0.628  -0.698   0.000  0.00  0.00    +0.000 A 
ATOM      3  N   UNL     1      -0.143  -1.365   0.000  0.00  0.00    +0.000 NA
ATOM      4  C   UNL     1       0.641  -1.110   0.000  0.00  0.00    +0.000 A 
ATOM      5  C   UNL     1       0.641  -0.285   0.000  0.00  0.00    +0.000 A 
ATOM      6  N   UNL     1       1.356   0.127   0.000  0.00  0.00    +0.000 NA
ATOM      7  C   UNL     1       2.070  -0.285   0.000  0.00  0.00    +0.000 A 
ATOM      8  N   UNL     1       2.070  -1.110   0.000  0.00  0.00    +0.000 NA
ATOM      9  C   UNL     1       1.356  -1.523   0.000  0.00  0.00    +0.000 A 
ENDROOT
BRANCH   1  13
ATOM     10  C   UNL     1      -1.183   1.834   0.000  0.00  0.00    +0.000 C 
ATOM     11  C   UNL     1      -0.398   2.089   0.000  0.00  0.00    +0.000 C 
ATOM     12  C   UNL     1       0.086   1.422   0.000  0.00  0.00    +0.000 C 
ATOM     13  C   UNL     1      -0.398   0.754   0.000  0.00  0.00    +0.000 C 
ATOM     14  O   UNL     1      -1.183   1.009   0.000  0.00  0.00    +0.000 OA
ATOM     15  O   UNL     1       0.911   1.422   0.000  0.00  0.00    +0.000 OA
ATOM     16  O   UNL     1      -0.143   2.874   0.000  0.00  0.00    +0.000 OA
BRANCH  10  20
ATOM     17  C   UNL     1      -3.120   2.732   0.000  0.00  0.00    +0.000 A 
ATOM     18  N   UNL     1      -2.635   3.399   0.000  0.00  0.00    +0.000 NA
ATOM     19  N   UNL     1      -1.851   3.144   0.000  0.00  0.00    +0.000 NA
ATOM     20  C   UNL     1      -1.851   2.319   0.000  0.00  0.00    +0.000 A 
ATOM     21  O   UNL     1      -2.635   2.064   0.000  0.00  0.00    +0.000 OA
BRANCH  17  23
ATOM     22  C   UNL     1      -4.770   2.732   0.000  0.00  0.00    +0.000 C 
ATOM     23  C   UNL     1      -3.945   2.732   0.000  0.00  0.00    +0.000 C 
ATOM     24  C   UNL     1      -3.945   1.907   0.000  0.00  0.00    +0.000 C 
ATOM     25  C   UNL     1      -3.945   3.557   0.000  0.00  0.00    +0.000 C 
ENDBRANCH  17  23
ENDBRANCH  10  20
ENDBRANCH   1  13
BRANCH   9  26
ATOM     26  N   UNL     1       1.356  -2.348   0.000  0.00  0.00    +0.000 NA
BRANCH  26  27
ATOM     27  C   UNL     1       0.641  -2.760   0.000  0.00  0.00    +0.000 A 
ATOM     28  C   UNL     1      -0.073  -2.348   0.000  0.00  0.00    +0.000 A 
ATOM     29  C   UNL     1      -0.788  -2.760   0.000  0.00  0.00    +0.000 A 
ATOM     30  C   UNL     1      -0.788  -3.585   0.000  0.00  0.00    +0.000 A 
ATOM     31  C   UNL     1      -0.073  -3.998   0.000  0.00  0.00    +0.000 A 
ATOM     32  C   UNL     1       0.641  -3.585   0.000  0.00  0.00    +0.000 A 
ATOM     33  F   UNL     1       1.356  -3.998   0.000  0.00  0.00    +0.000 F 
ATOM     34 CL   UNL     1      -1.502  -3.998   0.000  0.00  0.00    +0.000 Cl
ENDBRANCH  26  27
ENDBRANCH   9  26
TORSDOF 5
