REMARK  Name = 
REMARK  13 active torsions:
REMARK  status: ('A' for Active; 'I' for Inactive)
REMARK    1  A    between atoms: N_1  and  C_4
REMARK    2  A    between atoms: C_2  and  C_6
REMARK    3  A    between atoms: C_4  and  C_8
REMARK    4  A    between atoms: C_8  and  C_13
REMARK    5  A    between atoms: N_10  and  C_48
REMARK    6  A    between atoms: C_13  and  C_17
REMARK    7  A    between atoms: C_13  and  N_18
REMARK    8  A    between atoms: C_17  and  C_20
REMARK    9  A    between atoms: C_21  and  C_22
REMARK   10  A    between atoms: C_22  and  N_24
REMARK   11  A    between atoms: C_22  and  C_25
REMARK   12  A    between atoms: C_25  and  C_27
REMARK   13  A    between atoms: C_26  and  C_28
REMARK                            x       y       z     vdW  Elec       q    Type
REMARK                         _______ _______ _______ _____ _____    ______ ____
ROOT
ATOM      1  C   UNL     1       1.430   1.234   0.000  0.00  0.00    +0.000 C 
ENDROOT
BRANCH   1   2
ATOM      2  N   UNL     1       0.715   0.825   0.000  0.00  0.00    +0.000 NA
ATOM      3  C   UNL     1       0.007   1.238   0.000  0.00  0.00    +0.000 C 
ATOM      4  O   UNL     1       0.007   2.066   0.000  0.00  0.00    +0.000 OA
BRANCH   3   5
ATOM      5  C   UNL     1      -0.707   0.832   0.000  0.00  0.00    +0.000 C 
BRANCH   5   6
ATOM      6  N   UNL     1      -1.422   1.245   0.000  0.00  0.00    +0.000 NA
ATOM      7  C   UNL     1      -2.137   0.836   0.000  0.00  0.00    +0.000 C 
ATOM      8  O   UNL     1      -2.137   0.011   0.000  0.00  0.00    +0.000 OA
BRANCH   7   9
ATOM      9  C   UNL     1      -2.848   1.245   0.000  0.00  0.00    +0.000 A 
ATOM     10  N   UNL     1      -3.566   0.839   0.000  0.00  0.00    +0.000 NA
ATOM     11  C   UNL     1      -2.845   2.072   0.000  0.00  0.00    +0.000 A 
ATOM     12  C   UNL     1      -4.239   1.252   0.000  0.00  0.00    +0.000 A 
ATOM     13  C   UNL     1      -3.559   2.488   0.000  0.00  0.00    +0.000 A 
ATOM     14  C   UNL     1      -4.274   2.079   0.000  0.00  0.00    +0.000 A 
ATOM     15  C   UNL     1      -4.989   0.839   0.000  0.00  0.00    +0.000 A 
ATOM     16  C   UNL     1      -4.989   2.492   0.000  0.00  0.00    +0.000 A 
ATOM     17  C   UNL     1      -5.703   1.252   0.000  0.00  0.00    +0.000 A 
ATOM     18  C   UNL     1      -5.703   2.079   0.000  0.00  0.00    +0.000 A 
ENDBRANCH   7   9
ENDBRANCH   5   6
BRANCH   5  19
ATOM     19  C   UNL     1      -0.711  -0.199   0.000  0.00  0.00    +0.000 C 
BRANCH  19  20
ATOM     20  C   UNL     1       0.004  -0.618   0.000  0.00  0.00    +0.000 C 
ATOM     21  N   UNL     1       0.004  -1.442   0.000  0.00  0.00    +0.000 NA
ATOM     22  O   UNL     1       0.718  -0.209   0.000  0.00  0.00    +0.000 OA
ENDBRANCH  19  20
ENDBRANCH   5  19
ENDBRANCH   3   5
ENDBRANCH   1   2
BRANCH   1  23
ATOM     23  C   UNL     1       2.144   0.819   0.000  0.00  0.00    +0.000 C 
ATOM     24  O   UNL     1       2.859   1.229   0.000  0.00  0.00    +0.000 OA
BRANCH  23  25
ATOM     25  C   UNL     1       2.139  -0.006   0.000  0.00  0.00    +0.000 C 
BRANCH  25  26
ATOM     26  N   UNL     1       2.854  -0.422   0.000  0.00  0.00    +0.000 NA
ATOM     27  C   UNL     1       2.846  -1.249   0.000  0.00  0.00    +0.000 C 
ATOM     28  C   UNL     1       3.569  -0.011   0.000  0.00  0.00    +0.000 C 
ATOM     29  C   UNL     1       3.559  -1.661   0.000  0.00  0.00    +0.000 C 
ATOM     30  C   UNL     1       4.275  -0.432   0.000  0.00  0.00    +0.000 C 
ATOM     31  C   UNL     1       4.276  -1.254   0.000  0.00  0.00    +0.000 C 
ATOM     32  C   UNL     1       4.987  -0.023   0.000  0.00  0.00    +0.000 C 
ATOM     33  C   UNL     1       4.984  -1.665   0.000  0.00  0.00    +0.000 C 
ATOM     34  C   UNL     1       5.703  -0.434   0.000  0.00  0.00    +0.000 C 
ATOM     35  C   UNL     1       5.698  -1.251   0.000  0.00  0.00    +0.000 C 
BRANCH  27  36
ATOM     36  C   UNL     1       2.130  -1.657   0.000  0.00  0.00    +0.000 C 
ATOM     37  N   UNL     1       2.127  -2.480   0.000  0.00  0.00    +0.000 NA
ATOM     38  O   UNL     1       1.421  -1.245   0.000  0.00  0.00    +0.000 OA
BRANCH  37  39
ATOM     39  C   UNL     1       1.412  -2.891   0.000  0.00  0.00    +0.000 C 
ATOM     40  C   UNL     1       1.410  -3.716   0.000  0.00  0.00    +0.000 C 
ATOM     41  C   UNL     1       0.699  -2.476   0.000  0.00  0.00    +0.000 C 
ATOM     42  C   UNL     1       0.698  -3.303   0.000  0.00  0.00    +0.000 C 
ENDBRANCH  37  39
ENDBRANCH  27  36
ENDBRANCH  25  26
ENDBRANCH  23  25
ENDBRANCH   1  23
BRANCH   1  43
ATOM     43  C   UNL     1       1.433   2.062   0.000  0.00  0.00    +0.000 C 
BRANCH  43  44
ATOM     44  C   UNL     1       2.148   2.478   0.000  0.00  0.00    +0.000 A 
ATOM     45  C   UNL     1       2.862   3.716   0.000  0.00  0.00    +0.000 A 
ATOM     46  C   UNL     1       2.148   3.303   0.000  0.00  0.00    +0.000 A 
ATOM     47  C   UNL     1       2.862   2.066   0.000  0.00  0.00    +0.000 A 
ATOM     48  C   UNL     1       3.577   2.478   0.000  0.00  0.00    +0.000 A 
ATOM     49  C   UNL     1       3.577   3.303   0.000  0.00  0.00    +0.000 A 
ENDBRANCH  43  44
ENDBRANCH   1  43
TORSDOF 13
