REMARK  Name = 
REMARK  8 active torsions:
REMARK  status: ('A' for Active; 'I' for Inactive)
REMARK    1  A    between atoms: C_4  and  C_42
REMARK    2  A    between atoms: C_21  and  C_24
REMARK    3  A    between atoms: C_27  and  C_28
REMARK    4  A    between atoms: C_28  and  C_29
REMARK    5  A    between atoms: C_29  and  C_30
REMARK    6  A    between atoms: C_34  and  C_37
REMARK    7  A    between atoms: C_37  and  C_38
REMARK    8  A    between atoms: C_38  and  C_39
REMARK                            x       y       z     vdW  Elec       q    Type
REMARK                         _______ _______ _______ _____ _____    ______ ____
ROOT
ATOM      1 FE   UNL     1       0.024   0.518   0.000  0.00  0.00    +0.000 Fe
ATOM      2  N   UNL     1       0.972   1.254   0.000  0.00  0.00    +0.000 N 
ATOM      3  C   UNL     1       0.723   2.042   0.000  0.00  0.00    +0.000 C 
ATOM      4  C   UNL     1       1.395   2.523   0.000  0.00  0.00    +0.000 C 
ATOM      5  C   UNL     1       2.060   2.033   0.000  0.00  0.00    +0.000 C 
ATOM      6  O   UNL     1       2.845   2.281   0.000  0.00  0.00    +0.000 OA
ATOM      7  C   UNL     1       1.799   1.248   0.000  0.00  0.00    +0.000 C 
ATOM      8  C   UNL     1       2.213   0.532   0.000  0.00  0.00    +0.000 C 
ATOM      9  C   UNL     1       1.795  -0.182   0.000  0.00  0.00    +0.000 A 
ATOM     10  N   UNL     1       0.972  -0.179   0.000  0.00  0.00    +0.000 N 
ATOM     11  C   UNL     1       0.716  -0.961   0.000  0.00  0.00    +0.000 A 
ATOM     12  C   UNL     1      -0.006  -1.375   0.000  0.00  0.00    +0.000 C 
ATOM     13  C   UNL     1      -0.722  -0.961   0.000  0.00  0.00    +0.000 A 
ATOM     14  N   UNL     1      -0.975  -0.173   0.000  0.00  0.00    +0.000 N 
ATOM     15  C   UNL     1      -1.803  -0.171   0.000  0.00  0.00    +0.000 A 
ATOM     16  C   UNL     1      -2.210   0.547   0.000  0.00  0.00    +0.000 C 
ATOM     17  C   UNL     1      -1.798   1.262   0.000  0.00  0.00    +0.000 A 
ATOM     18  N   UNL     1      -0.972   1.256   0.000  0.00  0.00    +0.000 N 
ATOM     19  C   UNL     1      -0.710   2.041   0.000  0.00  0.00    +0.000 A 
ATOM     20  C   UNL     1       0.007   2.462   0.000  0.00  0.00    +0.000 C 
ATOM     21  C   UNL     1      -1.376   2.532   0.000  0.00  0.00    +0.000 A 
ATOM     22  C   UNL     1      -2.048   2.050   0.000  0.00  0.00    +0.000 A 
ATOM     23  C   UNL     1      -2.829   2.310   0.000  0.00  0.00    +0.000 C 
ATOM     24  C   UNL     1      -2.061  -0.957   0.000  0.00  0.00    +0.000 A 
ATOM     25  C   UNL     1      -1.393  -1.445   0.000  0.00  0.00    +0.000 A 
ATOM     26  C   UNL     1      -2.845  -1.208   0.000  0.00  0.00    +0.000 C 
ATOM     27  C   UNL     1       1.380  -1.447   0.000  0.00  0.00    +0.000 A 
ATOM     28  C   UNL     1       2.047  -0.965   0.000  0.00  0.00    +0.000 A 
ATOM     29  C   UNL     1       2.828  -1.222   0.000  0.00  0.00    +0.000 C 
ATOM     30  C   UNL     1       1.950   3.131   0.000  0.00  0.00    +0.000 C 
ENDROOT
BRANCH   4  31
ATOM     31  C   UNL     1       0.849   3.139   0.000  0.00  0.00    +0.000 C 
ATOM     32  C   UNL     1       1.108   3.919   0.000  0.00  0.00    +0.000 C 
ENDBRANCH   4  31
BRANCH  21  33
ATOM     33  C   UNL     1      -1.370   3.354   0.000  0.00  0.00    +0.000 C 
ATOM     34  C   UNL     1      -2.080   3.771   0.000  0.00  0.00    +0.000 C 
ENDBRANCH  21  33
BRANCH  25  35
ATOM     35  C   UNL     1      -1.396  -2.268   0.000  0.00  0.00    +0.000 C 
BRANCH  35  36
ATOM     36  C   UNL     1      -0.685  -2.682   0.000  0.00  0.00    +0.000 C 
BRANCH  36  37
ATOM     37  C   UNL     1      -0.687  -3.504   0.000  0.00  0.00    +0.000 C 
ATOM     38  O   UNL     1      -1.401  -3.913   0.000  0.00  0.00    +0.000 OA
ATOM     39  O   UNL     1       0.024  -3.918   0.000  0.00  0.00    +0.000 OA
ENDBRANCH  36  37
ENDBRANCH  35  36
ENDBRANCH  25  35
BRANCH  27  40
ATOM     40  C   UNL     1       1.377  -2.269   0.000  0.00  0.00    +0.000 C 
BRANCH  40  41
ATOM     41  C   UNL     1       2.088  -2.683   0.000  0.00  0.00    +0.000 C 
BRANCH  41  42
ATOM     42  C   UNL     1       2.085  -3.506   0.000  0.00  0.00    +0.000 C 
ATOM     43  O   UNL     1       1.372  -3.915   0.000  0.00  0.00    +0.000 OA
ATOM     44  O   UNL     1       2.797  -3.919   0.000  0.00  0.00    +0.000 OA
ENDBRANCH  41  42
ENDBRANCH  40  41
ENDBRANCH  27  40
TORSDOF 8
