REMARK  Name = 
REMARK  5 active torsions:
REMARK  status: ('A' for Active; 'I' for Inactive)
REMARK    1  A    between atoms: N_20  and  O_21
REMARK    2  A    between atoms: O_21  and  C_22
REMARK    3  A    between atoms: C_22  and  C_23
REMARK    4  A    between atoms: C_23  and  C_24
REMARK    5  A    between atoms: C_24  and  C_26
REMARK                            x       y       z     vdW  Elec       q    Type
REMARK                         _______ _______ _______ _____ _____    ______ ____
ROOT
ATOM      1  O   UNL     1       2.565  -1.637   0.000  0.00  0.00    +0.000 OA
ATOM      2  C   UNL     1       1.905  -1.642   0.000  0.00  0.00    +0.000 C 
ATOM      3  C   UNL     1       1.424  -0.991   0.000  0.00  0.00    +0.000 C 
ATOM      4  C   UNL     1       0.642  -1.241   0.000  0.00  0.00    +0.000 A 
ATOM      5  C   UNL     1      -0.069  -0.820   0.000  0.00  0.00    +0.000 A 
ATOM      6  C   UNL     1      -0.791  -1.241   0.000  0.00  0.00    +0.000 A 
ATOM      7  C   UNL     1      -0.791  -2.063   0.000  0.00  0.00    +0.000 A 
ATOM      8  C   UNL     1      -0.069  -2.484   0.000  0.00  0.00    +0.000 A 
ATOM      9  C   UNL     1       0.642  -2.063   0.000  0.00  0.00    +0.000 A 
ATOM     10  N   UNL     1       1.424  -2.314   0.000  0.00  0.00    +0.000 N 
ATOM     11  C   UNL     1       1.677  -0.205   0.000  0.00  0.00    +0.000 C 
ATOM     12  C   UNL     1       1.244   0.468   0.000  0.00  0.00    +0.000 C 
ATOM     13  C   UNL     1       1.764   1.104   0.000  0.00  0.00    +0.000 A 
ATOM     14  C   UNL     1       1.633   1.920   0.000  0.00  0.00    +0.000 A 
ATOM     15  C   UNL     1       2.289   2.437   0.000  0.00  0.00    +0.000 A 
ATOM     16  C   UNL     1       3.054   2.135   0.000  0.00  0.00    +0.000 A 
ATOM     17  C   UNL     1       3.181   1.310   0.000  0.00  0.00    +0.000 A 
ATOM     18  C   UNL     1       2.528   0.802   0.000  0.00  0.00    +0.000 A 
ATOM     19  N   UNL     1       2.474  -0.017   0.000  0.00  0.00    +0.000 N 
ATOM     20  N   UNL     1       0.421   0.509   0.000  0.00  0.00    +0.000 NA
ATOM     21  H   UNL     1       1.597  -2.836   0.000  0.00  0.00    +0.000 HD
ATOM     22  H   UNL     1       2.894  -0.372   0.000  0.00  0.00    +0.000 HD
ENDROOT
BRANCH  20  23
ATOM     23  O   UNL     1       0.044   1.244   0.000  0.00  0.00    +0.000 OA
BRANCH  23  24
ATOM     24  C   UNL     1      -0.779   1.285   0.000  0.00  0.00    +0.000 C 
BRANCH  24  25
ATOM     25  C   UNL     1      -1.156   2.019   0.000  0.00  0.00    +0.000 C 
BRANCH  25  26
ATOM     26  C   UNL     1      -1.980   2.060   0.000  0.00  0.00    +0.000 C 
ATOM     27  O   UNL     1      -2.428   1.367   0.000  0.00  0.00    +0.000 OA
BRANCH  26  28
ATOM     28  C   UNL     1      -2.357   2.794   0.000  0.00  0.00    +0.000 C 
ATOM     29  O   UNL     1      -3.181   2.836   0.000  0.00  0.00    +0.000 OA
ENDBRANCH  26  28
ENDBRANCH  25  26
ENDBRANCH  24  25
ENDBRANCH  23  24
ENDBRANCH  20  23
TORSDOF 5
