REMARK  Name = 
REMARK  5 active torsions:
REMARK  status: ('A' for Active; 'I' for Inactive)
REMARK    1  A    between atoms: C_1  and  C_2
REMARK    2  A    between atoms: C_1  and  C_10
REMARK    3  A    between atoms: C_10  and  C_11
REMARK    4  A    between atoms: C_11  and  C_12
REMARK    5  A    between atoms: C_12  and  N_13
REMARK                            x       y       z     vdW  Elec       q    Type
REMARK                         _______ _______ _______ _____ _____    ______ ____
ROOT
ATOM      1  N   UNL     1       0.507  -0.140   0.000  0.00  0.00    +0.000 NA
ATOM      2  C   UNL     1       1.222  -0.552   0.000  0.00  0.00    +0.000 C 
ATOM      3  C   UNL     1       1.936  -0.140   0.000  0.00  0.00    +0.000 C 
ATOM      4  C   UNL     1       2.733  -0.353   0.000  0.00  0.00    +0.000 A 
ATOM      5  C   UNL     1       3.146  -1.068   0.000  0.00  0.00    +0.000 A 
ATOM      6  C   UNL     1       3.971  -1.068   0.000  0.00  0.00    +0.000 A 
ATOM      7  C   UNL     1       4.383  -0.353   0.000  0.00  0.00    +0.000 A 
ATOM      8  C   UNL     1       3.971   0.361   0.000  0.00  0.00    +0.000 A 
ATOM      9  C   UNL     1       3.146   0.361   0.000  0.00  0.00    +0.000 A 
ATOM     10  N   UNL     1       2.733   1.075   0.000  0.00  0.00    +0.000 N 
ATOM     11  C   UNL     1       1.936   0.685   0.000  0.00  0.00    +0.000 C 
ATOM     12  C   UNL     1       1.222   1.097   0.000  0.00  0.00    +0.000 C 
ATOM     13  C   UNL     1       0.507   0.685   0.000  0.00  0.00    +0.000 C 
ATOM     14  C   UNL     1       3.146   1.790   0.000  0.00  0.00    +0.000 C 
ATOM     15  C   UNL     1       3.971   1.790   0.000  0.00  0.00    +0.000 C 
ATOM     16  N   UNL     1       4.383   1.075   0.000  0.00  0.00    +0.000 N 
ATOM     17  C   UNL     1       5.208   1.075   0.000  0.00  0.00    +0.000 C 
ENDROOT
BRANCH   1  18
ATOM     18  C   UNL     1      -0.207  -0.552   0.000  0.00  0.00    +0.000 C 
BRANCH  18  19
ATOM     19  C   UNL     1      -0.921  -0.140   0.000  0.00  0.00    +0.000 C 
BRANCH  19  20
ATOM     20  C   UNL     1      -1.636  -0.552   0.000  0.00  0.00    +0.000 C 
BRANCH  20  21
ATOM     21  C   UNL     1      -2.350  -0.140   0.000  0.00  0.00    +0.000 C 
ATOM     22  O   UNL     1      -2.350   0.685   0.000  0.00  0.00    +0.000 OA
BRANCH  21  23
ATOM     23  C   UNL     1      -3.065  -0.552   0.000  0.00  0.00    +0.000 A 
ATOM     24  C   UNL     1      -3.779  -0.140   0.000  0.00  0.00    +0.000 A 
ATOM     25  C   UNL     1      -4.494  -0.552   0.000  0.00  0.00    +0.000 A 
ATOM     26  C   UNL     1      -4.494  -1.377   0.000  0.00  0.00    +0.000 A 
ATOM     27  F   UNL     1      -5.208  -1.790   0.000  0.00  0.00    +0.000 F 
ATOM     28  C   UNL     1      -3.779  -1.790   0.000  0.00  0.00    +0.000 A 
ATOM     29  C   UNL     1      -3.065  -1.377   0.000  0.00  0.00    +0.000 A 
ENDBRANCH  21  23
ENDBRANCH  20  21
ENDBRANCH  19  20
ENDBRANCH  18  19
ENDBRANCH   1  18
TORSDOF 5
