REMARK  Name = 
REMARK  3 active torsions:
REMARK  status: ('A' for Active; 'I' for Inactive)
REMARK    1  A    between atoms: C_2  and  N_3
REMARK    2  A    between atoms: N_3  and  C_4
REMARK    3  A    between atoms: C_4  and  C_11
REMARK                            x       y       z     vdW  Elec       q    Type
REMARK                         _______ _______ _______ _____ _____    ______ ____
ROOT
ATOM      1  C   UNL     1      -0.267  -0.055   0.000  0.00  0.00    +0.000 C 
ATOM      2  C   UNL     1      -1.079  -0.199   0.000  0.00  0.00    +0.000 C 
ATOM      3  C   UNL     1      -1.610   0.433   0.000  0.00  0.00    +0.000 C 
ATOM      4  C   UNL     1      -1.327   1.209   0.000  0.00  0.00    +0.000 C 
ATOM      5  C   UNL     1      -0.515   1.352   0.000  0.00  0.00    +0.000 C 
ATOM      6  C   UNL     1       0.015   0.720   0.000  0.00  0.00    +0.000 C 
ATOM      7  O   UNL     1       0.828   0.863   0.000  0.00  0.00    +0.000 OA
ENDROOT
BRANCH   1   8
ATOM      8  C   UNL     1      -0.267  -0.880   0.000  0.00  0.00    +0.000 A 
ATOM      9  C   UNL     1      -0.934  -1.365   0.000  0.00  0.00    +0.000 A 
ATOM     10  C   UNL     1      -0.679  -2.150   0.000  0.00  0.00    +0.000 A 
ATOM     11  C   UNL     1       0.146  -2.150   0.000  0.00  0.00    +0.000 A 
ATOM     12  S   UNL     1       0.401  -1.365   0.000  0.00  0.00    +0.000 S 
ENDBRANCH   1   8
BRANCH   1  13
ATOM     13  N   UNL     1       0.545  -0.199   0.000  0.00  0.00    +0.000 NA
BRANCH  13  15
ATOM     14  C   UNL     1       1.888   0.290   0.000  0.00  0.00    +0.000 C 
ATOM     15  C   UNL     1       1.076   0.433   0.000  0.00  0.00    +0.000 C 
ENDBRANCH  13  15
ENDBRANCH   1  13
TORSDOF 3
