REMARK  Name = 
REMARK  5 active torsions:
REMARK  status: ('A' for Active; 'I' for Inactive)
REMARK    1  A    between atoms: C_4  and  C_7
REMARK    2  A    between atoms: C_7  and  N_8
REMARK    3  A    between atoms: C_15  and  O_17
REMARK    4  A    between atoms: O_17  and  C_18
REMARK    5  A    between atoms: C_18  and  C_19
REMARK                            x       y       z     vdW  Elec       q    Type
REMARK                         _______ _______ _______ _____ _____    ______ ____
ROOT
ATOM      1  N   UNL     1       1.139  -0.030   0.000  0.00  0.00    +0.000 N 
ATOM      2  C   UNL     1       1.923  -0.285   0.000  0.00  0.00    +0.000 A 
ATOM      3  C   UNL     1       2.638   0.127   0.000  0.00  0.00    +0.000 A 
ATOM      4  C   UNL     1       3.352  -0.285   0.000  0.00  0.00    +0.000 A 
ATOM      5  C   UNL     1       3.352  -1.110   0.000  0.00  0.00    +0.000 A 
ATOM      6  C   UNL     1       2.638  -1.523   0.000  0.00  0.00    +0.000 A 
ATOM      7  C   UNL     1       1.923  -1.110   0.000  0.00  0.00    +0.000 A 
ATOM      8  C   UNL     1       1.139  -1.365   0.000  0.00  0.00    +0.000 A 
ATOM      9  N   UNL     1       0.654  -0.698   0.000  0.00  0.00    +0.000 NA
ENDROOT
BRANCH   1  10
ATOM     10  C   UNL     1       0.884   0.754   0.000  0.00  0.00    +0.000 C 
BRANCH  10  14
ATOM     11  C   UNL     1       2.540   2.593   0.000  0.00  0.00    +0.000 A 
ATOM     12  C   UNL     1       2.795   1.809   0.000  0.00  0.00    +0.000 A 
ATOM     13  C   UNL     1       2.243   1.196   0.000  0.00  0.00    +0.000 A 
ATOM     14  C   UNL     1       1.436   1.367   0.000  0.00  0.00    +0.000 A 
ATOM     15  C   UNL     1       1.181   2.152   0.000  0.00  0.00    +0.000 A 
ATOM     16  C   UNL     1       1.733   2.765   0.000  0.00  0.00    +0.000 A 
ENDBRANCH  10  14
ENDBRANCH   1  10
BRANCH   8  17
ATOM     17  O   UNL     1       0.884  -2.150   0.000  0.00  0.00    +0.000 OA
BRANCH  17  18
ATOM     18  C   UNL     1       1.436  -2.763   0.000  0.00  0.00    +0.000 C 
BRANCH  18  19
ATOM     19  C   UNL     1       1.181  -3.548   0.000  0.00  0.00    +0.000 C 
ATOM     20  O   UNL     1       1.733  -4.161   0.000  0.00  0.00    +0.000 OA
ATOM     21  O   UNL     1       0.374  -3.719   0.000  0.00  0.00    +0.000 OA
ENDBRANCH  18  19
ENDBRANCH  17  18
ENDBRANCH   8  17
TORSDOF 5
