REMARK  Name = 
REMARK  5 active torsions:
REMARK  status: ('A' for Active; 'I' for Inactive)
REMARK    1  A    between atoms: C_8  and  C_9
REMARK    2  A    between atoms: N_14  and  C_15
REMARK    3  A    between atoms: C_19  and  O_20
REMARK    4  A    between atoms: O_20  and  C_21
REMARK    5  A    between atoms: C_25  and  C_28
REMARK                            x       y       z     vdW  Elec       q    Type
REMARK                         _______ _______ _______ _____ _____    ______ ____
ROOT
ATOM      1  C   UNL     1      -0.715  -4.537   0.000  0.00  0.00    +0.000 A 
ATOM      2  C   UNL     1       0.000  -4.125   0.000  0.00  0.00    +0.000 A 
ATOM      3  F   UNL     1       0.000  -3.300   0.000  0.00  0.00    +0.000 F 
ATOM      4  C   UNL     1       0.715  -4.537   0.000  0.00  0.00    +0.000 A 
ATOM      5  C   UNL     1       0.715  -5.362   0.000  0.00  0.00    +0.000 A 
ATOM      6  C   UNL     1       0.000  -5.775   0.000  0.00  0.00    +0.000 A 
ATOM      7  C   UNL     1      -0.715  -5.362   0.000  0.00  0.00    +0.000 A 
ENDROOT
BRANCH   1  13
ATOM      8  C   UNL     1      -3.572  -4.537   0.000  0.00  0.00    +0.000 C 
ATOM      9  O   UNL     1      -3.572  -5.362   0.000  0.00  0.00    +0.000 OA
ATOM     10  N   UNL     1      -2.858  -4.125   0.000  0.00  0.00    +0.000 NA
ATOM     11  C   UNL     1      -2.143  -4.537   0.000  0.00  0.00    +0.000 C 
ATOM     12  O   UNL     1      -2.143  -5.362   0.000  0.00  0.00    +0.000 OA
ATOM     13  N   UNL     1      -1.429  -4.125   0.000  0.00  0.00    +0.000 NA
BRANCH   8  21
ATOM     14  F   UNL     1      -5.001  -5.362   0.000  0.00  0.00    +0.000 F 
ATOM     15  C   UNL     1      -5.001  -4.537   0.000  0.00  0.00    +0.000 A 
ATOM     16  C   UNL     1      -5.716  -4.125   0.000  0.00  0.00    +0.000 A 
ATOM     17  C   UNL     1      -5.716  -3.300   0.000  0.00  0.00    +0.000 A 
ATOM     18  C   UNL     1      -5.001  -2.888   0.000  0.00  0.00    +0.000 A 
ATOM     19  C   UNL     1      -4.287  -3.300   0.000  0.00  0.00    +0.000 A 
ATOM     20  F   UNL     1      -3.572  -2.888   0.000  0.00  0.00    +0.000 F 
ATOM     21  C   UNL     1      -4.287  -4.125   0.000  0.00  0.00    +0.000 A 
ENDBRANCH   8  21
ENDBRANCH   1  13
BRANCH   5  22
ATOM     22  O   UNL     1       1.429  -5.775   0.000  0.00  0.00    +0.000 OA
BRANCH  22  23
ATOM     23  C   UNL     1       2.143  -5.362   0.000  0.00  0.00    +0.000 A 
ATOM     24  C   UNL     1       2.143  -4.537   0.000  0.00  0.00    +0.000 A 
ATOM     25 CL   UNL     1       1.429  -4.125   0.000  0.00  0.00    +0.000 Cl
ATOM     26  C   UNL     1       2.858  -4.125   0.000  0.00  0.00    +0.000 A 
ATOM     27  C   UNL     1       3.572  -4.537   0.000  0.00  0.00    +0.000 A 
ATOM     28  C   UNL     1       3.572  -5.362   0.000  0.00  0.00    +0.000 A 
ATOM     29  C   UNL     1       2.858  -5.775   0.000  0.00  0.00    +0.000 A 
BRANCH  27  30
ATOM     30  C   UNL     1       4.287  -4.125   0.000  0.00  0.00    +0.000 C 
ATOM     31  F   UNL     1       5.001  -3.712   0.000  0.00  0.00    +0.000 F 
ATOM     32  F   UNL     1       4.699  -4.840   0.000  0.00  0.00    +0.000 F 
ATOM     33  F   UNL     1       3.874  -3.410   0.000  0.00  0.00    +0.000 F 
ENDBRANCH  27  30
ENDBRANCH  22  23
ENDBRANCH   5  22
TORSDOF 5
