REMARK  Name = 
REMARK  110 active torsions:
REMARK  status: ('A' for Active; 'I' for Inactive)
REMARK    1  A    between atoms: C_1  and  CA_2
REMARK    2  A    between atoms: CA_2  and  N_5
REMARK    3  A    between atoms: CA_2  and  CB_6
REMARK    4  A    between atoms: N_4  and  CA_133
REMARK    5  A    between atoms: CB_6  and  CG_7
REMARK    6  A    between atoms: CG_7  and  CD_8
REMARK    7  A    between atoms: C_11  and  CA_12
REMARK    8  A    between atoms: CA_12  and  CB_14
REMARK    9  A    between atoms: CA_12  and  N_15
REMARK   10  A    between atoms: CB_14  and  CG_16
REMARK   11  A    between atoms: CG_16  and  CD_17
REMARK   12  A    between atoms: CD_17  and  CE_95
REMARK   13  A    between atoms: C_18  and  CA_19
REMARK   14  A    between atoms: CA_19  and  N_22
REMARK   15  A    between atoms: C_23  and  CA_24
REMARK   16  A    between atoms: CA_24  and  CB_26
REMARK   17  A    between atoms: CA_24  and  N_27
REMARK   18  A    between atoms: CB_26  and  CG_28
REMARK   19  A    between atoms: C_31  and  CA_32
REMARK   20  A    between atoms: CA_32  and  CB_34
REMARK   21  A    between atoms: CA_32  and  N_35
REMARK   22  A    between atoms: CB_34  and  CG_36
REMARK   23  A    between atoms: CG_36  and  CD_37
REMARK   24  A    between atoms: CD_37  and  NE_38
REMARK   25  A    between atoms: C_42  and  C_43
REMARK   26  A    between atoms: C_43  and  C_45
REMARK   27  A    between atoms: C_43  and  N_46
REMARK   28  A    between atoms: C_45  and  C_47
REMARK   29  A    between atoms: C_49  and  CA_50
REMARK   30  A    between atoms: CA_50  and  N_52
REMARK   31  A    between atoms: CA_50  and  CB_53
REMARK   32  A    between atoms: CB_53  and  CG_54
REMARK   33  A    between atoms: C_61  and  CA_62
REMARK   34  A    between atoms: CA_62  and  CB_64
REMARK   35  A    between atoms: CA_62  and  N_65
REMARK   36  A    between atoms: CB_64  and  CG_66
REMARK   37  A    between atoms: C_69  and  CA_70
REMARK   38  A    between atoms: CA_70  and  CB_72
REMARK   39  A    between atoms: CA_70  and  N_73
REMARK   40  A    between atoms: CB_72  and  CG_74
REMARK   41  A    between atoms: C_77  and  CA_78
REMARK   42  A    between atoms: CA_78  and  N_80
REMARK   43  A    between atoms: CA_78  and  CB_81
REMARK   44  A    between atoms: C_84  and  CA_85
REMARK   45  A    between atoms: CA_85  and  N_87
REMARK   46  A    between atoms: CA_85  and  CB_88
REMARK   47  A    between atoms: CB_88  and  CG_89
REMARK   48  A    between atoms: C_97  and  CA_98
REMARK   49  A    between atoms: CA_98  and  N_100
REMARK   50  A    between atoms: CA_98  and  CB_101
REMARK   51  A    between atoms: C_104  and  CA_105
REMARK   52  A    between atoms: CA_105  and  N_108
REMARK   53  A    between atoms: C_109  and  CA_110
REMARK   54  A    between atoms: CA_110  and  CB_112
REMARK   55  A    between atoms: CA_110  and  N_113
REMARK   56  A    between atoms: CB_112  and  CG_114
REMARK   57  A    between atoms: C_117  and  CA_118
REMARK   58  A    between atoms: CA_118  and  CB_120
REMARK   59  A    between atoms: CA_118  and  N_121
REMARK   60  A    between atoms: C_122  and  CA_124
REMARK   61  A    between atoms: CA_124  and  CB_126
REMARK   62  A    between atoms: CB_126  and  CG_127
REMARK   63  A    between atoms: CA_133  and  C_134
REMARK   64  A    between atoms: CA_133  and  CB_135
REMARK   65  A    between atoms: CB_135  and  CG_136
REMARK   66  A    between atoms: CG_136  and  SD_137
REMARK   67  A    between atoms: N_139  and  CA_141
REMARK   68  A    between atoms: CA_141  and  C_142
REMARK   69  A    between atoms: N_145  and  CA_146
REMARK   70  A    between atoms: CA_146  and  C_147
REMARK   71  A    between atoms: CA_146  and  CB_148
REMARK   72  A    between atoms: N_152  and  CA_153
REMARK   73  A    between atoms: CA_153  and  C_154
REMARK   74  A    between atoms: CA_153  and  CB_155
REMARK   75  A    between atoms: CB_155  and  CG_156
REMARK   76  A    between atoms: CG_156  and  CD_157
REMARK   77  A    between atoms: CD_157  and  CE_158
REMARK   78  A    between atoms: N_160  and  CA_162
REMARK   79  A    between atoms: CA_162  and  C_163
REMARK   80  A    between atoms: CA_162  and  CB_164
REMARK   81  A    between atoms: CB_164  and  CG_167
REMARK   82  A    between atoms: N_166  and  CA_171
REMARK   83  A    between atoms: CG_167  and  CD_168
REMARK   84  A    between atoms: CD_168  and  CE_169
REMARK   85  A    between atoms: CA_171  and  C_172
REMARK   86  A    between atoms: CA_171  and  CB_180
REMARK   87  A    between atoms: N_173  and  CA_175
REMARK   88  A    between atoms: CA_175  and  CB_176
REMARK   89  A    between atoms: CA_175  and  C_188
REMARK   90  A    between atoms: CB_176  and  CG_177
REMARK   91  A    between atoms: CB_180  and  CG_181
REMARK   92  A    between atoms: N_189  and  CA_191
REMARK   93  A    between atoms: CA_191  and  C_192
REMARK   94  A    between atoms: CA_191  and  CB_193
REMARK   95  A    between atoms: CB_193  and  CG_194
REMARK   96  A    between atoms: N_198  and  CA_199
REMARK   97  A    between atoms: CA_199  and  C_200
REMARK   98  A    between atoms: CA_199  and  CB_201
REMARK   99  A    between atoms: N_204  and  CA_205
REMARK  100  A    between atoms: CA_205  and  C_206
REMARK  101  A    between atoms: CA_205  and  CB_207
REMARK  102  A    between atoms: CB_207  and  CG1_208
REMARK  103  A    between atoms: N_212  and  CA_213
REMARK  104  A    between atoms: CA_213  and  C_214
REMARK  105  A    between atoms: CA_213  and  CB_215
REMARK  106  A    between atoms: CB_215  and  CG_216
REMARK  107  A    between atoms: N_220  and  CA_221
REMARK  108  A    between atoms: CA_221  and  C_222
REMARK  109  A    between atoms: CA_221  and  CB_223
REMARK  110  A    between atoms: CB_223  and  CG_226
REMARK                            x       y       z     vdW  Elec       q    Type
REMARK                         _______ _______ _______ _____ _____    ______ ____
ROOT
ATOM      1  N   LYS A  15       2.929   3.750   0.000  0.00  0.00    +0.000 NA
ATOM      2  C   ALA A  14       3.340   3.017   0.000  0.00  0.00    +0.000 C 
ATOM      3  O   ALA A  14       4.160   3.017   0.000  0.00  0.00    +0.000 OA
ENDROOT
BRANCH   2   4
ATOM      4  CA  ALA A  14       2.929   2.314   0.000  0.00  0.00    +0.000 C 
ATOM      5  CB  ALA A  14       3.340   1.582   0.000  0.00  0.00    +0.000 C 
BRANCH   4   6
ATOM      6  N   ALA A  14       2.109   2.314   0.000  0.00  0.00    +0.000 NA
ATOM      7  C   LEU A  13       1.670   1.582   0.000  0.00  0.00    +0.000 C 
ATOM      8  O   LEU A  13       0.850   1.582   0.000  0.00  0.00    +0.000 OA
BRANCH   7   9
ATOM      9  CA  LEU A  13       2.109   0.879   0.000  0.00  0.00    +0.000 C 
BRANCH   9  10
ATOM     10  N   LEU A  13       2.929   0.879   0.000  0.00  0.00    +0.000 NA
ATOM     11  C   ARG A  12       3.515   0.293   0.000  0.00  0.00    +0.000 C 
ATOM     12  O   ARG A  12       4.277   0.615   0.000  0.00  0.00    +0.000 OA
BRANCH  11  13
ATOM     13  CA  ARG A  12       3.515  -0.527   0.000  0.00  0.00    +0.000 C 
BRANCH  13  14
ATOM     14  N   ARG A  12       4.218  -0.937   0.000  0.00  0.00    +0.000 NA
ATOM     15  C   UNK A  11       4.013  -1.758   0.000  0.00  0.00    +0.000 C 
ATOM     16  O   UNK A  11       3.222  -1.963   0.000  0.00  0.00    +0.000 OA
BRANCH  15  17
ATOM     17  C   UNK A  11       4.599  -2.344   0.000  0.00  0.00    +0.000 C 
BRANCH  17  18
ATOM     18  N   UNK A  11       5.390  -2.109   0.000  0.00  0.00    +0.000 NA
ATOM     19  C   TYR A  10       5.625  -1.318   0.000  0.00  0.00    +0.000 C 
ATOM     20  O   TYR A  10       5.039  -0.732   0.000  0.00  0.00    +0.000 OA
BRANCH  19  21
ATOM     21  CA  TYR A  10       6.415  -1.113   0.000  0.00  0.00    +0.000 C 
BRANCH  21  22
ATOM     22  N   TYR A  10       6.620  -0.322   0.000  0.00  0.00    +0.000 NA
ATOM     23  C   ASN A   9       6.035   0.264   0.000  0.00  0.00    +0.000 C 
ATOM     24  O   ASN A   9       5.244   0.059   0.000  0.00  0.00    +0.000 OA
BRANCH  23  25
ATOM     25  CA  ASN A   9       6.240   1.084   0.000  0.00  0.00    +0.000 C 
BRANCH  25  26
ATOM     26  N   ASN A   9       7.060   1.289   0.000  0.00  0.00    +0.000 NA
ATOM     27  C   ASP A   8       7.646   0.703   0.000  0.00  0.00    +0.000 C 
ATOM     28  O   ASP A   8       7.412  -0.088   0.000  0.00  0.00    +0.000 OA
BRANCH  27  29
ATOM     29  CA  ASP A   8       8.437   0.908   0.000  0.00  0.00    +0.000 C 
BRANCH  29  30
ATOM     30  N   ASP A   8       8.642   1.728   0.000  0.00  0.00    +0.000 NA
ATOM     31  C   THR A   7       8.056   2.314   0.000  0.00  0.00    +0.000 C 
ATOM     32  O   THR A   7       7.265   2.080   0.000  0.00  0.00    +0.000 OA
BRANCH  31  33
ATOM     33  CA  THR A   7       8.290   3.105   0.000  0.00  0.00    +0.000 C 
BRANCH  33  34
ATOM     34  N   THR A   7       7.705   3.691   0.000  0.00  0.00    +0.000 NA
ATOM     35  C   PHE A   6       7.910   4.482   0.000  0.00  0.00    +0.000 C 
ATOM     36  O   PHE A   6       8.700   4.716   0.000  0.00  0.00    +0.000 OA
BRANCH  35  37
ATOM     37  CA  PHE A   6       7.324   5.068   0.000  0.00  0.00    +0.000 C 
BRANCH  37  38
ATOM     38  N   PHE A   6       7.529   5.888   0.000  0.00  0.00    +0.000 NA
ATOM     39  C   VAL A   5       8.349   6.093   0.000  0.00  0.00    +0.000 C 
ATOM     40  O   VAL A   5       8.935   5.507   0.000  0.00  0.00    +0.000 OA
BRANCH  39  41
ATOM     41  CA  VAL A   5       8.554   6.884   0.000  0.00  0.00    +0.000 C 
BRANCH  41  42
ATOM     42  CB  VAL A   5       7.968   7.470   0.000  0.00  0.00    +0.000 C 
ATOM     43  CG1 VAL A   5       8.173   8.261   0.000  0.00  0.00    +0.000 C 
ATOM     44  CG2 VAL A   5       7.177   7.265   0.000  0.00  0.00    +0.000 C 
ENDBRANCH  41  42
BRANCH  41  45
ATOM     45  N   VAL A   5       9.345   7.119   0.000  0.00  0.00    +0.000 NA
ATOM     46  C   ALA A   4       9.579   7.910   0.000  0.00  0.00    +0.000 C 
ATOM     47  O   ALA A   4       8.993   8.495   0.000  0.00  0.00    +0.000 OA
BRANCH  46  48
ATOM     48  CA  ALA A   4      10.370   8.115   0.000  0.00  0.00    +0.000 C 
ATOM     49  CB  ALA A   4      10.575   8.905   0.000  0.00  0.00    +0.000 C 
BRANCH  48  50
ATOM     50  N   ALA A   4      10.956   7.529   0.000  0.00  0.00    +0.000 NA
ATOM     51  C   ASP A   3      11.747   7.734   0.000  0.00  0.00    +0.000 C 
ATOM     52  O   ASP A   3      11.981   8.554   0.000  0.00  0.00    +0.000 OA
BRANCH  51  53
ATOM     53  CA  ASP A   3      12.333   7.148   0.000  0.00  0.00    +0.000 C 
BRANCH  53  54
ATOM     54  N   ASP A   3      12.128   6.357   0.000  0.00  0.00    +0.000 NA
ATOM     55  C   SER A   2      12.714   5.771   0.000  0.00  0.00    +0.000 C 
ATOM     56  O   SER A   2      13.505   6.005   0.000  0.00  0.00    +0.000 OA
BRANCH  55  57
ATOM     57  CA  SER A   2      12.509   4.980   0.000  0.00  0.00    +0.000 C 
BRANCH  57  58
ATOM     58  N   SER A   2      11.688   4.775   0.000  0.00  0.00    +0.000 NA
ATOM     59  C   HIS A   1      11.483   3.955   0.000  0.00  0.00    +0.000 C 
ATOM     60  O   HIS A   1      10.693   3.750   0.000  0.00  0.00    +0.000 OA
BRANCH  59  61
ATOM     61  CA  HIS A   1      12.069   3.369   0.000  0.00  0.00    +0.000 C 
ATOM     62  N   HIS A   1      11.864   2.578   0.000  0.00  0.00    +0.000 NA
BRANCH  61  63
ATOM     63  CB  HIS A   1      12.860   3.603   0.000  0.00  0.00    +0.000 C 
BRANCH  63  64
ATOM     64  CG  HIS A   1      13.446   3.017   0.000  0.00  0.00    +0.000 A 
ATOM     65  ND1 HIS A   1      13.329   2.197   0.000  0.00  0.00    +0.000 NA
ATOM     66  CE1 HIS A   1      14.061   1.816   0.000  0.00  0.00    +0.000 A 
ATOM     67  NE2 HIS A   1      14.647   2.402   0.000  0.00  0.00    +0.000 NA
ATOM     68  CD2 HIS A   1      14.267   3.134   0.000  0.00  0.00    +0.000 A 
ENDBRANCH  63  64
ENDBRANCH  61  63
ENDBRANCH  59  61
ENDBRANCH  57  58
BRANCH  57  69
ATOM     69  CB  SER A   2      13.095   4.394   0.000  0.00  0.00    +0.000 C 
ATOM     70  OG  SER A   2      13.886   4.599   0.000  0.00  0.00    +0.000 OA
ENDBRANCH  57  69
ENDBRANCH  55  57
ENDBRANCH  53  54
BRANCH  53  71
ATOM     71  CB  ASP A   3      13.153   7.382   0.000  0.00  0.00    +0.000 C 
BRANCH  71  72
ATOM     72  CG  ASP A   3      13.358   8.173   0.000  0.00  0.00    +0.000 C 
ATOM     73  OD1 ASP A   3      14.149   8.378   0.000  0.00  0.00    +0.000 OA
ATOM     74  OD2 ASP A   3      12.772   8.759   0.000  0.00  0.00    +0.000 OA
ENDBRANCH  71  72
ENDBRANCH  53  71
ENDBRANCH  51  53
ENDBRANCH  48  50
ENDBRANCH  46  48
ENDBRANCH  41  45
ENDBRANCH  39  41
ENDBRANCH  37  38
BRANCH  37  75
ATOM     75  CB  PHE A   6       6.533   4.863   0.000  0.00  0.00    +0.000 C 
BRANCH  75  76
ATOM     76  CG  PHE A   6       5.947   5.449   0.000  0.00  0.00    +0.000 A 
ATOM     77  CD1 PHE A   6       6.152   6.240   0.000  0.00  0.00    +0.000 A 
ATOM     78  CE1 PHE A   6       5.566   6.826   0.000  0.00  0.00    +0.000 A 
ATOM     79  CZ  PHE A   6       4.775   6.620   0.000  0.00  0.00    +0.000 A 
ATOM     80  CE2 PHE A   6       4.541   5.830   0.000  0.00  0.00    +0.000 A 
ATOM     81  CD2 PHE A   6       5.127   5.244   0.000  0.00  0.00    +0.000 A 
ENDBRANCH  75  76
ENDBRANCH  37  75
ENDBRANCH  35  37
ENDBRANCH  33  34
BRANCH  33  82
ATOM     82  CB  THR A   7       9.081   3.310   0.000  0.00  0.00    +0.000 C 
ATOM     83  CG2 THR A   7       9.286   4.130   0.000  0.00  0.00    +0.000 C 
ATOM     84  OG1 THR A   7       9.667   2.724   0.000  0.00  0.00    +0.000 OA
ENDBRANCH  33  82
ENDBRANCH  31  33
ENDBRANCH  29  30
BRANCH  29  85
ATOM     85  CB  ASP A   8       9.023   0.322   0.000  0.00  0.00    +0.000 C 
BRANCH  85  86
ATOM     86  CG  ASP A   8       9.814   0.557   0.000  0.00  0.00    +0.000 C 
ATOM     87  OD1 ASP A   8      10.400  -0.029   0.000  0.00  0.00    +0.000 OA
ATOM     88  OD2 ASP A   8      10.048   1.347   0.000  0.00  0.00    +0.000 OA
ENDBRANCH  85  86
ENDBRANCH  29  85
ENDBRANCH  27  29
ENDBRANCH  25  26
BRANCH  25  89
ATOM     89  CB  ASN A   9       5.683   1.670   0.000  0.00  0.00    +0.000 C 
BRANCH  89  90
ATOM     90  CG  ASN A   9       5.888   2.461   0.000  0.00  0.00    +0.000 C 
ATOM     91  OD1 ASN A   9       5.302   3.047   0.000  0.00  0.00    +0.000 OA
ATOM     92  ND2 ASN A   9       6.679   2.666   0.000  0.00  0.00    +0.000 NA
ENDBRANCH  89  90
ENDBRANCH  25  89
ENDBRANCH  23  25
ENDBRANCH  21  22
BRANCH  21  93
ATOM     93  CB  TYR A  10       7.001  -1.699   0.000  0.00  0.00    +0.000 C 
BRANCH  93  94
ATOM     94  CG  TYR A  10       7.822  -1.699   0.000  0.00  0.00    +0.000 A 
ATOM     95  CD1 TYR A  10       8.232  -2.402   0.000  0.00  0.00    +0.000 A 
ATOM     96  CE1 TYR A  10       9.081  -2.402   0.000  0.00  0.00    +0.000 A 
ATOM     97  CZ  TYR A  10       9.491  -1.699   0.000  0.00  0.00    +0.000 A 
ATOM     98  CE2 TYR A  10       9.081  -0.967   0.000  0.00  0.00    +0.000 A 
ATOM     99  CD2 TYR A  10       8.232  -0.967   0.000  0.00  0.00    +0.000 A 
ATOM    100  OH  TYR A  10      10.312  -1.699   0.000  0.00  0.00    +0.000 OA
ENDBRANCH  93  94
ENDBRANCH  21  93
ENDBRANCH  19  21
ENDBRANCH  17  18
BRANCH  17 101
ATOM    101  C   UNK A  11       4.394  -3.134   0.000  0.00  0.00    +0.000 C 
ATOM    102  O   UNK A  11       4.980  -3.720   0.000  0.00  0.00    +0.000 OA
BRANCH 101 103
ATOM    103  C   UNK A  11       3.574  -3.340   0.000  0.00  0.00    +0.000 C 
ATOM    104  C   UNK A  11       2.988  -2.754   0.000  0.00  0.00    +0.000 C 
ENDBRANCH 101 103
ENDBRANCH  17 101
ENDBRANCH  15  17
ENDBRANCH  13  14
BRANCH  13 105
ATOM    105  CB  ARG A  12       2.783  -0.937   0.000  0.00  0.00    +0.000 C 
BRANCH 105 106
ATOM    106  CG  ARG A  12       2.578  -1.758   0.000  0.00  0.00    +0.000 C 
BRANCH 106 107
ATOM    107  CD  ARG A  12       1.787  -1.963   0.000  0.00  0.00    +0.000 C 
BRANCH 107 108
ATOM    108  NE  ARG A  12       1.055  -1.553   0.000  0.00  0.00    +0.000 NA
ATOM    109  CZ  ARG A  12       0.264  -1.758   0.000  0.00  0.00    +0.000 C 
ATOM    110  NH1 ARG A  12      -0.322  -1.172   0.000  0.00  0.00    +0.000 NA
ATOM    111  NH2 ARG A  12       0.059  -2.578   0.000  0.00  0.00    +0.000 NA
ENDBRANCH 107 108
ENDBRANCH 106 107
ENDBRANCH 105 106
ENDBRANCH  13 105
ENDBRANCH  11  13
ENDBRANCH   9  10
BRANCH   9 112
ATOM    112  CB  LEU A  13       1.670   0.146   0.000  0.00  0.00    +0.000 C 
BRANCH 112 113
ATOM    113  CG  LEU A  13       0.850   0.146   0.000  0.00  0.00    +0.000 C 
ATOM    114  CD1 LEU A  13       0.439  -0.557   0.000  0.00  0.00    +0.000 C 
ATOM    115  CD2 LEU A  13       0.439   0.879   0.000  0.00  0.00    +0.000 C 
ENDBRANCH 112 113
ENDBRANCH   9 112
ENDBRANCH   7   9
ENDBRANCH   4   6
ENDBRANCH   2   4
BRANCH   1 116
ATOM    116  CA  LYS A  15       3.340   4.453   0.000  0.00  0.00    +0.000 C 
BRANCH 116 118
ATOM    117  N   GLN A  16       2.109   5.185   0.000  0.00  0.00    +0.000 NA
ATOM    118  C   LYS A  15       2.929   5.185   0.000  0.00  0.00    +0.000 C 
ATOM    119  O   LYS A  15       3.340   5.888   0.000  0.00  0.00    +0.000 OA
BRANCH 117 120
ATOM    120  CA  GLN A  16       1.670   5.888   0.000  0.00  0.00    +0.000 C 
BRANCH 120 121
ATOM    121  C   GLN A  16       0.850   5.888   0.000  0.00  0.00    +0.000 C 
ATOM    122  O   GLN A  16       0.439   6.620   0.000  0.00  0.00    +0.000 OA
ATOM    123  N   MET A  17       0.439   5.185   0.000  0.00  0.00    +0.000 NA
BRANCH 123 124
ATOM    124  CA  MET A  17      -0.381   5.185   0.000  0.00  0.00    +0.000 C 
BRANCH 124 125
ATOM    125  C   MET A  17      -0.791   4.453   0.000  0.00  0.00    +0.000 C 
ATOM    126  N   ALA A  18      -1.641   4.453   0.000  0.00  0.00    +0.000 NA
ATOM    127  O   MET A  17      -0.381   3.750   0.000  0.00  0.00    +0.000 OA
BRANCH 126 128
ATOM    128  CA  ALA A  18      -2.051   5.185   0.000  0.00  0.00    +0.000 C 
ATOM    129  CB  ALA A  18      -1.641   5.888   0.000  0.00  0.00    +0.000 C 
BRANCH 128 130
ATOM    130  C   ALA A  18      -2.871   5.185   0.000  0.00  0.00    +0.000 C 
ATOM    131  O   ALA A  18      -3.281   5.888   0.000  0.00  0.00    +0.000 OA
ATOM    132  N   VAL A  19      -3.281   4.453   0.000  0.00  0.00    +0.000 NA
BRANCH 132 133
ATOM    133  CA  VAL A  19      -4.101   4.453   0.000  0.00  0.00    +0.000 C 
BRANCH 133 134
ATOM    134  CB  VAL A  19      -4.541   5.185   0.000  0.00  0.00    +0.000 C 
ATOM    135  CG1 VAL A  19      -5.361   5.185   0.000  0.00  0.00    +0.000 C 
ATOM    136  CG2 VAL A  19      -4.101   5.888   0.000  0.00  0.00    +0.000 C 
ENDBRANCH 133 134
BRANCH 133 137
ATOM    137  C   VAL A  19      -4.541   3.750   0.000  0.00  0.00    +0.000 C 
ATOM    138  O   VAL A  19      -5.361   3.750   0.000  0.00  0.00    +0.000 OA
ATOM    139  N   LYS A  20      -4.101   3.017   0.000  0.00  0.00    +0.000 NA
BRANCH 139 140
ATOM    140  CA  LYS A  20      -4.541   2.314   0.000  0.00  0.00    +0.000 C 
BRANCH 140 141
ATOM    141  C   LYS A  20      -4.101   1.582   0.000  0.00  0.00    +0.000 C 
ATOM    142  N   LYS A  21      -4.541   0.879   0.000  0.00  0.00    +0.000 NA
ATOM    143  O   LYS A  20      -3.281   1.582   0.000  0.00  0.00    +0.000 OA
BRANCH 142 144
ATOM    144  CA  LYS A  21      -5.361   0.879   0.000  0.00  0.00    +0.000 C 
BRANCH 144 145
ATOM    145  C   LYS A  21      -5.771   0.146   0.000  0.00  0.00    +0.000 C 
ATOM    146  O   LYS A  21      -6.591   0.146   0.000  0.00  0.00    +0.000 OA
ATOM    147  N   TYR A  22      -5.361  -0.557   0.000  0.00  0.00    +0.000 NA
BRANCH 147 148
ATOM    148  CA  TYR A  22      -5.771  -1.289   0.000  0.00  0.00    +0.000 C 
BRANCH 148 149
ATOM    149  C   TYR A  22      -6.591  -1.289   0.000  0.00  0.00    +0.000 C 
ATOM    150  N   LEU A  23      -7.001  -1.992   0.000  0.00  0.00    +0.000 NA
ATOM    151  O   TYR A  22      -7.001  -0.557   0.000  0.00  0.00    +0.000 OA
BRANCH 150 152
ATOM    152  CA  LEU A  23      -7.851  -1.992   0.000  0.00  0.00    +0.000 C 
BRANCH 152 153
ATOM    153  C   LEU A  23      -8.261  -2.724   0.000  0.00  0.00    +0.000 C 
ATOM    154  N   ASN A  24      -9.726  -2.754   0.000  0.00  0.00    +0.000 NA
ATOM    155  O   LEU A  23      -7.851  -3.427   0.000  0.00  0.00    +0.000 OA
BRANCH 154 156
ATOM    156  CA  ASN A  24     -10.312  -2.168   0.000  0.00  0.00    +0.000 C 
BRANCH 156 157
ATOM    157  C   ASN A  24     -11.132  -2.373   0.000  0.00  0.00    +0.000 C 
ATOM    158  O   ASN A  24     -11.718  -1.787   0.000  0.00  0.00    +0.000 OA
ATOM    159  N   SER A  25     -11.337  -3.164   0.000  0.00  0.00    +0.000 NA
BRANCH 159 160
ATOM    160  CA  SER A  25     -12.157  -3.164   0.000  0.00  0.00    +0.000 C 
BRANCH 160 161
ATOM    161  C   SER A  25     -12.567  -3.896   0.000  0.00  0.00    +0.000 C 
ATOM    162  O   SER A  25     -13.417  -3.896   0.000  0.00  0.00    +0.000 OA
ATOM    163  N   ILE A  26     -12.157  -4.599   0.000  0.00  0.00    +0.000 NA
BRANCH 163 164
ATOM    164  CA  ILE A  26     -12.567  -5.332   0.000  0.00  0.00    +0.000 C 
BRANCH 164 165
ATOM    165  C   ILE A  26     -12.157  -6.035   0.000  0.00  0.00    +0.000 C 
ATOM    166  O   ILE A  26     -12.567  -6.767   0.000  0.00  0.00    +0.000 OA
ATOM    167  N   LEU A  27     -11.337  -6.035   0.000  0.00  0.00    +0.000 NA
BRANCH 167 168
ATOM    168  CA  LEU A  27     -10.927  -6.767   0.000  0.00  0.00    +0.000 C 
BRANCH 168 169
ATOM    169  C   LEU A  27     -10.107  -6.767   0.000  0.00  0.00    +0.000 C 
ATOM    170  O   LEU A  27      -9.667  -7.470   0.000  0.00  0.00    +0.000 OA
ATOM    171  N   ASN A  28      -9.667  -6.035   0.000  0.00  0.00    +0.000 NA
BRANCH 171 172
ATOM    172  CA  ASN A  28      -8.847  -6.035   0.000  0.00  0.00    +0.000 C 
BRANCH 172 173
ATOM    173  C   ASN A  28      -8.437  -5.332   0.000  0.00  0.00    +0.000 C 
ATOM    174  O   ASN A  28      -7.617  -5.332   0.000  0.00  0.00    +0.000 OA
ATOM    175  OXT ASN A  28      -8.847  -4.599   0.000  0.00  0.00    +0.000 OA
ENDBRANCH 172 173
BRANCH 172 176
ATOM    176  CB  ASN A  28      -8.437  -6.767   0.000  0.00  0.00    +0.000 C 
BRANCH 176 177
ATOM    177  CG  ASN A  28      -7.617  -6.767   0.000  0.00  0.00    +0.000 C 
ATOM    178  ND2 ASN A  28      -7.207  -7.470   0.000  0.00  0.00    +0.000 NA
ATOM    179  OD1 ASN A  28      -7.207  -6.035   0.000  0.00  0.00    +0.000 OA
ENDBRANCH 176 177
ENDBRANCH 172 176
ENDBRANCH 171 172
ENDBRANCH 168 169
BRANCH 168 180
ATOM    180  CB  LEU A  27     -11.337  -7.470   0.000  0.00  0.00    +0.000 C 
BRANCH 180 181
ATOM    181  CG  LEU A  27     -10.927  -8.203   0.000  0.00  0.00    +0.000 C 
ATOM    182  CD1 LEU A  27     -11.337  -8.905   0.000  0.00  0.00    +0.000 C 
ATOM    183  CD2 LEU A  27     -10.107  -8.203   0.000  0.00  0.00    +0.000 C 
ENDBRANCH 180 181
ENDBRANCH 168 180
ENDBRANCH 167 168
ENDBRANCH 164 165
BRANCH 164 184
ATOM    184  CB  ILE A  26     -13.417  -5.332   0.000  0.00  0.00    +0.000 C 
ATOM    185  CG2 ILE A  26     -13.827  -4.599   0.000  0.00  0.00    +0.000 C 
BRANCH 184 186
ATOM    186  CG1 ILE A  26     -13.827  -6.035   0.000  0.00  0.00    +0.000 C 
ATOM    187  CD1 ILE A  26     -14.647  -6.035   0.000  0.00  0.00    +0.000 C 
ENDBRANCH 184 186
ENDBRANCH 164 184
ENDBRANCH 163 164
ENDBRANCH 160 161
BRANCH 160 188
ATOM    188  CB  SER A  25     -12.567  -2.461   0.000  0.00  0.00    +0.000 C 
ATOM    189  OG  SER A  25     -12.362  -1.641   0.000  0.00  0.00    +0.000 OA
ENDBRANCH 160 188
ENDBRANCH 159 160
ENDBRANCH 156 157
BRANCH 156 190
ATOM    190  CB  ASN A  24     -10.107  -1.347   0.000  0.00  0.00    +0.000 C 
BRANCH 190 191
ATOM    191  CG  ASN A  24     -10.693  -0.762   0.000  0.00  0.00    +0.000 C 
ATOM    192  ND2 ASN A  24     -11.513  -0.762   0.000  0.00  0.00    +0.000 NA
ATOM    193  OD1 ASN A  24     -10.370   0.000   0.000  0.00  0.00    +0.000 OA
ENDBRANCH 190 191
ENDBRANCH 156 190
ENDBRANCH 154 156
ENDBRANCH 152 153
BRANCH 152 194
ATOM    194  CB  LEU A  23      -8.261  -1.289   0.000  0.00  0.00    +0.000 C 
BRANCH 194 195
ATOM    195  CG  LEU A  23      -9.081  -1.289   0.000  0.00  0.00    +0.000 C 
ATOM    196  CD1 LEU A  23      -9.491  -0.557   0.000  0.00  0.00    +0.000 C 
ATOM    197  CD2 LEU A  23      -9.491  -1.992   0.000  0.00  0.00    +0.000 C 
ENDBRANCH 194 195
ENDBRANCH 152 194
ENDBRANCH 150 152
ENDBRANCH 148 149
BRANCH 148 198
ATOM    198  CB  TYR A  22      -5.361  -1.992   0.000  0.00  0.00    +0.000 C 
BRANCH 198 199
ATOM    199  CG  TYR A  22      -5.771  -2.724   0.000  0.00  0.00    +0.000 A 
ATOM    200  CD1 TYR A  22      -6.591  -2.724   0.000  0.00  0.00    +0.000 A 
ATOM    201  CE1 TYR A  22      -7.001  -3.427   0.000  0.00  0.00    +0.000 A 
ATOM    202  CZ  TYR A  22      -6.591  -4.130   0.000  0.00  0.00    +0.000 A 
ATOM    203  CE2 TYR A  22      -5.771  -4.130   0.000  0.00  0.00    +0.000 A 
ATOM    204  CD2 TYR A  22      -5.361  -3.427   0.000  0.00  0.00    +0.000 A 
ATOM    205  OH  TYR A  22      -7.001  -4.863   0.000  0.00  0.00    +0.000 OA
ENDBRANCH 198 199
ENDBRANCH 148 198
ENDBRANCH 147 148
ENDBRANCH 144 145
BRANCH 144 206
ATOM    206  CB  LYS A  21      -5.771   1.582   0.000  0.00  0.00    +0.000 C 
BRANCH 206 207
ATOM    207  CG  LYS A  21      -6.591   1.582   0.000  0.00  0.00    +0.000 C 
BRANCH 207 208
ATOM    208  CD  LYS A  21      -7.001   0.879   0.000  0.00  0.00    +0.000 C 
BRANCH 208 209
ATOM    209  CE  LYS A  21      -7.851   0.879   0.000  0.00  0.00    +0.000 C 
ATOM    210  NZ  LYS A  21      -8.261   0.146   0.000  0.00  0.00    +0.000 NA
ENDBRANCH 208 209
ENDBRANCH 207 208
ENDBRANCH 206 207
ENDBRANCH 144 206
ENDBRANCH 142 144
ENDBRANCH 140 141
BRANCH 140 211
ATOM    211  CB  LYS A  20      -5.361   2.314   0.000  0.00  0.00    +0.000 C 
BRANCH 211 212
ATOM    212  CG  LYS A  20      -5.771   3.017   0.000  0.00  0.00    +0.000 C 
BRANCH 212 213
ATOM    213  CD  LYS A  20      -6.591   3.017   0.000  0.00  0.00    +0.000 C 
BRANCH 213 214
ATOM    214  CE  LYS A  20      -7.001   3.750   0.000  0.00  0.00    +0.000 C 
ATOM    215  NZ  LYS A  20      -7.851   3.750   0.000  0.00  0.00    +0.000 NA
ENDBRANCH 213 214
ENDBRANCH 212 213
ENDBRANCH 211 212
ENDBRANCH 140 211
ENDBRANCH 139 140
ENDBRANCH 133 137
ENDBRANCH 132 133
ENDBRANCH 128 130
ENDBRANCH 126 128
ENDBRANCH 124 125
BRANCH 124 216
ATOM    216  CB  MET A  17      -0.791   5.888   0.000  0.00  0.00    +0.000 C 
BRANCH 216 217
ATOM    217  CG  MET A  17      -0.381   6.620   0.000  0.00  0.00    +0.000 C 
BRANCH 217 218
ATOM    218  SD  MET A  17      -0.791   7.324   0.000  0.00  0.00    +0.000 S 
ATOM    219  CE  MET A  17      -1.641   7.324   0.000  0.00  0.00    +0.000 C 
ENDBRANCH 217 218
ENDBRANCH 216 217
ENDBRANCH 124 216
ENDBRANCH 123 124
ENDBRANCH 120 121
BRANCH 120 220
ATOM    220  CB  GLN A  16       2.109   6.620   0.000  0.00  0.00    +0.000 C 
BRANCH 220 221
ATOM    221  CG  GLN A  16       1.670   7.324   0.000  0.00  0.00    +0.000 C 
BRANCH 221 222
ATOM    222  CD  GLN A  16       2.109   8.056   0.000  0.00  0.00    +0.000 C 
ATOM    223  NE2 GLN A  16       1.670   8.759   0.000  0.00  0.00    +0.000 NA
ATOM    224  OE1 GLN A  16       2.929   8.056   0.000  0.00  0.00    +0.000 OA
ENDBRANCH 221 222
ENDBRANCH 220 221
ENDBRANCH 120 220
ENDBRANCH 117 120
ENDBRANCH 116 118
BRANCH 116 225
ATOM    225  CB  LYS A  15       4.160   4.453   0.000  0.00  0.00    +0.000 C 
BRANCH 225 226
ATOM    226  CG  LYS A  15       4.570   5.185   0.000  0.00  0.00    +0.000 C 
BRANCH 226 227
ATOM    227  CD  LYS A  15       4.160   5.888   0.000  0.00  0.00    +0.000 C 
BRANCH 227 228
ATOM    228  CE  LYS A  15       4.394   6.708   0.000  0.00  0.00    +0.000 C 
ATOM    229  NZ  LYS A  15       3.955   7.412   0.000  0.00  0.00    +0.000 NA
ENDBRANCH 227 228
ENDBRANCH 226 227
ENDBRANCH 225 226
ENDBRANCH 116 225
ENDBRANCH   1 116
TORSDOF 110
