REMARK  Name = 
REMARK  7 active torsions:
REMARK  status: ('A' for Active; 'I' for Inactive)
REMARK    1  A    between atoms: S_1  and  C_17
REMARK    2  A    between atoms: S_1  and  C_25
REMARK    3  A    between atoms: N_5  and  C_14
REMARK    4  A    between atoms: N_6  and  C_13
REMARK    5  A    between atoms: C_12  and  C_13
REMARK    6  A    between atoms: C_15  and  C_18
REMARK    7  A    between atoms: C_27  and  C_33
REMARK                            x       y       z     vdW  Elec       q    Type
REMARK                         _______ _______ _______ _____ _____    ______ ____
ROOT
ATOM      1  C   UNL     1      -0.344   2.190   0.000  0.00  0.00    +0.000 A 
ATOM      2  C   UNL     1       0.893   1.475   0.000  0.00  0.00    +0.000 A 
ATOM      3  C   UNL     1       0.068   1.475   0.000  0.00  0.00    +0.000 A 
ATOM      4  C   UNL     1       0.068   2.904   0.000  0.00  0.00    +0.000 A 
ATOM      5  C   UNL     1       1.306   2.190   0.000  0.00  0.00    +0.000 A 
ATOM      6  C   UNL     1       0.893   2.904   0.000  0.00  0.00    +0.000 A 
ENDROOT
BRANCH   1   8
ATOM      7  O   UNL     1      -3.146   0.540   0.000  0.00  0.00    +0.000 OA
ATOM      8  N   UNL     1      -1.169   2.190   0.000  0.00  0.00    +0.000 N 
ATOM      9  N   UNL     1      -1.651   2.853   0.000  0.00  0.00    +0.000 N 
ATOM     10  N   UNL     1      -1.651   1.526   0.000  0.00  0.00    +0.000 NA
ATOM     11  N   UNL     1      -3.146   3.015   0.000  0.00  0.00    +0.000 NA
ATOM     12  N   UNL     1      -3.861   1.777   0.000  0.00  0.00    +0.000 NA
ATOM     13  N   UNL     1      -4.575   3.015   0.000  0.00  0.00    +0.000 N 
ATOM     14  C   UNL     1      -2.432   2.602   0.000  0.00  0.00    +0.000 A 
ATOM     15  C   UNL     1      -2.432   1.777   0.000  0.00  0.00    +0.000 A 
ATOM     16  C   UNL     1      -3.146   1.365   0.000  0.00  0.00    +0.000 A 
ATOM     17  C   UNL     1      -3.861   2.602   0.000  0.00  0.00    +0.000 A 
ATOM     18  H   UNL     1      -1.492   3.340   0.000  0.00  0.00    +0.000 HD
ATOM     19  H   UNL     1      -4.575   3.526   0.000  0.00  0.00    +0.000 HD
ATOM     20  H   UNL     1      -5.018   2.759   0.000  0.00  0.00    +0.000 HD
ENDBRANCH   1   8
BRANCH   2  23
ATOM     21  O   UNL     1       0.893   0.046   0.000  0.00  0.00    +0.000 OA
ATOM     22  N   UNL     1       2.131   0.761   0.000  0.00  0.00    +0.000 N 
ATOM     23  C   UNL     1       1.306   0.761   0.000  0.00  0.00    +0.000 C 
ATOM     24  H   UNL     1       2.386   1.204   0.000  0.00  0.00    +0.000 HD
BRANCH  22  25
ATOM     25  C   UNL     1       2.543   0.046   0.000  0.00  0.00    +0.000 C 
BRANCH  25  26
ATOM     26  C   UNL     1       3.368   0.046   0.000  0.00  0.00    +0.000 A 
ATOM     27  C   UNL     1       3.780  -0.668   0.000  0.00  0.00    +0.000 A 
ATOM     28  C   UNL     1       3.780   0.761   0.000  0.00  0.00    +0.000 A 
ATOM     29  C   UNL     1       4.606  -0.668   0.000  0.00  0.00    +0.000 A 
ATOM     30  C   UNL     1       4.606   0.761   0.000  0.00  0.00    +0.000 A 
ATOM     31  C   UNL     1       5.018   0.046   0.000  0.00  0.00    +0.000 A 
BRANCH  27  32
ATOM     32  S   UNL     1       3.368  -1.383   0.000  0.00  0.00    +0.000 S 
BRANCH  32  33
ATOM     33  C   UNL     1       3.780  -2.097   0.000  0.00  0.00    +0.000 A 
ATOM     34  C   UNL     1       3.368  -2.812   0.000  0.00  0.00    +0.000 A 
ATOM     35  C   UNL     1       4.606  -2.097   0.000  0.00  0.00    +0.000 A 
ATOM     36  C   UNL     1       3.780  -3.526   0.000  0.00  0.00    +0.000 A 
ATOM     37  C   UNL     1       5.018  -2.812   0.000  0.00  0.00    +0.000 A 
ATOM     38  C   UNL     1       4.606  -3.526   0.000  0.00  0.00    +0.000 A 
BRANCH  34  40
ATOM     39  O   UNL     1       2.131  -3.526   0.000  0.00  0.00    +0.000 OA
ATOM     40  C   UNL     1       2.543  -2.812   0.000  0.00  0.00    +0.000 C 
ENDBRANCH  34  40
ENDBRANCH  32  33
ENDBRANCH  27  32
ENDBRANCH  25  26
ENDBRANCH  22  25
ENDBRANCH   2  23
TORSDOF 7
