REMARK  Name = 
REMARK  6 active torsions:
REMARK  status: ('A' for Active; 'I' for Inactive)
REMARK    1  A    between atoms: N_3  and  C_7
REMARK    2  A    between atoms: C_7  and  C_8
REMARK    3  A    between atoms: C_8  and  C_9
REMARK    4  A    between atoms: C_9  and  N_10
REMARK    5  A    between atoms: N_10  and  S_11
REMARK    6  A    between atoms: S_11  and  C_12
REMARK                            x       y       z     vdW  Elec       q    Type
REMARK                         _______ _______ _______ _____ _____    ______ ____
ROOT
ATOM      1  C   UNL     1      -0.457  -1.216   0.000  0.00  0.00    +0.000 A 
ATOM      2  C   UNL     1      -4.895   1.510   0.000  0.00  0.00    +0.000 A 
ATOM      3  C   UNL     1      -4.896   0.683   0.000  0.00  0.00    +0.000 A 
ATOM      4  C   UNL     1      -4.183   0.269   0.000  0.00  0.00    +0.000 A 
ATOM      5  C   UNL     1      -4.184   1.921   0.000  0.00  0.00    +0.000 A 
ATOM      6  C   UNL     1      -3.468   1.513   0.000  0.00  0.00    +0.000 A 
ATOM      7  C   UNL     1      -3.470   0.681   0.000  0.00  0.00    +0.000 A 
ATOM      8  N   UNL     1      -2.031   1.509   0.000  0.00  0.00    +0.000 NA
ATOM      9  C   UNL     1      -2.751   1.929   0.000  0.00  0.00    +0.000 A 
ATOM     10  C   UNL     1      -2.034   0.678   0.000  0.00  0.00    +0.000 A 
ATOM     11  C   UNL     1      -2.750   0.265   0.000  0.00  0.00    +0.000 A 
ATOM     12  C   UNL     1      -2.579  -0.544   0.000  0.00  0.00    +0.000 C 
ATOM     13  C   UNL     1      -1.419   0.123   0.000  0.00  0.00    +0.000 A 
ATOM     14  C   UNL     1      -1.760  -0.630   0.000  0.00  0.00    +0.000 A 
ATOM     15  C   UNL     1      -1.278  -1.299   0.000  0.00  0.00    +0.000 A 
ATOM     16  C   UNL     1      -0.118  -0.458   0.000  0.00  0.00    +0.000 A 
ATOM     17  C   UNL     1      -0.602   0.207   0.000  0.00  0.00    +0.000 A 
ATOM     18  O   UNL     1      -2.755   2.755   0.000  0.00  0.00    +0.000 OA
ENDROOT
BRANCH   1  19
ATOM     19  S   UNL     1      -0.046  -1.930   0.000  0.00  0.00    +0.000 S 
ATOM     20  O   UNL     1      -0.049  -2.755   0.000  0.00  0.00    +0.000 OA
ATOM     21  O   UNL     1      -0.763  -2.341   0.000  0.00  0.00    +0.000 OA
BRANCH  19  22
ATOM     22  N   UNL     1       0.776  -1.930   0.000  0.00  0.00    +0.000 NA
BRANCH  22  23
ATOM     23  C   UNL     1       1.187  -1.216   0.000  0.00  0.00    +0.000 C 
BRANCH  23  24
ATOM     24  C   UNL     1       2.009  -1.216   0.000  0.00  0.00    +0.000 C 
BRANCH  24  25
ATOM     25  C   UNL     1       2.420  -1.930   0.000  0.00  0.00    +0.000 C 
BRANCH  25  28
ATOM     26  C   UNL     1       4.481  -1.221   0.000  0.00  0.00    +0.000 C 
ATOM     27  C   UNL     1       3.656  -1.221   0.000  0.00  0.00    +0.000 C 
ATOM     28  N   UNL     1       3.246  -1.932   0.000  0.00  0.00    +0.000 NA
ATOM     29  C   UNL     1       3.656  -2.647   0.000  0.00  0.00    +0.000 C 
ATOM     30  C   UNL     1       4.481  -2.647   0.000  0.00  0.00    +0.000 C 
ATOM     31  O   UNL     1       4.896  -1.932   0.000  0.00  0.00    +0.000 OA
ENDBRANCH  25  28
ENDBRANCH  24  25
ENDBRANCH  23  24
ENDBRANCH  22  23
ENDBRANCH  19  22
ENDBRANCH   1  19
TORSDOF 6
REMARK  Name = 
REMARK  6 active torsions:
REMARK  status: ('A' for Active; 'I' for Inactive)
REMARK    1  A    between atoms: N_3  and  C_7
REMARK    2  A    between atoms: C_7  and  C_8
REMARK    3  A    between atoms: C_8  and  C_9
REMARK    4  A    between atoms: C_9  and  N_10
REMARK    5  A    between atoms: N_10  and  S_11
REMARK    6  A    between atoms: S_11  and  C_12
REMARK                            x       y       z     vdW  Elec       q    Type
REMARK                         _______ _______ _______ _____ _____    ______ ____
ROOT
ATOM      1  C   UNL     1       1.706   0.988   0.000  0.00  0.00    +0.000 C 
ATOM      2  S   UNL     1       2.531   0.988   0.000  0.00  0.00    +0.000 S 
ATOM      3  O   UNL     1       2.528   1.813   0.000  0.00  0.00    +0.000 OA
ATOM      4  O   UNL     1       2.528   0.163   0.000  0.00  0.00    +0.000 OA
ATOM      5  O   UNL     1       3.356   0.988   0.000  0.00  0.00    +0.000 OA
ENDROOT
TORSDOF 0
