REMARK  Name = 
REMARK  9 active torsions:
REMARK  status: ('A' for Active; 'I' for Inactive)
REMARK    1  A    between atoms: C_1  and  C_2
REMARK    2  A    between atoms: C_2  and  C_5
REMARK    3  A    between atoms: C_3  and  O_7
REMARK    4  A    between atoms: C_8  and  C_14
REMARK    5  A    between atoms: C_14  and  C_20
REMARK    6  A    between atoms: C_15  and  C_23
REMARK    7  A    between atoms: C_20  and  C_26
REMARK    8  A    between atoms: C_23  and  C_28
REMARK    9  A    between atoms: C_28  and  C_31
REMARK                            x       y       z     vdW  Elec       q    Type
REMARK                         _______ _______ _______ _____ _____    ______ ____
ROOT
ATOM      1  C   UNL     1      -1.047   0.961   0.000  0.00  0.00    +0.000 C 
ENDROOT
BRANCH   1   2
ATOM      2  C   UNL     1      -1.047  -0.531   0.000  0.00  0.00    +0.000 C 
ATOM      3  C   UNL     1      -1.762  -0.954   0.000  0.00  0.00    +0.000 C 
ATOM      4  C   UNL     1      -0.340  -0.954   0.000  0.00  0.00    +0.000 C 
ATOM      5  C   UNL     1      -1.762  -1.787   0.000  0.00  0.00    +0.000 C 
ATOM      6  O   UNL     1      -2.520  -0.531   0.000  0.00  0.00    +0.000 OA
ATOM      7  C   UNL     1      -0.340  -1.787   0.000  0.00  0.00    +0.000 C 
ATOM      8  O   UNL     1       0.377  -0.531   0.000  0.00  0.00    +0.000 OA
ATOM      9  C   UNL     1      -1.047  -2.200   0.000  0.00  0.00    +0.000 C 
ATOM     10  C   UNL     1       0.005  -2.474   0.000  0.00  0.00    +0.000 C 
ATOM     11  C   UNL     1       0.486  -1.774   0.000  0.00  0.00    +0.000 C 
ATOM     12  O   UNL     1      -1.047  -3.046   0.000  0.00  0.00    +0.000 OA
BRANCH   5  13
ATOM     13  C   UNL     1      -2.547  -2.200   0.000  0.00  0.00    +0.000 C 
ATOM     14  O   UNL     1      -2.547  -3.046   0.000  0.00  0.00    +0.000 OA
BRANCH  13  15
ATOM     15  C   UNL     1      -3.254  -1.787   0.000  0.00  0.00    +0.000 C 
BRANCH  15  16
ATOM     16  C   UNL     1      -3.972  -2.180   0.000  0.00  0.00    +0.000 C 
ATOM     17  C   UNL     1      -4.666  -1.740   0.000  0.00  0.00    +0.000 C 
ENDBRANCH  15  16
ENDBRANCH  13  15
ENDBRANCH   5  13
ENDBRANCH   1   2
BRANCH   1  18
ATOM     18  C   UNL     1       0.347   1.774   0.000  0.00  0.00    +0.000 A 
ATOM     19  C   UNL     1       0.347   2.596   0.000  0.00  0.00    +0.000 A 
ATOM     20  C   UNL     1       1.051   1.367   0.000  0.00  0.00    +0.000 A 
ATOM     21  C   UNL     1       1.051   3.022   0.000  0.00  0.00    +0.000 A 
ATOM     22  C   UNL     1       1.762   1.774   0.000  0.00  0.00    +0.000 A 
ATOM     23  O   UNL     1       1.051   0.531   0.000  0.00  0.00    +0.000 OA
ATOM     24  C   UNL     1       1.762   2.596   0.000  0.00  0.00    +0.000 A 
ATOM     25  O   UNL     1       2.520   3.046   0.000  0.00  0.00    +0.000 OA
BRANCH  19  26
ATOM     26  O   UNL     1      -0.377   3.046   0.000  0.00  0.00    +0.000 OA
ATOM     27  C   UNL     1      -1.146   2.630   0.000  0.00  0.00    +0.000 C 
ENDBRANCH  19  26
BRANCH  22  28
ATOM     28  C   UNL     1       2.520   1.367   0.000  0.00  0.00    +0.000 C 
ATOM     29  O   UNL     1       2.520   0.508   0.000  0.00  0.00    +0.000 OA
BRANCH  28  30
ATOM     30  C   UNL     1       3.244   1.774   0.000  0.00  0.00    +0.000 C 
BRANCH  30  31
ATOM     31  C   UNL     1       3.941   1.367   0.000  0.00  0.00    +0.000 C 
ATOM     32  C   UNL     1       4.666   1.760   0.000  0.00  0.00    +0.000 C 
ENDBRANCH  30  31
ENDBRANCH  28  30
ENDBRANCH  22  28
ENDBRANCH   1  18
TORSDOF 9
