REMARK  Name = 
REMARK  4 active torsions:
REMARK  status: ('A' for Active; 'I' for Inactive)
REMARK    1  A    between atoms: C_5  and  C_7
REMARK    2  A    between atoms: C_7  and  O_10
REMARK    3  A    between atoms: O_10  and  C_11
REMARK    4  A    between atoms: C_11  and  C_12
REMARK                            x       y       z     vdW  Elec       q    Type
REMARK                         _______ _______ _______ _____ _____    ______ ____
ROOT
ATOM      1  C   UNL     1       1.429  -0.314   0.000  0.00  0.00    +0.000 C 
ATOM      2  O   UNL     1       2.144   0.098   0.000  0.00  0.00    +0.000 OA
ENDROOT
BRANCH   1   7
ATOM      3  C   UNL     1       0.715  -1.552   0.000  0.00  0.00    +0.000 A 
ATOM      4  C   UNL     1       2.144  -1.552   0.000  0.00  0.00    +0.000 A 
ATOM      5  C   UNL     1       0.715  -2.377   0.000  0.00  0.00    +0.000 A 
ATOM      6  C   UNL     1       2.144  -2.377   0.000  0.00  0.00    +0.000 A 
ATOM      7  C   UNL     1       1.429  -1.139   0.000  0.00  0.00    +0.000 A 
ATOM      8  C   UNL     1       1.429  -2.789   0.000  0.00  0.00    +0.000 A 
ATOM      9  O   UNL     1       1.429  -3.614   0.000  0.00  0.00    +0.000 OA
ENDBRANCH   1   7
BRANCH   1  10
ATOM     10  O   UNL     1       0.715   0.098   0.000  0.00  0.00    +0.000 OA
BRANCH  10  11
ATOM     11  C   UNL     1       0.715   0.923   0.000  0.00  0.00    +0.000 C 
BRANCH  11  12
ATOM     12  C   UNL     1       0.000   1.336   0.000  0.00  0.00    +0.000 A 
ATOM     13  C   UNL     1       0.000   2.161   0.000  0.00  0.00    +0.000 A 
ATOM     14  C   UNL     1      -0.714   2.573   0.000  0.00  0.00    +0.000 A 
ATOM     15  C   UNL     1      -1.429   2.161   0.000  0.00  0.00    +0.000 A 
ATOM     16  C   UNL     1      -1.429   1.336   0.000  0.00  0.00    +0.000 A 
ATOM     17  C   UNL     1      -0.714   0.923   0.000  0.00  0.00    +0.000 A 
ENDBRANCH  11  12
ENDBRANCH  10  11
ENDBRANCH   1  10
TORSDOF 4
