REMARK  Name = 
REMARK  14 active torsions:
REMARK  status: ('A' for Active; 'I' for Inactive)
REMARK    1  A    between atoms: C_2  and  N_3
REMARK    2  A    between atoms: N_3  and  C_4
REMARK    3  A    between atoms: N_3  and  C_35
REMARK    4  A    between atoms: C_4  and  C_5
REMARK    5  A    between atoms: C_5  and  C_6
REMARK    6  A    between atoms: C_6  and  O_7
REMARK    7  A    between atoms: O_7  and  C_8
REMARK    8  A    between atoms: N_18  and  C_19
REMARK    9  A    between atoms: C_21  and  C_24
REMARK   10  A    between atoms: C_24  and  C_25
REMARK   11  A    between atoms: N_27  and  C_28
REMARK   12  A    between atoms: C_35  and  C_36
REMARK   13  A    between atoms: C_36  and  O_37
REMARK   14  A    between atoms: O_37  and  P_38
REMARK                            x       y       z     vdW  Elec       q    Type
REMARK                         _______ _______ _______ _____ _____    ______ ____
ROOT
ATOM      1  C   UNL     1      -3.572  -1.238   0.000  0.00  0.00    +0.000 A 
ATOM      2  C   UNL     1      -4.287  -0.825   0.000  0.00  0.00    +0.000 A 
ATOM      3  C   UNL     1      -5.001  -1.238   0.000  0.00  0.00    +0.000 A 
ATOM      4  C   UNL     1      -5.001  -2.062   0.000  0.00  0.00    +0.000 A 
ATOM      5  C   UNL     1      -4.287  -2.475   0.000  0.00  0.00    +0.000 A 
ATOM      6  C   UNL     1      -3.572  -2.062   0.000  0.00  0.00    +0.000 A 
ATOM      7  N   UNL     1      -4.287  -3.300   0.000  0.00  0.00    +0.000 NA
ATOM      8  C   UNL     1      -5.001  -3.712   0.000  0.00  0.00    +0.000 A 
ATOM      9  N   UNL     1      -5.716  -3.300   0.000  0.00  0.00    +0.000 NA
ATOM     10  C   UNL     1      -5.716  -2.475   0.000  0.00  0.00    +0.000 A 
ATOM     11  N   UNL     1      -6.430  -2.062   0.000  0.00  0.00    +0.000 NA
ENDROOT
BRANCH  11  12
ATOM     12  C   UNL     1      -7.145  -2.475   0.000  0.00  0.00    +0.000 A 
ATOM     13  C   UNL     1      -7.231  -3.296   0.000  0.00  0.00    +0.000 A 
ATOM     14  C   UNL     1      -8.038  -3.467   0.000  0.00  0.00    +0.000 A 
ATOM     15  N   UNL     1      -8.450  -2.752   0.000  0.00  0.00    +0.000 NA
ATOM     16  N   UNL     1      -7.898  -2.139   0.000  0.00  0.00    +0.000 NA
BRANCH  14  17
ATOM     17  C   UNL     1      -8.373  -4.221   0.000  0.00  0.00    +0.000 C 
BRANCH  17  18
ATOM     18  C   UNL     1      -9.194  -4.307   0.000  0.00  0.00    +0.000 C 
ATOM     19  O   UNL     1      -9.679  -3.639   0.000  0.00  0.00    +0.000 OA
ATOM     20  N   UNL     1      -9.530  -5.061   0.000  0.00  0.00    +0.000 NA
BRANCH  20  21
ATOM     21  C   UNL     1     -10.350  -5.147   0.000  0.00  0.00    +0.000 A 
ATOM     22  C   UNL     1     -10.686  -5.901   0.000  0.00  0.00    +0.000 A 
ATOM     23  C   UNL     1     -11.506  -5.987   0.000  0.00  0.00    +0.000 A 
ATOM     24  C   UNL     1     -11.991  -5.319   0.000  0.00  0.00    +0.000 A 
ATOM     25  C   UNL     1     -11.655  -4.566   0.000  0.00  0.00    +0.000 A 
ATOM     26  C   UNL     1     -10.835  -4.479   0.000  0.00  0.00    +0.000 A 
ATOM     27  F   UNL     1     -12.140  -3.898   0.000  0.00  0.00    +0.000 F 
ENDBRANCH  20  21
ENDBRANCH  17  18
ENDBRANCH  14  17
ENDBRANCH  11  12
BRANCH   1  28
ATOM     28  O   UNL     1      -2.858  -0.825   0.000  0.00  0.00    +0.000 OA
BRANCH  28  29
ATOM     29  C   UNL     1      -2.143  -1.238   0.000  0.00  0.00    +0.000 C 
BRANCH  29  30
ATOM     30  C   UNL     1      -1.429  -0.825   0.000  0.00  0.00    +0.000 C 
BRANCH  30  31
ATOM     31  C   UNL     1      -0.715  -1.238   0.000  0.00  0.00    +0.000 C 
BRANCH  31  32
ATOM     32  N   UNL     1       0.000  -0.825   0.000  0.00  0.00    +0.000 NA
BRANCH  32  34
ATOM     33  C   UNL     1       0.715   0.412   0.000  0.00  0.00    +0.000 C 
ATOM     34  C   UNL     1       0.000   0.000   0.000  0.00  0.00    +0.000 C 
ENDBRANCH  32  34
BRANCH  32  35
ATOM     35  C   UNL     1       0.715  -1.238   0.000  0.00  0.00    +0.000 C 
BRANCH  35  36
ATOM     36  C   UNL     1       1.429  -0.825   0.000  0.00  0.00    +0.000 C 
BRANCH  36  37
ATOM     37  O   UNL     1       2.143  -1.238   0.000  0.00  0.00    +0.000 OA
BRANCH  37  38
ATOM     38  P   UNL     1       2.858  -0.825   0.000  0.00  0.00    +0.000 P 
ATOM     39  O   UNL     1       3.572  -0.412   0.000  0.00  0.00    +0.000 OA
ATOM     40  O   UNL     1       3.270  -1.540   0.000  0.00  0.00    +0.000 OA
ATOM     41  O   UNL     1       2.445  -0.111   0.000  0.00  0.00    +0.000 OA
ENDBRANCH  37  38
ENDBRANCH  36  37
ENDBRANCH  35  36
ENDBRANCH  32  35
ENDBRANCH  31  32
ENDBRANCH  30  31
ENDBRANCH  29  30
ENDBRANCH  28  29
ENDBRANCH   1  28
TORSDOF 14
