REMARK  Name = 
REMARK  16 active torsions:
REMARK  status: ('A' for Active; 'I' for Inactive)
REMARK    1  A    between atoms: S_1  and  C_12
REMARK    2  A    between atoms: S_1  and  C_14
REMARK    3  A    between atoms: N_8  and  C_20
REMARK    4  A    between atoms: N_9  and  C_18
REMARK    5  A    between atoms: C_13  and  C_14
REMARK    6  A    between atoms: C_13  and  C_19
REMARK    7  A    between atoms: C_13  and  C_24
REMARK    8  A    between atoms: C_15  and  C_16
REMARK    9  A    between atoms: C_16  and  C_17
REMARK   10  A    between atoms: C_17  and  C_18
REMARK   11  A    between atoms: C_18  and  C_25
REMARK   12  A    between atoms: C_20  and  C_21
REMARK   13  A    between atoms: C_20  and  C_26
REMARK   14  A    between atoms: C_24  and  C_27
REMARK   15  A    between atoms: C_25  and  C_32
REMARK   16  A    between atoms: C_26  and  C_31
REMARK                            x       y       z     vdW  Elec       q    Type
REMARK                         _______ _______ _______ _____ _____    ______ ____
ROOT
ATOM      1  C   UNL     1      -0.041  -0.458   0.000  0.00  0.00    +0.000 C 
ENDROOT
BRANCH   1   4
ATOM      2  O   UNL     1       0.662   0.825   0.000  0.00  0.00    +0.000 OA
ATOM      3  N   UNL     1       1.365  -0.458   0.000  0.00  0.00    +0.000 NA
ATOM      4  C   UNL     1       0.662  -0.051   0.000  0.00  0.00    +0.000 C 
BRANCH   3   5
ATOM      5  C   UNL     1       2.108  -0.051   0.000  0.00  0.00    +0.000 C 
BRANCH   5   7
ATOM      6  O   UNL     1       2.811  -1.171   0.000  0.00  0.00    +0.000 OA
ATOM      7  C   UNL     1       2.811  -0.458   0.000  0.00  0.00    +0.000 C 
BRANCH   7   9
ATOM      8  O   UNL     1       3.565   0.652   0.000  0.00  0.00    +0.000 OA
ATOM      9  C   UNL     1       3.524  -0.051   0.000  0.00  0.00    +0.000 C 
BRANCH   9  10
ATOM     10  C   UNL     1       4.267  -0.458   0.000  0.00  0.00    +0.000 C 
ATOM     11  C   UNL     1       5.092  -0.458   0.000  0.00  0.00    +0.000 C 
ATOM     12  C   UNL     1       4.675  -1.171   0.000  0.00  0.00    +0.000 C 
ENDBRANCH   9  10
ENDBRANCH   7   9
ENDBRANCH   5   7
BRANCH   5  13
ATOM     13  C   UNL     1       2.108   1.110   0.000  0.00  0.00    +0.000 C 
BRANCH  13  14
ATOM     14  C   UNL     1       2.648   1.609   0.000  0.00  0.00    +0.000 C 
ATOM     15  C   UNL     1       3.351   1.192   0.000  0.00  0.00    +0.000 C 
ATOM     16  C   UNL     1       2.648   2.434   0.000  0.00  0.00    +0.000 C 
ATOM     17  C   UNL     1       4.094   1.609   0.000  0.00  0.00    +0.000 C 
ATOM     18  C   UNL     1       3.392   2.852   0.000  0.00  0.00    +0.000 C 
ATOM     19  C   UNL     1       4.094   2.434   0.000  0.00  0.00    +0.000 C 
ENDBRANCH  13  14
ENDBRANCH   5  13
ENDBRANCH   3   5
ENDBRANCH   1   4
BRANCH   1  21
ATOM     20  O   UNL     1      -1.487  -1.293   0.000  0.00  0.00    +0.000 OA
ATOM     21  N   UNL     1      -0.784  -0.051   0.000  0.00  0.00    +0.000 NA
ATOM     22  C   UNL     1      -1.487  -0.458   0.000  0.00  0.00    +0.000 C 
BRANCH  22  23
ATOM     23  C   UNL     1      -2.241  -0.051   0.000  0.00  0.00    +0.000 C 
BRANCH  23  24
ATOM     24  C   UNL     1      -2.241   0.825   0.000  0.00  0.00    +0.000 C 
BRANCH  24  25
ATOM     25  C   UNL     1      -1.487   1.232   0.000  0.00  0.00    +0.000 A 
ATOM     26  C   UNL     1      -0.784   0.825   0.000  0.00  0.00    +0.000 A 
ATOM     27  C   UNL     1      -1.487   2.067   0.000  0.00  0.00    +0.000 A 
ATOM     28  C   UNL     1      -0.041   1.232   0.000  0.00  0.00    +0.000 A 
ATOM     29  C   UNL     1      -0.784   2.475   0.000  0.00  0.00    +0.000 A 
ATOM     30  C   UNL     1      -0.041   2.067   0.000  0.00  0.00    +0.000 A 
ENDBRANCH  24  25
ENDBRANCH  23  24
BRANCH  23  31
ATOM     31  C   UNL     1      -2.943  -0.458   0.000  0.00  0.00    +0.000 C 
BRANCH  31  32
ATOM     32  S   UNL     1      -3.646  -0.051   0.000  0.00  0.00    +0.000 S 
ATOM     33  O   UNL     1      -3.646   0.784   0.000  0.00  0.00    +0.000 OA
ATOM     34  O   UNL     1      -3.646  -0.876   0.000  0.00  0.00    +0.000 OA
BRANCH  32  35
ATOM     35  C   UNL     1      -4.390  -0.458   0.000  0.00  0.00    +0.000 C 
ATOM     36  C   UNL     1      -5.092  -0.051   0.000  0.00  0.00    +0.000 C 
ATOM     37  C   UNL     1      -4.390  -1.293   0.000  0.00  0.00    +0.000 C 
ATOM     38  C   UNL     1      -4.390   0.367   0.000  0.00  0.00    +0.000 C 
ENDBRANCH  32  35
ENDBRANCH  31  32
ENDBRANCH  23  31
ENDBRANCH  22  23
ENDBRANCH   1  21
BRANCH   1  39
ATOM     39  C   UNL     1      -0.041  -1.253   0.000  0.00  0.00    +0.000 C 
BRANCH  39  42
ATOM     40  N   UNL     1       0.570  -2.587   0.000  0.00  0.00    +0.000 NA
ATOM     41  N   UNL     1       1.864  -2.179   0.000  0.00  0.00    +0.000 NA
ATOM     42  C   UNL     1       0.580  -1.752   0.000  0.00  0.00    +0.000 A 
ATOM     43  C   UNL     1       1.375  -1.497   0.000  0.00  0.00    +0.000 A 
ATOM     44  C   UNL     1       1.365  -2.852   0.000  0.00  0.00    +0.000 A 
ENDBRANCH  39  42
ENDBRANCH   1  39
TORSDOF 16
