REMARK  Name = 
REMARK  7 active torsions:
REMARK  status: ('A' for Active; 'I' for Inactive)
REMARK    1  A    between atoms: O_7  and  N_10
REMARK    2  A    between atoms: N_8  and  CA_14
REMARK    3  A    between atoms: C_13  and  CA_14
REMARK    4  A    between atoms: CA_14  and  C_18
REMARK    5  A    between atoms: CA_17  and  C_21
REMARK    6  A    between atoms: C_19  and  C_20
REMARK    7  A    between atoms: C_20  and  C_23
REMARK                            x       y       z     vdW  Elec       q    Type
REMARK                         _______ _______ _______ _____ _____    ______ ____
ROOT
ATOM      1  O   UNL     1       0.917  -1.238   0.000  0.00  0.00    +0.000 OA
ATOM      2  N   UNL     1       0.203  -0.001   0.000  0.00  0.00    +0.000 NA
ATOM      3  C   UNL     1       0.917  -0.413   0.000  0.00  0.00    +0.000 C 
ENDROOT
BRANCH   3   5
ATOM      4  N   UNL     1       1.632   0.824   0.000  0.00  0.00    +0.000 NA
ATOM      5  C   UNL     1       1.632  -0.001   0.000  0.00  0.00    +0.000 C 
BRANCH   5   9
ATOM      6  S   UNL     1       3.652  -0.691   0.000  0.00  0.00    +0.000 S 
ATOM      7  N   UNL     1       2.433  -1.234   0.000  0.00  0.00    +0.000 NA
ATOM      8  N   UNL     1       3.575  -2.159   0.000  0.00  0.00    +0.000 NA
ATOM      9  C   UNL     1       2.346  -0.413   0.000  0.00  0.00    +0.000 A 
ATOM     10  C   UNL     1       3.100  -0.078   0.000  0.00  0.00    +0.000 A 
ATOM     11  C   UNL     1       3.240  -1.405   0.000  0.00  0.00    +0.000 A 
ENDBRANCH   5   9
BRANCH   4  12
ATOM     12  O   UNL     1       0.917   1.236   0.000  0.00  0.00    +0.000 OA
ATOM     13  C   UNL     1       0.917   2.062   0.000  0.00  0.00    +0.000 C 
ENDBRANCH   4  12
ENDBRANCH   3   5
BRANCH   2  14
ATOM     14  CA  UNL     1      -0.511  -0.413   0.000  0.00  0.00    +0.000 C 
BRANCH  14  17
ATOM     15  S   UNL     1      -1.226   0.824   0.000  0.00  0.00    +0.000 S 
ATOM     16  N   UNL     1      -1.940  -0.413   0.000  0.00  0.00    +0.000 NA
ATOM     17  C   UNL     1      -1.226  -0.001   0.000  0.00  0.00    +0.000 C 
ATOM     18  C   UNL     1      -1.940   1.236   0.000  0.00  0.00    +0.000 C 
ATOM     19  C   UNL     1      -2.655   0.824   0.000  0.00  0.00    +0.000 C 
ATOM     20  CA  UNL     1      -2.655  -0.001   0.000  0.00  0.00    +0.000 C 
ATOM     21  C   UNL     1      -3.369   1.236   0.000  0.00  0.00    +0.000 C 
BRANCH  20  24
ATOM     22  O   UNL     1      -3.369  -1.238   0.000  0.00  0.00    +0.000 OA
ATOM     23  OXT UNL     1      -4.084  -0.001   0.000  0.00  0.00    +0.000 OA
ATOM     24  C   UNL     1      -3.369  -0.413   0.000  0.00  0.00    +0.000 C 
ENDBRANCH  20  24
ENDBRANCH  14  17
BRANCH  14  26
ATOM     25  O   UNL     1       0.203  -1.651   0.000  0.00  0.00    +0.000 OA
ATOM     26  C   UNL     1      -0.511  -1.238   0.000  0.00  0.00    +0.000 C 
ENDBRANCH  14  26
ENDBRANCH   2  14
TORSDOF 7
