REMARK  Name = 
REMARK  4 active torsions:
REMARK  status: ('A' for Active; 'I' for Inactive)
REMARK    1  A    between atoms: C_2  and  N_3
REMARK    2  A    between atoms: N_3  and  C_4
REMARK    3  A    between atoms: C_16  and  C_18
REMARK    4  A    between atoms: C_22  and  O_27
REMARK                            x       y       z     vdW  Elec       q    Type
REMARK                         _______ _______ _______ _____ _____    ______ ____
ROOT
ATOM      1  C   UNL     1      -1.409  -4.270   0.000  0.00  0.00    +0.000 A 
ATOM      2  C   UNL     1      -1.821  -4.985   0.000  0.00  0.00    +0.000 A 
ATOM      3  C   UNL     1      -2.646  -4.985   0.000  0.00  0.00    +0.000 A 
ATOM      4  C   UNL     1      -3.059  -4.270   0.000  0.00  0.00    +0.000 A 
ATOM      5  N   UNL     1      -2.646  -3.556   0.000  0.00  0.00    +0.000 NA
ATOM      6  C   UNL     1      -1.821  -3.556   0.000  0.00  0.00    +0.000 A 
ATOM      7  N   UNL     1      -1.409  -2.841   0.000  0.00  0.00    +0.000 N 
ATOM      8  C   UNL     1      -1.821  -2.127   0.000  0.00  0.00    +0.000 C 
ATOM      9  C   UNL     1      -1.409  -1.412   0.000  0.00  0.00    +0.000 C 
ATOM     10  N   UNL     1      -0.584  -1.412   0.000  0.00  0.00    +0.000 N 
ATOM     11  C   UNL     1      -0.171  -2.127   0.000  0.00  0.00    +0.000 C 
ATOM     12  C   UNL     1      -0.584  -2.841   0.000  0.00  0.00    +0.000 C 
ATOM     13  C   UNL     1      -0.171  -0.698   0.000  0.00  0.00    +0.000 C 
ATOM     14  O   UNL     1      -0.584   0.017   0.000  0.00  0.00    +0.000 OA
ENDROOT
BRANCH  13  15
ATOM     15  C   UNL     1       0.654  -0.698   0.000  0.00  0.00    +0.000 A 
ATOM     16  C   UNL     1       1.139  -0.030   0.000  0.00  0.00    +0.000 A 
ATOM     17  C   UNL     1       1.923  -0.285   0.000  0.00  0.00    +0.000 A 
ATOM     18  C   UNL     1       2.638   0.127   0.000  0.00  0.00    +0.000 A 
ATOM     19  C   UNL     1       3.352  -0.285   0.000  0.00  0.00    +0.000 A 
ATOM     20  C   UNL     1       3.352  -1.110   0.000  0.00  0.00    +0.000 A 
ATOM     21  C   UNL     1       2.638  -1.523   0.000  0.00  0.00    +0.000 A 
ATOM     22  C   UNL     1       1.923  -1.110   0.000  0.00  0.00    +0.000 A 
ATOM     23  N   UNL     1       1.139  -1.365   0.000  0.00  0.00    +0.000 NA
BRANCH  19  24
ATOM     24  O   UNL     1       4.067   0.127   0.000  0.00  0.00    +0.000 OA
ATOM     25  C   UNL     1       4.067   0.952   0.000  0.00  0.00    +0.000 C 
ENDBRANCH  19  24
ENDBRANCH  13  15
BRANCH   1  26
ATOM     26  N   UNL     1      -0.584  -4.270   0.000  0.00  0.00    +0.000 NA
BRANCH  26  28
ATOM     27  C   UNL     1       0.654  -4.985   0.000  0.00  0.00    +0.000 C 
ATOM     28  C   UNL     1      -0.171  -4.985   0.000  0.00  0.00    +0.000 C 
ENDBRANCH  26  28
ENDBRANCH   1  26
TORSDOF 4
