REMARK  Name = 
REMARK  1 active torsions:
REMARK  status: ('A' for Active; 'I' for Inactive)
REMARK    1  A    between atoms: C_1  and  C_2
REMARK                            x       y       z     vdW  Elec       q    Type
REMARK                         _______ _______ _______ _____ _____    ______ ____
ROOT
ATOM      1  C   UNL     1       0.357   0.206   0.000  0.00  0.00    +0.000 C 
ATOM      2  O   UNL     1       0.357   1.031   0.000  0.00  0.00    +0.000 OA
ATOM      3  N   UNL     1       1.072  -0.206   0.000  0.00  0.00    +0.000 NA
ENDROOT
BRANCH   1   4
ATOM      4  C   UNL     1      -0.357  -0.206   0.000  0.00  0.00    +0.000 C 
ATOM      5  O   UNL     1      -0.357  -1.031   0.000  0.00  0.00    +0.000 OA
ATOM      6  C   UNL     1      -1.072   0.206   0.000  0.00  0.00    +0.000 C 
ENDBRANCH   1   4
TORSDOF 1
