REMARK  Name = 
REMARK  25 active torsions:
REMARK  status: ('A' for Active; 'I' for Inactive)
REMARK    1  A    between atoms: C_2  and  C_4
REMARK    2  A    between atoms: C_4  and  O_5
REMARK    3  A    between atoms: O_5  and  C_6
REMARK    4  A    between atoms: C_6  and  C_7
REMARK    5  A    between atoms: C_12  and  C_13
REMARK    6  A    between atoms: C_19  and  C_20
REMARK    7  A    between atoms: C_26  and  C_27
REMARK    8  A    between atoms: C_33  and  C_34
REMARK    9  A    between atoms: C_34  and  O_35
REMARK   10  A    between atoms: O_35  and  C_36
REMARK   11  A    between atoms: C_36  and  C_37
REMARK   12  A    between atoms: C_44  and  C_45
REMARK   13  A    between atoms: C_51  and  C_52
REMARK   14  A    between atoms: C_52  and  O_53
REMARK   15  A    between atoms: O_53  and  C_54
REMARK   16  A    between atoms: C_54  and  C_55
REMARK   17  A    between atoms: C_71  and  O_72
REMARK   18  A    between atoms: O_72  and  C_73
REMARK   19  A    between atoms: C_73  and  C_74
REMARK   20  A    between atoms: C_85  and  O_86
REMARK   21  A    between atoms: O_86  and  C_87
REMARK   22  A    between atoms: C_87  and  C_88
REMARK   23  A    between atoms: C_93  and  O_94
REMARK   24  A    between atoms: O_94  and  C_95
REMARK   25  A    between atoms: C_95  and  C_96
REMARK                            x       y       z     vdW  Elec       q    Type
REMARK                         _______ _______ _______ _____ _____    ______ ____
ROOT
ATOM      1  C   UNL     1       6.369  -1.604   0.000  0.00  0.00    +0.000 C 
ATOM      2  O   UNL     1       7.081  -1.195   0.000  0.00  0.00    +0.000 OA
ATOM      3  C   UNL     1       7.105  -0.351   0.000  0.00  0.00    +0.000 C 
ATOM      4  O   UNL     1       7.962  -0.225   0.000  0.00  0.00    +0.000 OA
ATOM      5  C   UNL     1       8.786  -0.462   0.000  0.00  0.00    +0.000 C 
ATOM      6  C   UNL     1       8.932  -1.293   0.000  0.00  0.00    +0.000 C 
ATOM      7  O   UNL     1       9.696  -1.594   0.000  0.00  0.00    +0.000 OA
ATOM      8  C   UNL     1      10.371  -1.087   0.000  0.00  0.00    +0.000 C 
ATOM      9  O   UNL     1      11.003  -1.678   0.000  0.00  0.00    +0.000 OA
ATOM     10  C   UNL     1      11.332  -2.470   0.000  0.00  0.00    +0.000 C 
ATOM     11  C   UNL     1      10.773  -3.102   0.000  0.00  0.00    +0.000 C 
ATOM     12  O   UNL     1      11.014  -3.888   0.000  0.00  0.00    +0.000 OA
ATOM     13  C   UNL     1      11.832  -4.099   0.000  0.00  0.00    +0.000 C 
ATOM     14  O   UNL     1      11.764  -4.962   0.000  0.00  0.00    +0.000 OA
ATOM     15  C   UNL     1      11.349  -5.713   0.000  0.00  0.00    +0.000 C 
ATOM     16  C   UNL     1      11.700  -6.485   0.000  0.00  0.00    +0.000 C 
ATOM     17  O   UNL     1      11.234  -7.179   0.000  0.00  0.00    +0.000 OA
ATOM     18  C   UNL     1      10.387  -7.119   0.000  0.00  0.00    +0.000 C 
ATOM     19  O   UNL     1       9.670  -7.604   0.000  0.00  0.00    +0.000 OA
ATOM     20  C   UNL     1       8.825  -7.748   0.000  0.00  0.00    +0.000 C 
ATOM     21  C   UNL     1       8.440  -8.504   0.000  0.00  0.00    +0.000 C 
ATOM     22  O   UNL     1       7.606  -8.572   0.000  0.00  0.00    +0.000 OA
ATOM     23  C   UNL     1       7.125  -7.873   0.000  0.00  0.00    +0.000 C 
ATOM     24  O   UNL     1       6.299  -7.615   0.000  0.00  0.00    +0.000 OA
ATOM     25  C   UNL     1       5.659  -7.044   0.000  0.00  0.00    +0.000 C 
ATOM     26  C   UNL     1       4.829  -7.214   0.000  0.00  0.00    +0.000 C 
ATOM     27  O   UNL     1       4.255  -6.604   0.000  0.00  0.00    +0.000 OA
ATOM     28  C   UNL     1       4.502  -5.793   0.000  0.00  0.00    +0.000 C 
ATOM     29  O   UNL     1       4.189  -4.986   0.000  0.00  0.00    +0.000 OA
ATOM     30  C   UNL     1       4.237  -4.130   0.000  0.00  0.00    +0.000 C 
ATOM     31  C   UNL     1       3.586  -3.586   0.000  0.00  0.00    +0.000 C 
ATOM     32  O   UNL     1       3.705  -2.758   0.000  0.00  0.00    +0.000 OA
ATOM     33  C   UNL     1       4.493  -2.445   0.000  0.00  0.00    +0.000 C 
ATOM     34  O   UNL     1       4.929  -1.697   0.000  0.00  0.00    +0.000 OA
ATOM     35  C   UNL     1       5.628  -1.200   0.000  0.00  0.00    +0.000 C 
ATOM     36  C   UNL     1       5.647  -0.353   0.000  0.00  0.00    +0.000 C 
ATOM     37  C   UNL     1       6.369   0.071   0.000  0.00  0.00    +0.000 C 
ATOM     38  O   UNL     1       6.364   0.896   0.000  0.00  0.00    +0.000 OA
ATOM     39  C   UNL     1       5.138  -2.990   0.000  0.00  0.00    +0.000 C 
ATOM     40  O   UNL     1       5.911  -2.700   0.000  0.00  0.00    +0.000 OA
ATOM     41  C   UNL     1       5.014  -3.803   0.000  0.00  0.00    +0.000 C 
ATOM     42  O   UNL     1       5.665  -4.310   0.000  0.00  0.00    +0.000 OA
ATOM     43  C   UNL     1       5.331  -5.628   0.000  0.00  0.00    +0.000 C 
ATOM     44  O   UNL     1       5.586  -4.844   0.000  0.00  0.00    +0.000 OA
ATOM     45  C   UNL     1       5.889  -6.232   0.000  0.00  0.00    +0.000 C 
ATOM     46  C   UNL     1       7.513  -7.123   0.000  0.00  0.00    +0.000 C 
ATOM     47  O   UNL     1       7.059  -6.434   0.000  0.00  0.00    +0.000 OA
ATOM     48  C   UNL     1       8.333  -7.063   0.000  0.00  0.00    +0.000 C 
ATOM     49  O   UNL     1       8.683  -6.316   0.000  0.00  0.00    +0.000 OA
ATOM     50  C   UNL     1      10.043  -6.348   0.000  0.00  0.00    +0.000 C 
ATOM     51  O   UNL     1       9.221  -6.274   0.000  0.00  0.00    +0.000 OA
ATOM     52  C   UNL     1      10.507  -5.670   0.000  0.00  0.00    +0.000 C 
ATOM     53  O   UNL     1      10.141  -4.931   0.000  0.00  0.00    +0.000 OA
ATOM     54  C   UNL     1      12.406  -3.475   0.000  0.00  0.00    +0.000 C 
ATOM     55  C   UNL     1      12.154  -2.677   0.000  0.00  0.00    +0.000 C 
ATOM     56  O   UNL     1      12.720  -2.077   0.000  0.00  0.00    +0.000 OA
ATOM     57  C   UNL     1      10.241  -0.248   0.000  0.00  0.00    +0.000 C 
ATOM     58  C   UNL     1       9.460   0.052   0.000  0.00  0.00    +0.000 C 
ATOM     59  O   UNL     1       9.344   0.868   0.000  0.00  0.00    +0.000 OA
ENDROOT
BRANCH  16  60
ATOM     60  C   UNL     1      12.522  -6.553   0.000  0.00  0.00    +0.000 C 
ATOM     61  O   UNL     1      12.874  -7.299   0.000  0.00  0.00    +0.000 OA
ENDBRANCH  16  60
BRANCH   6  62
ATOM     62  C   UNL     1       8.292  -1.814   0.000  0.00  0.00    +0.000 C 
ATOM     63  O   UNL     1       8.424  -2.628   0.000  0.00  0.00    +0.000 OA
ENDBRANCH   6  62
BRANCH  26  64
ATOM     64  C   UNL     1       4.580  -8.000   0.000  0.00  0.00    +0.000 C 
ATOM     65  O   UNL     1       3.774  -8.178   0.000  0.00  0.00    +0.000 OA
ENDBRANCH  26  64
BRANCH  11  66
ATOM     66  C   UNL     1       9.967  -2.927   0.000  0.00  0.00    +0.000 C 
ATOM     67  O   UNL     1       9.412  -3.538   0.000  0.00  0.00    +0.000 OA
ENDBRANCH  11  66
BRANCH  21  68
ATOM     68  C   UNL     1       8.899  -9.189   0.000  0.00  0.00    +0.000 C 
BRANCH  68  69
ATOM     69  O   UNL     1       8.536  -9.929   0.000  0.00  0.00    +0.000 OA
BRANCH  69  70
ATOM     70  C   UNL     1       8.995 -10.615   0.000  0.00  0.00    +0.000 C 
BRANCH  70  71
ATOM     71  C   UNL     1       8.631 -11.355   0.000  0.00  0.00    +0.000 C 
ATOM     72  C   UNL     1       9.091 -12.040   0.000  0.00  0.00    +0.000 C 
ATOM     73  O   UNL     1       7.808 -11.411   0.000  0.00  0.00    +0.000 OA
ENDBRANCH  70  71
ENDBRANCH  69  70
ENDBRANCH  68  69
ENDBRANCH  21  68
BRANCH  45  74
ATOM     74  O   UNL     1       6.691  -6.039   0.000  0.00  0.00    +0.000 OA
BRANCH  74  75
ATOM     75  C   UNL     1       6.925  -5.248   0.000  0.00  0.00    +0.000 C 
BRANCH  75  76
ATOM     76  C   UNL     1       6.357  -4.650   0.000  0.00  0.00    +0.000 C 
ATOM     77  C   UNL     1       5.927  -3.946   0.000  0.00  0.00    +0.000 C 
ATOM     78  O   UNL     1       6.592  -3.859   0.000  0.00  0.00    +0.000 OA
ENDBRANCH  75  76
ENDBRANCH  74  75
ENDBRANCH  45  74
BRANCH   1  79
ATOM     79  C   UNL     1       6.378  -2.429   0.000  0.00  0.00    +0.000 C 
BRANCH  79  80
ATOM     80  O   UNL     1       7.097  -2.834   0.000  0.00  0.00    +0.000 OA
BRANCH  80  81
ATOM     81  C   UNL     1       7.106  -3.659   0.000  0.00  0.00    +0.000 C 
BRANCH  81  83
ATOM     82  C   UNL     1       7.834  -4.888   0.000  0.00  0.00    +0.000 C 
ATOM     83  C   UNL     1       7.825  -4.064   0.000  0.00  0.00    +0.000 C 
ATOM     84  O   UNL     1       8.535  -3.643   0.000  0.00  0.00    +0.000 OA
ENDBRANCH  81  83
ENDBRANCH  80  81
ENDBRANCH  79  80
ENDBRANCH   1  79
BRANCH  54  85
ATOM     85  O   UNL     1      13.212  -3.654   0.000  0.00  0.00    +0.000 OA
BRANCH  85  86
ATOM     86  C   UNL     1      13.769  -3.046   0.000  0.00  0.00    +0.000 C 
BRANCH  86  87
ATOM     87  C   UNL     1      14.575  -3.225   0.000  0.00  0.00    +0.000 C 
ATOM     88  C   UNL     1      14.822  -4.012   0.000  0.00  0.00    +0.000 C 
ATOM     89  O   UNL     1      15.133  -2.617   0.000  0.00  0.00    +0.000 OA
ENDBRANCH  86  87
ENDBRANCH  85  86
ENDBRANCH  54  85
BRANCH  57  90
ATOM     90  O   UNL     1      10.883   0.270   0.000  0.00  0.00    +0.000 OA
BRANCH  90  91
ATOM     91  C   UNL     1      10.756   1.085   0.000  0.00  0.00    +0.000 C 
BRANCH  91  92
ATOM     92  C   UNL     1      11.398   1.603   0.000  0.00  0.00    +0.000 C 
ATOM     93  C   UNL     1      12.168   1.306   0.000  0.00  0.00    +0.000 C 
ATOM     94  O   UNL     1      11.271   2.418   0.000  0.00  0.00    +0.000 OA
ENDBRANCH  91  92
ENDBRANCH  90  91
ENDBRANCH  57  90
BRANCH  31  95
ATOM     95  C   UNL     1       2.816  -3.882   0.000  0.00  0.00    +0.000 C 
BRANCH  95  96
ATOM     96  O   UNL     1       2.175  -3.362   0.000  0.00  0.00    +0.000 OA
BRANCH  96  97
ATOM     97  C   UNL     1       2.304  -2.547   0.000  0.00  0.00    +0.000 C 
BRANCH  97  98
ATOM     98  C   UNL     1       1.663  -2.028   0.000  0.00  0.00    +0.000 C 
ATOM     99  C   UNL     1       0.893  -2.324   0.000  0.00  0.00    +0.000 C 
ATOM    100  O   UNL     1       1.792  -1.213   0.000  0.00  0.00    +0.000 OA
ENDBRANCH  97  98
ENDBRANCH  96  97
ENDBRANCH  95  96
ENDBRANCH  31  95
TORSDOF 25
