REMARK  Name = 
REMARK  4 active torsions:
REMARK  status: ('A' for Active; 'I' for Inactive)
REMARK    1  A    between atoms: C_2  and  C_3
REMARK    2  A    between atoms: C_3  and  C_5
REMARK    3  A    between atoms: C_5  and  C_6
REMARK    4  A    between atoms: C_5  and  C_8
REMARK                            x       y       z     vdW  Elec       q    Type
REMARK                         _______ _______ _______ _____ _____    ______ ____
ROOT
ATOM      1  C   UNL     1       1.952  -1.127   0.000  0.00  0.00    +0.000 C 
ENDROOT
BRANCH   1   2
ATOM      2  C   UNL     1       2.666  -0.715   0.000  0.00  0.00    +0.000 C 
ATOM      3  O   UNL     1       2.666   0.111   0.000  0.00  0.00    +0.000 OA
ATOM      4  N   UNL     1       3.381  -1.127   0.000  0.00  0.00    +0.000 NA
ENDBRANCH   1   2
BRANCH   1   5
ATOM      5  C   UNL     1       1.238  -0.715   0.000  0.00  0.00    +0.000 C 
ATOM      6  C   UNL     1       0.523  -1.127   0.000  0.00  0.00    +0.000 C 
BRANCH   5   8
ATOM      7  C   UNL     1       0.523   0.523   0.000  0.00  0.00    +0.000 C 
ATOM      8  C   UNL     1       1.238   0.111   0.000  0.00  0.00    +0.000 C 
ENDBRANCH   5   8
ENDBRANCH   1   5
BRANCH   1   9
ATOM      9  C   UNL     1       1.952  -1.952   0.000  0.00  0.00    +0.000 C 
ATOM     10  C   UNL     1       2.666  -2.365   0.000  0.00  0.00    +0.000 C 
ENDBRANCH   1   9
TORSDOF 4
