REMARK  Name = 
REMARK  6 active torsions:
REMARK  status: ('A' for Active; 'I' for Inactive)
REMARK    1  A    between atoms: C_2  and  N_22
REMARK    2  A    between atoms: C_17  and  C_20
REMARK    3  A    between atoms: C_18  and  C_20
REMARK    4  A    between atoms: C_19  and  O_24
REMARK    5  A    between atoms: C_20  and  C_21
REMARK    6  A    between atoms: C_21  and  O_24
REMARK                            x       y       z     vdW  Elec       q    Type
REMARK                         _______ _______ _______ _____ _____    ______ ____
ROOT
ATOM      1  C   UNL     1       2.858  -1.650   0.000  0.00  0.00    +0.000 C 
ENDROOT
BRANCH   1   7
ATOM      2  C   UNL     1       2.858  -4.125   0.000  0.00  0.00    +0.000 A 
ATOM      3  C   UNL     1       3.572  -3.712   0.000  0.00  0.00    +0.000 A 
ATOM      4  C   UNL     1       2.143  -3.712   0.000  0.00  0.00    +0.000 A 
ATOM      5  C   UNL     1       3.572  -2.888   0.000  0.00  0.00    +0.000 A 
ATOM      6  C   UNL     1       2.143  -2.888   0.000  0.00  0.00    +0.000 A 
ATOM      7  C   UNL     1       2.858  -2.475   0.000  0.00  0.00    +0.000 A 
ENDBRANCH   1   7
BRANCH   1  13
ATOM      8  C   UNL     1       5.001  -0.412   0.000  0.00  0.00    +0.000 A 
ATOM      9  C   UNL     1       4.287   0.000   0.000  0.00  0.00    +0.000 A 
ATOM     10  C   UNL     1       5.001  -1.238   0.000  0.00  0.00    +0.000 A 
ATOM     11  C   UNL     1       3.572  -0.412   0.000  0.00  0.00    +0.000 A 
ATOM     12  C   UNL     1       4.287  -1.650   0.000  0.00  0.00    +0.000 A 
ATOM     13  C   UNL     1       3.572  -1.238   0.000  0.00  0.00    +0.000 A 
ENDBRANCH   1  13
BRANCH   1  14
ATOM     14  C   UNL     1       2.143  -1.238   0.000  0.00  0.00    +0.000 C 
ATOM     15  O   UNL     1       1.429  -1.650   0.000  0.00  0.00    +0.000 OA
BRANCH  14  16
ATOM     16  O   UNL     1       2.143  -0.412   0.000  0.00  0.00    +0.000 OA
BRANCH  16  21
ATOM     17  C   UNL     1       0.000   0.000   0.000  0.00  0.00    +0.000 C 
ATOM     18  C   UNL     1       0.715  -0.412   0.000  0.00  0.00    +0.000 C 
ATOM     19  C   UNL     1       0.000   0.825   0.000  0.00  0.00    +0.000 C 
ATOM     20  C   UNL     1       1.429   0.825   0.000  0.00  0.00    +0.000 C 
ATOM     21  C   UNL     1       1.429   0.000   0.000  0.00  0.00    +0.000 C 
ATOM     22  N   UNL     1       0.715   1.238   0.000  0.00  0.00    +0.000 NA
BRANCH  22  24
ATOM     23  C   UNL     1       0.000   2.475   0.000  0.00  0.00    +0.000 C 
ATOM     24  C   UNL     1       0.715   2.062   0.000  0.00  0.00    +0.000 C 
ENDBRANCH  22  24
ENDBRANCH  16  21
ENDBRANCH  14  16
ENDBRANCH   1  14
TORSDOF 6
