REMARK  Name = 
REMARK  4 active torsions:
REMARK  status: ('A' for Active; 'I' for Inactive)
REMARK    1  A    between atoms: N_6  and  C_7
REMARK    2  A    between atoms: C_10  and  O_11
REMARK    3  A    between atoms: O_11  and  C_12
REMARK    4  A    between atoms: N_18  and  C_21
REMARK                            x       y       z     vdW  Elec       q    Type
REMARK                         _______ _______ _______ _____ _____    ______ ____
ROOT
ATOM      1  C   UNL     1      -0.837  -1.228   0.000  0.00  0.00    +0.000 A 
ATOM      2  C   UNL     1      -0.123  -1.641   0.000  0.00  0.00    +0.000 A 
ATOM      3  C   UNL     1       0.592  -1.228   0.000  0.00  0.00    +0.000 A 
ATOM      4  C   UNL     1       0.592  -0.403   0.000  0.00  0.00    +0.000 A 
ATOM      5  C   UNL     1       1.236   0.111   0.000  0.00  0.00    +0.000 C 
ATOM      6  C   UNL     1       2.041  -0.072   0.000  0.00  0.00    +0.000 C 
ATOM      7  N   UNL     1       2.399  -0.816   0.000  0.00  0.00    +0.000 NA
ATOM      8  C   UNL     1       2.041  -1.559   0.000  0.00  0.00    +0.000 C 
ATOM      9  C   UNL     1       1.236  -1.743   0.000  0.00  0.00    +0.000 C 
ATOM     10  C   UNL     1      -0.123   0.009   0.000  0.00  0.00    +0.000 A 
ATOM     11  C   UNL     1      -0.837  -0.403   0.000  0.00  0.00    +0.000 A 
ENDROOT
BRANCH   7  12
ATOM     12  C   UNL     1       3.224  -0.816   0.000  0.00  0.00    +0.000 C 
ATOM     13  C   UNL     1       3.807  -0.232   0.000  0.00  0.00    +0.000 C 
ATOM     14  C   UNL     1       4.391  -0.816   0.000  0.00  0.00    +0.000 C 
ATOM     15  C   UNL     1       3.807  -1.399   0.000  0.00  0.00    +0.000 C 
ENDBRANCH   7  12
BRANCH   1  16
ATOM     16  O   UNL     1      -1.552  -1.641   0.000  0.00  0.00    +0.000 OA
BRANCH  16  20
ATOM     17  C   UNL     1      -3.695  -0.403   0.000  0.00  0.00    +0.000 A 
ATOM     18  C   UNL     1      -2.981   0.009   0.000  0.00  0.00    +0.000 A 
ATOM     19  C   UNL     1      -2.266  -0.403   0.000  0.00  0.00    +0.000 A 
ATOM     20  C   UNL     1      -2.266  -1.228   0.000  0.00  0.00    +0.000 A 
ATOM     21  N   UNL     1      -2.981  -1.641   0.000  0.00  0.00    +0.000 NA
ATOM     22  C   UNL     1      -3.695  -1.228   0.000  0.00  0.00    +0.000 A 
BRANCH  17  28
ATOM     23  O   UNL     1      -5.335  -1.133   0.000  0.00  0.00    +0.000 OA
ATOM     24  C   UNL     1      -5.163  -0.326   0.000  0.00  0.00    +0.000 C 
ATOM     25  C   UNL     1      -5.715   0.287   0.000  0.00  0.00    +0.000 C 
ATOM     26  C   UNL     1      -5.303   1.001   0.000  0.00  0.00    +0.000 C 
ATOM     27  C   UNL     1      -4.496   0.830   0.000  0.00  0.00    +0.000 C 
ATOM     28  N   UNL     1      -4.410   0.009   0.000  0.00  0.00    +0.000 N 
ENDBRANCH  17  28
ENDBRANCH  16  20
ENDBRANCH   1  16
TORSDOF 4
