REMARK  Name = 
REMARK  5 active torsions:
REMARK  status: ('A' for Active; 'I' for Inactive)
REMARK    1  A    between atoms: N_1  and  C_4
REMARK    2  A    between atoms: C_4  and  C_7
REMARK    3  A    between atoms: N_5  and  C_7
REMARK    4  A    between atoms: N_5  and  C_8
REMARK    5  A    between atoms: C_8  and  C_9
REMARK                            x       y       z     vdW  Elec       q    Type
REMARK                         _______ _______ _______ _____ _____    ______ ____
ROOT
ATOM      1  C   UNL     1      -0.301  -0.153   0.000  0.00  0.00    +0.000 C 
ENDROOT
BRANCH   1   2
ATOM      2  C   UNL     1      -1.015  -0.565   0.000  0.00  0.00    +0.000 C 
BRANCH   2   3
ATOM      3  N   UNL     1      -1.730  -0.153   0.000  0.00  0.00    +0.000 NA
ATOM      4  C   UNL     1      -2.142   0.565   0.000  0.00  0.00    +0.000 C 
ATOM      5  C   UNL     1      -2.554  -0.153   0.000  0.00  0.00    +0.000 C 
ENDBRANCH   2   3
ENDBRANCH   1   2
BRANCH   1   6
ATOM      6  N   UNL     1       0.410  -0.565   0.000  0.00  0.00    +0.000 NA
BRANCH   6   7
ATOM      7  C   UNL     1       1.125  -0.153   0.000  0.00  0.00    +0.000 C 
BRANCH   7   9
ATOM      8  N   UNL     1       2.554  -0.149   0.000  0.00  0.00    +0.000 NA
ATOM      9  C   UNL     1       1.836  -0.565   0.000  0.00  0.00    +0.000 C 
ENDBRANCH   7   9
ENDBRANCH   6   7
ENDBRANCH   1   6
TORSDOF 5
