REMARK  Name = 
REMARK  8 active torsions:
REMARK  status: ('A' for Active; 'I' for Inactive)
REMARK    1  A    between atoms: O_2  and  C_3
REMARK    2  A    between atoms: C_6  and  C_14
REMARK    3  A    between atoms: C_8  and  O_9
REMARK    4  A    between atoms: O_9  and  P_10
REMARK    5  A    between atoms: C_15  and  C_16
REMARK    6  A    between atoms: C_18  and  O_26
REMARK    7  A    between atoms: C_19  and  O_24
REMARK    8  A    between atoms: C_20  and  O_22
REMARK                            x       y       z     vdW  Elec       q    Type
REMARK                         _______ _______ _______ _____ _____    ______ ____
ROOT
ATOM      1  C   UNL     1       2.858  -2.475   0.000  0.00  0.00    +0.000 C 
ATOM      2  C   UNL     1       2.143  -2.888   0.000  0.00  0.00    +0.000 C 
ENDROOT
BRANCH   2   3
ATOM      3  C   UNL     1       1.429  -2.475   0.000  0.00  0.00    +0.000 A 
ATOM      4  C   UNL     1       0.715  -2.888   0.000  0.00  0.00    +0.000 A 
ATOM      5  C   UNL     1       0.000  -2.475   0.000  0.00  0.00    +0.000 A 
ATOM      6  C   UNL     1       0.000  -1.650   0.000  0.00  0.00    +0.000 A 
ATOM      7  C   UNL     1       0.715  -1.238   0.000  0.00  0.00    +0.000 A 
ATOM      8  C   UNL     1       1.429  -1.650   0.000  0.00  0.00    +0.000 A 
BRANCH   7   9
ATOM      9  O   UNL     1       0.715  -0.412   0.000  0.00  0.00    +0.000 OA
ATOM     10  C   UNL     1       1.429   0.000   0.000  0.00  0.00    +0.000 C 
ENDBRANCH   7   9
BRANCH   6  11
ATOM     11  O   UNL     1      -0.715  -1.238   0.000  0.00  0.00    +0.000 OA
ATOM     12  C   UNL     1      -1.429  -1.650   0.000  0.00  0.00    +0.000 C 
ENDBRANCH   6  11
BRANCH   5  13
ATOM     13  O   UNL     1      -0.715  -2.888   0.000  0.00  0.00    +0.000 OA
ATOM     14  C   UNL     1      -1.429  -2.475   0.000  0.00  0.00    +0.000 C 
ENDBRANCH   5  13
ENDBRANCH   2   3
BRANCH   1  18
ATOM     15  C   UNL     1       2.858   0.000   0.000  0.00  0.00    +0.000 A 
ATOM     16  C   UNL     1       2.143  -0.412   0.000  0.00  0.00    +0.000 A 
ATOM     17  C   UNL     1       2.143  -1.238   0.000  0.00  0.00    +0.000 A 
ATOM     18  C   UNL     1       2.858  -1.650   0.000  0.00  0.00    +0.000 A 
ATOM     19  C   UNL     1       3.572  -1.238   0.000  0.00  0.00    +0.000 A 
ATOM     20  C   UNL     1       3.572  -0.412   0.000  0.00  0.00    +0.000 A 
BRANCH  15  22
ATOM     21  C   UNL     1       2.143   1.238   0.000  0.00  0.00    +0.000 C 
ATOM     22  O   UNL     1       2.858   0.825   0.000  0.00  0.00    +0.000 OA
ENDBRANCH  15  22
BRANCH  20  23
ATOM     23  O   UNL     1       4.287   0.000   0.000  0.00  0.00    +0.000 OA
BRANCH  23  24
ATOM     24  P   UNL     1       4.287   0.825   0.000  0.00  0.00    +0.000 P 
ATOM     25  O   UNL     1       5.112   0.825   0.000  0.00  0.00    +0.000 OA
ATOM     26  O   UNL     1       4.287   1.650   0.000  0.00  0.00    +0.000 OA
ATOM     27  O   UNL     1       3.462   0.825   0.000  0.00  0.00    +0.000 OA
ENDBRANCH  23  24
ENDBRANCH  20  23
ENDBRANCH   1  18
TORSDOF 8
