REMARK  Name = 
REMARK  4 active torsions:
REMARK  status: ('A' for Active; 'I' for Inactive)
REMARK    1  A    between atoms: C_9  and  O_10
REMARK    2  A    between atoms: O_10  and  C_11
REMARK    3  A    between atoms: C_13  and  C_14
REMARK    4  A    between atoms: C_16  and  C_19
REMARK                            x       y       z     vdW  Elec       q    Type
REMARK                         _______ _______ _______ _____ _____    ______ ____
ROOT
ATOM      1  O   UNL     1       2.784  -1.523   0.000  0.00  0.00    +0.000 OA
ENDROOT
BRANCH   1  10
ATOM      2  O   UNL     1      -0.398   0.754   0.000  0.00  0.00    +0.000 OA
ATOM      3  B   UNL     1      -0.143  -0.030   0.000  0.00  0.00    +0.000 B 
ATOM      4  O   UNL     1      -0.628  -0.698   0.000  0.00  0.00    +0.000 OA
ATOM      5  C   UNL     1      -0.143  -1.365   0.000  0.00  0.00    +0.000 C 
ATOM      6  C   UNL     1       0.641  -1.110   0.000  0.00  0.00    +0.000 A 
ATOM      7  C   UNL     1       0.641  -0.285   0.000  0.00  0.00    +0.000 A 
ATOM      8  C   UNL     1       1.356   0.127   0.000  0.00  0.00    +0.000 A 
ATOM      9  C   UNL     1       2.070  -0.285   0.000  0.00  0.00    +0.000 A 
ATOM     10  C   UNL     1       2.070  -1.110   0.000  0.00  0.00    +0.000 A 
ATOM     11  C   UNL     1       1.356  -1.523   0.000  0.00  0.00    +0.000 A 
ENDBRANCH   1  10
BRANCH   1  12
ATOM     12  C   UNL     1       2.784  -2.348   0.000  0.00  0.00    +0.000 A 
ATOM     13  C   UNL     1       3.499  -2.760   0.000  0.00  0.00    +0.000 A 
ATOM     14  C   UNL     1       3.499  -3.585   0.000  0.00  0.00    +0.000 A 
ATOM     15  C   UNL     1       2.784  -3.998   0.000  0.00  0.00    +0.000 A 
ATOM     16  C   UNL     1       2.070  -3.585   0.000  0.00  0.00    +0.000 A 
ATOM     17  C   UNL     1       2.070  -2.760   0.000  0.00  0.00    +0.000 A 
BRANCH  14  18
ATOM     18  C   UNL     1       4.213  -3.998   0.000  0.00  0.00    +0.000 C 
ATOM     19  N   UNL     1       4.928  -4.410   0.000  0.00  0.00    +0.000 NA
ENDBRANCH  14  18
BRANCH  15  20
ATOM     20  C   UNL     1       2.784  -4.823   0.000  0.00  0.00    +0.000 C 
ATOM     21  N   UNL     1       2.784  -5.648   0.000  0.00  0.00    +0.000 NA
ENDBRANCH  15  20
ENDBRANCH   1  12
TORSDOF 4
