REMARK  Name = 
REMARK  7 active torsions:
REMARK  status: ('A' for Active; 'I' for Inactive)
REMARK    1  A    between atoms: C_1  and  C_2
REMARK    2  A    between atoms: N_5  and  C_6
REMARK    3  A    between atoms: N_5  and  C_15
REMARK    4  A    between atoms: N_12  and  C_24
REMARK    5  A    between atoms: C_15  and  C_18
REMARK    6  A    between atoms: C_24  and  C_25
REMARK    7  A    between atoms: C_25  and  C_26
REMARK                            x       y       z     vdW  Elec       q    Type
REMARK                         _______ _______ _______ _____ _____    ______ ____
ROOT
ATOM      1  N   UNL     1      -0.566   0.706   0.000  0.00  0.00    +0.000 NA
ATOM      2  C   UNL     1      -0.153  -0.008   0.000  0.00  0.00    +0.000 C 
ATOM      3  C   UNL     1       0.672  -0.008   0.000  0.00  0.00    +0.000 C 
ATOM      4  C   UNL     1       1.085   0.706   0.000  0.00  0.00    +0.000 C 
ATOM      5  C   UNL     1       0.672   1.421   0.000  0.00  0.00    +0.000 C 
ATOM      6  C   UNL     1      -0.153   1.421   0.000  0.00  0.00    +0.000 C 
ENDROOT
BRANCH   4   7
ATOM      7  C   UNL     1       1.716   1.237   0.000  0.00  0.00    +0.000 A 
ATOM      8  C   UNL     1       1.573   2.049   0.000  0.00  0.00    +0.000 A 
ATOM      9  C   UNL     1       2.205   2.579   0.000  0.00  0.00    +0.000 A 
ATOM     10  C   UNL     1       2.980   2.297   0.000  0.00  0.00    +0.000 A 
ATOM     11  C   UNL     1       3.124   1.485   0.000  0.00  0.00    +0.000 A 
ATOM     12  C   UNL     1       2.492   0.954   0.000  0.00  0.00    +0.000 A 
ENDBRANCH   4   7
BRANCH   4  15
ATOM     13  C   UNL     1       2.871   0.140   0.000  0.00  0.00    +0.000 C 
ATOM     14  O   UNL     1       3.014   0.952   0.000  0.00  0.00    +0.000 OA
ATOM     15  N   UNL     1       2.096  -0.142   0.000  0.00  0.00    +0.000 N 
BRANCH  15  16
ATOM     16  C   UNL     1       1.952  -0.955   0.000  0.00  0.00    +0.000 A 
ATOM     17  C   UNL     1       2.584  -1.485   0.000  0.00  0.00    +0.000 A 
ATOM     18  C   UNL     1       2.441  -2.297   0.000  0.00  0.00    +0.000 A 
ATOM     19  C   UNL     1       1.666  -2.579   0.000  0.00  0.00    +0.000 A 
ATOM     20  C   UNL     1       1.034  -2.049   0.000  0.00  0.00    +0.000 A 
ATOM     21  C   UNL     1       1.177  -1.237   0.000  0.00  0.00    +0.000 A 
ENDBRANCH  15  16
BRANCH  13  22
ATOM     22  C   UNL     1       3.503  -0.390   0.000  0.00  0.00    +0.000 C 
ATOM     23  C   UNL     1       4.278  -0.108   0.000  0.00  0.00    +0.000 C 
ENDBRANCH  13  22
ENDBRANCH   4  15
BRANCH   1  24
ATOM     24  C   UNL     1      -1.390   0.706   0.000  0.00  0.00    +0.000 C 
BRANCH  24  25
ATOM     25  C   UNL     1      -1.803   1.421   0.000  0.00  0.00    +0.000 C 
BRANCH  25  26
ATOM     26  C   UNL     1      -2.628   1.421   0.000  0.00  0.00    +0.000 A 
ATOM     27  C   UNL     1      -3.041   0.706   0.000  0.00  0.00    +0.000 A 
ATOM     28  C   UNL     1      -3.866   0.706   0.000  0.00  0.00    +0.000 A 
ATOM     29  C   UNL     1      -4.278   1.421   0.000  0.00  0.00    +0.000 A 
ATOM     30  C   UNL     1      -3.866   2.135   0.000  0.00  0.00    +0.000 A 
ATOM     31  C   UNL     1      -3.041   2.135   0.000  0.00  0.00    +0.000 A 
ENDBRANCH  25  26
ENDBRANCH  24  25
ENDBRANCH   1  24
TORSDOF 7
