REMARK  Name = 
REMARK  4 active torsions:
REMARK  status: ('A' for Active; 'I' for Inactive)
REMARK    1  A    between atoms: C_3  and  C_8
REMARK    2  A    between atoms: C_10  and  N_16
REMARK    3  A    between atoms: C_13  and  O_14
REMARK    4  A    between atoms: N_19  and  C_20
REMARK                            x       y       z     vdW  Elec       q    Type
REMARK                         _______ _______ _______ _____ _____    ______ ____
ROOT
ATOM      1  C   UNL     1       1.406  -5.180   0.000  0.00  0.00    +0.000 A 
ATOM      2  C   UNL     1       0.793  -5.732   0.000  0.00  0.00    +0.000 A 
ATOM      3  C   UNL     1       0.008  -5.477   0.000  0.00  0.00    +0.000 A 
ATOM      4  C   UNL     1      -0.163  -4.670   0.000  0.00  0.00    +0.000 A 
ATOM      5  C   UNL     1       0.450  -4.118   0.000  0.00  0.00    +0.000 A 
ATOM      6  C   UNL     1       1.234  -4.373   0.000  0.00  0.00    +0.000 A 
ENDROOT
BRANCH   1   9
ATOM      7  C   UNL     1       2.858  -4.125   0.000  0.00  0.00    +0.000 C 
ATOM      8  N   UNL     1       2.858  -4.950   0.000  0.00  0.00    +0.000 N 
ATOM      9  C   UNL     1       2.190  -5.435   0.000  0.00  0.00    +0.000 A 
ATOM     10  C   UNL     1       2.445  -6.220   0.000  0.00  0.00    +0.000 A 
ATOM     11  C   UNL     1       3.270  -6.220   0.000  0.00  0.00    +0.000 A 
ATOM     12  N   UNL     1       3.525  -5.435   0.000  0.00  0.00    +0.000 NA
ATOM     13 BR   UNL     1       1.960  -6.887   0.000  0.00  0.00    +0.000 Br
ENDBRANCH   1   9
BRANCH   3  14
ATOM     14  N   UNL     1      -0.605  -6.029   0.000  0.00  0.00    +0.000 NA
ATOM     15  C   UNL     1      -1.390  -5.774   0.000  0.00  0.00    +0.000 C 
ATOM     16  O   UNL     1      -1.561  -4.967   0.000  0.00  0.00    +0.000 OA
ATOM     17  N   UNL     1      -2.003  -6.326   0.000  0.00  0.00    +0.000 NA
BRANCH  17  18
ATOM     18  C   UNL     1      -2.787  -6.071   0.000  0.00  0.00    +0.000 A 
ATOM     19  C   UNL     1      -3.400  -6.623   0.000  0.00  0.00    +0.000 A 
ATOM     20  C   UNL     1      -4.185  -6.368   0.000  0.00  0.00    +0.000 A 
ATOM     21  C   UNL     1      -4.357  -5.561   0.000  0.00  0.00    +0.000 A 
ATOM     22  C   UNL     1      -3.744  -5.009   0.000  0.00  0.00    +0.000 A 
ATOM     23  C   UNL     1      -2.959  -5.264   0.000  0.00  0.00    +0.000 A 
ATOM     24  F   UNL     1      -2.346  -4.712   0.000  0.00  0.00    +0.000 F 
ATOM     25  F   UNL     1      -5.141  -5.306   0.000  0.00  0.00    +0.000 F 
ENDBRANCH  17  18
ENDBRANCH   3  14
BRANCH   6  26
ATOM     26  O   UNL     1       1.847  -3.821   0.000  0.00  0.00    +0.000 OA
ATOM     27  C   UNL     1       1.676  -3.014   0.000  0.00  0.00    +0.000 C 
ENDBRANCH   6  26
TORSDOF 4
