REMARK  Name = 
REMARK  5 active torsions:
REMARK  status: ('A' for Active; 'I' for Inactive)
REMARK    1  A    between atoms: C_1  and  C_2
REMARK    2  A    between atoms: C_1  and  O_4
REMARK    3  A    between atoms: C_2  and  C_7
REMARK    4  A    between atoms: C_2  and  C_10
REMARK    5  A    between atoms: O_4  and  C_6
REMARK                            x       y       z     vdW  Elec       q    Type
REMARK                         _______ _______ _______ _____ _____    ______ ____
ROOT
ATOM      1  C   UNL     1      -1.019  -0.217   0.000  0.00  0.00    +0.000 C 
ATOM      2  O   UNL     1      -0.613   0.497   0.000  0.00  0.00    +0.000 OA
ENDROOT
BRANCH   1   3
ATOM      3  C   UNL     1      -1.729  -0.609   0.000  0.00  0.00    +0.000 A 
ATOM      4  C   UNL     1      -2.439  -0.188   0.000  0.00  0.00    +0.000 A 
ATOM      5  C   UNL     1      -1.729  -1.420   0.000  0.00  0.00    +0.000 A 
ATOM      6  C   UNL     1      -3.149  -0.609   0.000  0.00  0.00    +0.000 A 
ATOM      7  C   UNL     1      -2.439  -1.840   0.000  0.00  0.00    +0.000 A 
ATOM      8  C   UNL     1      -3.149  -1.420   0.000  0.00  0.00    +0.000 A 
ENDBRANCH   1   3
BRANCH   1   9
ATOM      9  C   UNL     1      -1.439   0.497   0.000  0.00  0.00    +0.000 C 
ATOM     10  C   UNL     1      -2.231   0.739   0.000  0.00  0.00    +0.000 C 
ATOM     11  C   UNL     1      -0.971   1.183   0.000  0.00  0.00    +0.000 C 
ATOM     12  C   UNL     1      -1.468   1.840   0.000  0.00  0.00    +0.000 C 
ATOM     13  C   UNL     1      -2.251   1.565   0.000  0.00  0.00    +0.000 C 
ENDBRANCH   1   9
BRANCH   1  14
ATOM     14  C   UNL     1      -0.294  -0.609   0.000  0.00  0.00    +0.000 C 
ATOM     15  O   UNL     1      -0.294  -1.420   0.000  0.00  0.00    +0.000 OA
BRANCH  14  16
ATOM     16  O   UNL     1       0.425  -0.217   0.000  0.00  0.00    +0.000 OA
BRANCH  16  18
ATOM     17  N   UNL     1       2.439  -0.609   0.000  0.00  0.00    +0.000 N 
ATOM     18  C   UNL     1       1.111  -0.623   0.000  0.00  0.00    +0.000 C 
ATOM     19  C   UNL     1       1.777  -0.130   0.000  0.00  0.00    +0.000 C 
ATOM     20  C   UNL     1       2.154  -1.391   0.000  0.00  0.00    +0.000 C 
ATOM     21  C   UNL     1       1.357  -1.391   0.000  0.00  0.00    +0.000 C 
ATOM     22  C   UNL     1       3.149  -0.198   0.000  0.00  0.00    +0.000 C 
ATOM     23  C   UNL     1       3.149  -1.024   0.000  0.00  0.00    +0.000 C 
ENDBRANCH  16  18
ENDBRANCH  14  16
ENDBRANCH   1  14
TORSDOF 5
