REMARK  Name = 
REMARK  3 active torsions:
REMARK  status: ('A' for Active; 'I' for Inactive)
REMARK    1  A    between atoms: C_6  and  C_7
REMARK    2  A    between atoms: C_15  and  C_16
REMARK    3  A    between atoms: C_21  and  O_22
REMARK                            x       y       z     vdW  Elec       q    Type
REMARK                         _______ _______ _______ _____ _____    ______ ____
ROOT
ATOM      1  C   UNL     1       1.851  -0.202   0.000  0.00  0.00    +0.000 A 
ATOM      2  C   UNL     1       1.122  -1.431   0.000  0.00  0.00    +0.000 A 
ATOM      3  C   UNL     1       1.842  -1.027   0.000  0.00  0.00    +0.000 A 
ATOM      4  C   UNL     1       1.142   0.219   0.000  0.00  0.00    +0.000 A 
ATOM      5  C   UNL     1       0.422  -0.185   0.000  0.00  0.00    +0.000 A 
ATOM      6  C   UNL     1       0.413  -1.010   0.000  0.00  0.00    +0.000 A 
ATOM      7  N   UNL     1      -0.375  -1.256   0.000  0.00  0.00    +0.000 NA
ATOM      8  N   UNL     1      -0.359   0.079   0.000  0.00  0.00    +0.000 NA
ATOM      9  C   UNL     1      -0.852  -0.583   0.000  0.00  0.00    +0.000 A 
ENDROOT
BRANCH   1  15
ATOM     10  C   UNL     1       3.999   0.185   0.000  0.00  0.00    +0.000 C 
ATOM     11  N   UNL     1       2.580   1.027   0.000  0.00  0.00    +0.000 NA
ATOM     12  N   UNL     1       3.299   1.431   0.000  0.00  0.00    +0.000 NA
ATOM     13  C   UNL     1       4.009   1.010   0.000  0.00  0.00    +0.000 C 
ATOM     14  O   UNL     1       4.728   1.414   0.000  0.00  0.00    +0.000 OA
ATOM     15  C   UNL     1       2.570   0.202   0.000  0.00  0.00    +0.000 C 
ATOM     16  C   UNL     1       3.280  -0.219   0.000  0.00  0.00    +0.000 C 
ATOM     17  C   UNL     1       3.280  -1.044   0.000  0.00  0.00    +0.000 C 
ENDBRANCH   1  15
BRANCH   9  18
ATOM     18  C   UNL     1      -1.677  -0.573   0.000  0.00  0.00    +0.000 A 
ATOM     19  C   UNL     1      -2.922  -1.273   0.000  0.00  0.00    +0.000 A 
ATOM     20  C   UNL     1      -2.098  -1.283   0.000  0.00  0.00    +0.000 A 
ATOM     21  C   UNL     1      -2.081   0.146   0.000  0.00  0.00    +0.000 A 
ATOM     22  C   UNL     1      -2.906   0.155   0.000  0.00  0.00    +0.000 A 
ATOM     23  C   UNL     1      -3.327  -0.554   0.000  0.00  0.00    +0.000 A 
BRANCH  23  24
ATOM     24  O   UNL     1      -4.152  -0.544   0.000  0.00  0.00    +0.000 OA
ATOM     25  C   UNL     1      -4.728   0.045   0.000  0.00  0.00    +0.000 C 
ENDBRANCH  23  24
ENDBRANCH   9  18
TORSDOF 3
