REMARK  Name = 
REMARK  12 active torsions:
REMARK  status: ('A' for Active; 'I' for Inactive)
REMARK    1  A    between atoms: C_1  and  N_7
REMARK    2  A    between atoms: C_4  and  C_8
REMARK    3  A    between atoms: C_9  and  C_10
REMARK    4  A    between atoms: C_13  and  O_16
REMARK    5  A    between atoms: O_16  and  C_17
REMARK    6  A    between atoms: C_17  and  C_18
REMARK    7  A    between atoms: C_18  and  O_19
REMARK    8  A    between atoms: O_19  and  C_20
REMARK    9  A    between atoms: C_20  and  C_21
REMARK   10  A    between atoms: C_21  and  O_22
REMARK   11  A    between atoms: O_22  and  C_23
REMARK   12  A    between atoms: C_23  and  C_24
REMARK                            x       y       z     vdW  Elec       q    Type
REMARK                         _______ _______ _______ _____ _____    ______ ____
ROOT
ATOM      1  C   UNL     1      -1.063  -0.013   0.000  0.00  0.00    +0.000 A 
ATOM      2  C   UNL     1      -1.063  -0.839   0.000  0.00  0.00    +0.000 A 
ATOM      3  C   UNL     1      -1.777  -1.251   0.000  0.00  0.00    +0.000 A 
ATOM      4  C   UNL     1      -2.492  -0.839   0.000  0.00  0.00    +0.000 A 
ATOM      5  C   UNL     1      -2.492  -0.013   0.000  0.00  0.00    +0.000 A 
ATOM      6  C   UNL     1      -1.777   0.400   0.000  0.00  0.00    +0.000 A 
ENDROOT
BRANCH   1   8
ATOM      7  C   UNL     1       0.344  -0.020   0.000  0.00  0.00    +0.000 C 
ATOM      8  C   UNL     1      -0.366   0.390   0.000  0.00  0.00    +0.000 C 
BRANCH   7  12
ATOM      9  C   UNL     1       2.498   1.224   0.000  0.00  0.00    +0.000 A 
ATOM     10  C   UNL     1       2.498   0.399   0.000  0.00  0.00    +0.000 A 
ATOM     11  C   UNL     1       1.784  -0.014   0.000  0.00  0.00    +0.000 A 
ATOM     12  C   UNL     1       1.069   0.399   0.000  0.00  0.00    +0.000 A 
ATOM     13  C   UNL     1       1.069   1.224   0.000  0.00  0.00    +0.000 A 
ATOM     14  C   UNL     1       1.784   1.636   0.000  0.00  0.00    +0.000 A 
BRANCH   9  15
ATOM     15  N   UNL     1       3.213   1.636   0.000  0.00  0.00    +0.000 NA
ATOM     16  C   UNL     1       3.213   2.461   0.000  0.00  0.00    +0.000 C 
ENDBRANCH   9  15
ENDBRANCH   7  12
ENDBRANCH   1   8
BRANCH   4  17
ATOM     17  O   UNL     1      -3.213  -1.254   0.000  0.00  0.00    +0.000 OA
BRANCH  17  18
ATOM     18  C   UNL     1      -3.201  -2.068   0.000  0.00  0.00    +0.000 C 
BRANCH  18  19
ATOM     19  C   UNL     1      -2.495  -2.461   0.000  0.00  0.00    +0.000 C 
BRANCH  19  20
ATOM     20  O   UNL     1      -1.799  -2.045   0.000  0.00  0.00    +0.000 OA
BRANCH  20  21
ATOM     21  C   UNL     1      -1.093  -2.439   0.000  0.00  0.00    +0.000 C 
BRANCH  21  22
ATOM     22  C   UNL     1      -0.397  -2.024   0.000  0.00  0.00    +0.000 C 
BRANCH  22  23
ATOM     23  O   UNL     1       0.310  -2.418   0.000  0.00  0.00    +0.000 OA
BRANCH  23  24
ATOM     24  C   UNL     1       1.005  -2.003   0.000  0.00  0.00    +0.000 C 
BRANCH  24  25
ATOM     25  C   UNL     1       1.712  -2.397   0.000  0.00  0.00    +0.000 C 
ATOM     26  F   UNL     1       2.407  -1.982   0.000  0.00  0.00    +0.000 F 
ENDBRANCH  24  25
ENDBRANCH  23  24
ENDBRANCH  22  23
ENDBRANCH  21  22
ENDBRANCH  20  21
ENDBRANCH  19  20
ENDBRANCH  18  19
ENDBRANCH  17  18
ENDBRANCH   4  17
TORSDOF 12
