REMARK  Name = 
REMARK  7 active torsions:
REMARK  status: ('A' for Active; 'I' for Inactive)
REMARK    1  A    between atoms: N_2  and  C_4
REMARK    2  A    between atoms: C_4  and  C_5
REMARK    3  A    between atoms: C_10  and  C_13
REMARK    4  A    between atoms: C_16  and  N_17
REMARK    5  A    between atoms: C_18  and  C_20
REMARK    6  A    between atoms: C_22  and  C_25
REMARK    7  A    between atoms: C_27  and  C_29
REMARK                            x       y       z     vdW  Elec       q    Type
REMARK                         _______ _______ _______ _____ _____    ______ ____
ROOT
ATOM      1  C   UNL     1      -3.466   3.528   0.000  0.00  0.00    +0.000 A 
ATOM      2  C   UNL     1      -2.751   3.115   0.000  0.00  0.00    +0.000 A 
ATOM      3  C   UNL     1      -2.751   2.290   0.000  0.00  0.00    +0.000 A 
ATOM      4  C   UNL     1      -3.466   1.878   0.000  0.00  0.00    +0.000 A 
ATOM      5  C   UNL     1      -4.180   2.290   0.000  0.00  0.00    +0.000 A 
ATOM      6  C   UNL     1      -4.180   3.115   0.000  0.00  0.00    +0.000 A 
ENDROOT
BRANCH   1  12
ATOM      7  C   UNL     1      -3.466   6.828   0.000  0.00  0.00    +0.000 C 
ATOM      8  O   UNL     1      -2.751   7.240   0.000  0.00  0.00    +0.000 OA
ATOM      9  N   UNL     1      -3.466   6.003   0.000  0.00  0.00    +0.000 N 
ATOM     10  C   UNL     1      -2.751   5.590   0.000  0.00  0.00    +0.000 C 
ATOM     11  C   UNL     1      -2.751   4.765   0.000  0.00  0.00    +0.000 C 
ATOM     12  C   UNL     1      -3.466   4.353   0.000  0.00  0.00    +0.000 C 
ATOM     13  C   UNL     1      -4.180   4.765   0.000  0.00  0.00    +0.000 C 
ATOM     14  C   UNL     1      -4.180   5.590   0.000  0.00  0.00    +0.000 C 
BRANCH   7  15
ATOM     15  C   UNL     1      -4.180   7.240   0.000  0.00  0.00    +0.000 C 
BRANCH  15  17
ATOM     16  C   UNL     1      -4.895   8.478   0.000  0.00  0.00    +0.000 C 
ATOM     17  N   UNL     1      -4.180   8.065   0.000  0.00  0.00    +0.000 NA
ATOM     18  C   UNL     1      -3.466   8.478   0.000  0.00  0.00    +0.000 C 
ENDBRANCH  15  17
ENDBRANCH   7  15
ENDBRANCH   1  12
BRANCH   5  19
ATOM     19  C   UNL     1      -4.895   1.878   0.000  0.00  0.00    +0.000 C 
ATOM     20  C   UNL     1      -4.895   1.053   0.000  0.00  0.00    +0.000 C 
ATOM     21  C   UNL     1      -5.609   0.640   0.000  0.00  0.00    +0.000 C 
ATOM     22  C   UNL     1      -6.324   1.053   0.000  0.00  0.00    +0.000 C 
ATOM     23  C   UNL     1      -6.324   1.878   0.000  0.00  0.00    +0.000 C 
ATOM     24  C   UNL     1      -5.609   2.290   0.000  0.00  0.00    +0.000 C 
ENDBRANCH   5  19
BRANCH   4  25
ATOM     25  N   UNL     1      -3.466   1.053   0.000  0.00  0.00    +0.000 NA
ATOM     26  C   UNL     1      -2.751   0.640   0.000  0.00  0.00    +0.000 C 
ATOM     27  O   UNL     1      -2.037   1.053   0.000  0.00  0.00    +0.000 OA
BRANCH  26  28
ATOM     28  C   UNL     1      -2.751  -0.185   0.000  0.00  0.00    +0.000 A 
ATOM     29  N   UNL     1      -2.084  -0.670   0.000  0.00  0.00    +0.000 NA
ATOM     30  C   UNL     1      -2.339  -1.454   0.000  0.00  0.00    +0.000 A 
ATOM     31  C   UNL     1      -3.164  -1.454   0.000  0.00  0.00    +0.000 A 
ATOM     32  N   UNL     1      -3.419  -0.670   0.000  0.00  0.00    +0.000 NA
BRANCH  30  33
ATOM     33  C   UNL     1      -1.854  -2.122   0.000  0.00  0.00    +0.000 C 
ATOM     34  N   UNL     1      -1.369  -2.789   0.000  0.00  0.00    +0.000 NA
ENDBRANCH  30  33
ENDBRANCH  26  28
ENDBRANCH   4  25
TORSDOF 7
