REMARK  Name = 
REMARK  1 active torsions:
REMARK  status: ('A' for Active; 'I' for Inactive)
REMARK    1  A    between atoms: C_2  and  C_10
REMARK                            x       y       z     vdW  Elec       q    Type
REMARK                         _______ _______ _______ _____ _____    ______ ____
ROOT
ATOM      1  C   UNL     1       0.356  -0.200   0.000  0.00  0.00    +0.000 C 
ATOM      2  C   UNL     1      -0.356  -0.637   0.000  0.00  0.00    +0.000 C 
ATOM      3  C   UNL     1      -1.069  -0.200   0.000  0.00  0.00    +0.000 C 
ATOM      4  C   UNL     1      -1.069   0.613   0.000  0.00  0.00    +0.000 C 
ATOM      5  C   UNL     1      -0.356   1.050   0.000  0.00  0.00    +0.000 C 
ATOM      6  C   UNL     1       0.356   0.613   0.000  0.00  0.00    +0.000 C 
ATOM      7  O   UNL     1       1.069  -0.600   0.000  0.00  0.00    +0.000 OA
ATOM      8  C   UNL     1      -0.356   1.875   0.000  0.00  0.00    +0.000 C 
ENDROOT
BRANCH   2  10
ATOM      9  C   UNL     1       0.356  -1.875   0.000  0.00  0.00    +0.000 C 
ATOM     10  C   UNL     1      -0.356  -1.462   0.000  0.00  0.00    +0.000 C 
ATOM     11  C   UNL     1      -1.069  -1.875   0.000  0.00  0.00    +0.000 C 
ENDBRANCH   2  10
TORSDOF 1
