REMARK  Name = 
REMARK  3 active torsions:
REMARK  status: ('A' for Active; 'I' for Inactive)
REMARK    1  A    between atoms: CB_1  and  CA_2
REMARK    2  A    between atoms: CB_1  and  CG_7
REMARK    3  A    between atoms: CA_2  and  C_3
REMARK                            x       y       z     vdW  Elec       q    Type
REMARK                         _______ _______ _______ _____ _____    ______ ____
ROOT
ATOM      1  CA  ASP A   1       3.904   1.429   0.000  0.00  0.00    +0.000 C 
ATOM      2  N   ASP A   1       3.904   0.604   0.000  0.00  0.00    +0.000 NA
ENDROOT
BRANCH   1   3
ATOM      3  C   ASP A   1       3.189   1.841   0.000  0.00  0.00    +0.000 C 
ATOM      4  O   ASP A   1       3.189   2.666   0.000  0.00  0.00    +0.000 OA
ATOM      5  OXT ASP A   1       2.475   1.429   0.000  0.00  0.00    +0.000 OA
ENDBRANCH   1   3
BRANCH   1   6
ATOM      6  CB  ASP A   1       4.618   1.841   0.000  0.00  0.00    +0.000 C 
BRANCH   6   7
ATOM      7  CG  ASP A   1       5.333   1.429   0.000  0.00  0.00    +0.000 C 
ATOM      8  OD1 ASP A   1       6.047   1.841   0.000  0.00  0.00    +0.000 OA
ATOM      9  OD2 ASP A   1       5.333   0.604   0.000  0.00  0.00    +0.000 OA
ENDBRANCH   6   7
ENDBRANCH   1   6
TORSDOF 3
REMARK  Name = 
REMARK  3 active torsions:
REMARK  status: ('A' for Active; 'I' for Inactive)
REMARK    1  A    between atoms: CB_1  and  CA_2
REMARK    2  A    between atoms: CB_1  and  CG_7
REMARK    3  A    between atoms: CA_2  and  C_3
REMARK                            x       y       z     vdW  Elec       q    Type
REMARK                         _______ _______ _______ _____ _____    ______ ____
ROOT
ATOM      1 FE   UNL     1       1.760   1.016   0.000  0.00  0.00    +0.000 Fe
ENDROOT
TORSDOF 0
