REMARK  Name = 
REMARK  1 active torsions:
REMARK  status: ('A' for Active; 'I' for Inactive)
REMARK    1  A    between atoms: C_6  and  P_9
REMARK                            x       y       z     vdW  Elec       q    Type
REMARK                         _______ _______ _______ _____ _____    ______ ____
ROOT
ATOM      1  O   UNL     1       0.715   2.062   0.000  0.00  0.00    +0.000 OA
ATOM      2  N   UNL     1       0.715   1.238   0.000  0.00  0.00    +0.000 N 
ATOM      3  C   UNL     1       1.429   0.825   0.000  0.00  0.00    +0.000 C 
ATOM      4  C   UNL     1       1.429   0.000   0.000  0.00  0.00    +0.000 C 
ATOM      5  C   UNL     1       0.715  -0.412   0.000  0.00  0.00    +0.000 C 
ATOM      6  C   UNL     1       0.000   0.000   0.000  0.00  0.00    +0.000 C 
ATOM      7  C   UNL     1       0.000   0.825   0.000  0.00  0.00    +0.000 C 
ATOM      8  O   UNL     1      -0.715   1.238   0.000  0.00  0.00    +0.000 OA
ENDROOT
BRANCH   6   9
ATOM      9  P   UNL     1      -0.715  -0.412   0.000  0.00  0.00    +0.000 P 
ATOM     10  O   UNL     1      -1.429  -0.825   0.000  0.00  0.00    +0.000 OA
ATOM     11  O   UNL     1      -1.127   0.302   0.000  0.00  0.00    +0.000 OA
ATOM     12  O   UNL     1      -0.302  -1.127   0.000  0.00  0.00    +0.000 OA
ENDBRANCH   6   9
TORSDOF 1
