REMARK  Name = 
REMARK  5 active torsions:
REMARK  status: ('A' for Active; 'I' for Inactive)
REMARK    1  A    between atoms: C_2  and  C_4
REMARK    2  A    between atoms: C_4  and  C_5
REMARK    3  A    between atoms: N_7  and  C_8
REMARK    4  A    between atoms: C_8  and  C_9
REMARK    5  A    between atoms: C_13  and  C_18
REMARK                            x       y       z     vdW  Elec       q    Type
REMARK                         _______ _______ _______ _____ _____    ______ ____
ROOT
ATOM      1  C   UNL     1       6.162  -0.554   0.000  0.00  0.00    +0.000 A 
ATOM      2  N   UNL     1       6.876  -0.967   0.000  0.00  0.00    +0.000 NA
ATOM      3  N   UNL     1       6.876  -1.792   0.000  0.00  0.00    +0.000 N 
ATOM      4  C   UNL     1       6.162  -2.204   0.000  0.00  0.00    +0.000 A 
ATOM      5  O   UNL     1       6.162  -3.029   0.000  0.00  0.00    +0.000 OA
ATOM      6  C   UNL     1       5.447  -1.792   0.000  0.00  0.00    +0.000 A 
ATOM      7  C   UNL     1       4.663  -2.046   0.000  0.00  0.00    +0.000 A 
ATOM      8  S   UNL     1       4.178  -1.379   0.000  0.00  0.00    +0.000 S 
ATOM      9  C   UNL     1       4.663  -0.712   0.000  0.00  0.00    +0.000 A 
ATOM     10  C   UNL     1       5.447  -0.967   0.000  0.00  0.00    +0.000 A 
ENDROOT
BRANCH   1  11
ATOM     11  C   UNL     1       6.162   0.271   0.000  0.00  0.00    +0.000 C 
BRANCH  11  13
ATOM     12  O   UNL     1       5.447   1.508   0.000  0.00  0.00    +0.000 OA
ATOM     13  C   UNL     1       5.447   0.683   0.000  0.00  0.00    +0.000 C 
ATOM     14  O   UNL     1       4.733   0.271   0.000  0.00  0.00    +0.000 OA
ENDBRANCH  11  13
ENDBRANCH   1  11
BRANCH   3  15
ATOM     15  C   UNL     1       7.591  -2.204   0.000  0.00  0.00    +0.000 C 
BRANCH  15  16
ATOM     16  C   UNL     1       7.591  -3.029   0.000  0.00  0.00    +0.000 A 
ATOM     17  N   UNL     1       8.258  -3.514   0.000  0.00  0.00    +0.000 NA
ATOM     18  C   UNL     1       8.003  -4.299   0.000  0.00  0.00    +0.000 A 
ATOM     19  C   UNL     1       8.416  -5.013   0.000  0.00  0.00    +0.000 A 
ATOM     20  C   UNL     1       8.003  -5.728   0.000  0.00  0.00    +0.000 A 
ATOM     21  C   UNL     1       7.178  -5.728   0.000  0.00  0.00    +0.000 A 
ATOM     22  C   UNL     1       6.766  -5.013   0.000  0.00  0.00    +0.000 A 
ATOM     23  C   UNL     1       7.178  -4.299   0.000  0.00  0.00    +0.000 A 
ATOM     24  S   UNL     1       6.923  -3.514   0.000  0.00  0.00    +0.000 S 
BRANCH  20  25
ATOM     25  C   UNL     1       8.416  -6.442   0.000  0.00  0.00    +0.000 C 
ATOM     26  F   UNL     1       8.828  -7.157   0.000  0.00  0.00    +0.000 F 
ATOM     27  F   UNL     1       7.701  -6.854   0.000  0.00  0.00    +0.000 F 
ATOM     28  F   UNL     1       9.130  -6.029   0.000  0.00  0.00    +0.000 F 
ENDBRANCH  20  25
ENDBRANCH  15  16
ENDBRANCH   3  15
TORSDOF 5
