REMARK  Name = 
REMARK  3 active torsions:
REMARK  status: ('A' for Active; 'I' for Inactive)
REMARK    1  A    between atoms: C_2  and  O_5
REMARK    2  A    between atoms: O_5  and  C_6
REMARK    3  A    between atoms: C_9  and  N_10
REMARK                            x       y       z     vdW  Elec       q    Type
REMARK                         _______ _______ _______ _____ _____    ______ ____
ROOT
ATOM      1  C   UNL     1      -2.858   3.300   0.000  0.00  0.00    +0.000 A 
ATOM      2  C   UNL     1      -2.143   3.712   0.000  0.00  0.00    +0.000 A 
ATOM      3  C   UNL     1      -1.429   3.300   0.000  0.00  0.00    +0.000 A 
ATOM      4  C   UNL     1      -1.429   2.475   0.000  0.00  0.00    +0.000 A 
ATOM      5  C   UNL     1      -2.143   2.062   0.000  0.00  0.00    +0.000 A 
ATOM      6  C   UNL     1      -2.858   2.475   0.000  0.00  0.00    +0.000 A 
ENDROOT
BRANCH   4   7
ATOM      7  N   UNL     1      -0.715   2.062   0.000  0.00  0.00    +0.000 NA
ATOM      8  C   UNL     1       0.000   2.475   0.000  0.00  0.00    +0.000 C 
ATOM      9  N   UNL     1       0.000   3.300   0.000  0.00  0.00    +0.000 NA
ATOM     10  N   UNL     1       0.715   2.062   0.000  0.00  0.00    +0.000 NA
ATOM     11  C   UNL     1       1.429   2.475   0.000  0.00  0.00    +0.000 C 
ATOM     12  N   UNL     1       1.429   3.300   0.000  0.00  0.00    +0.000 NA
ATOM     13  N   UNL     1       2.143   2.062   0.000  0.00  0.00    +0.000 N 
ATOM     14  C   UNL     1       2.897   2.398   0.000  0.00  0.00    +0.000 C 
ATOM     15  C   UNL     1       3.449   1.785   0.000  0.00  0.00    +0.000 C 
ATOM     16  C   UNL     1       3.037   1.071   0.000  0.00  0.00    +0.000 C 
ATOM     17  C   UNL     1       2.230   1.242   0.000  0.00  0.00    +0.000 C 
ENDBRANCH   4   7
BRANCH   1  18
ATOM     18  O   UNL     1      -3.572   3.712   0.000  0.00  0.00    +0.000 OA
BRANCH  18  20
ATOM     19  F   UNL     1      -5.001   2.888   0.000  0.00  0.00    +0.000 F 
ATOM     20  C   UNL     1      -4.287   3.300   0.000  0.00  0.00    +0.000 C 
ATOM     21  F   UNL     1      -3.874   2.586   0.000  0.00  0.00    +0.000 F 
ATOM     22  F   UNL     1      -4.699   4.014   0.000  0.00  0.00    +0.000 F 
ENDBRANCH  18  20
ENDBRANCH   1  18
TORSDOF 3
