REMARK  Name = 
REMARK  2 active torsions:
REMARK  status: ('A' for Active; 'I' for Inactive)
REMARK    1  A    between atoms: O_14  and  C_16
REMARK    2  A    between atoms: C_17  and  N_21
REMARK                            x       y       z     vdW  Elec       q    Type
REMARK                         _______ _______ _______ _____ _____    ______ ____
ROOT
ATOM      1  C   UNL     1      -1.786   1.856   0.000  0.00  0.00    +0.000 C 
ATOM      2  C   UNL     1      -0.357  -1.444   0.000  0.00  0.00    +0.000 C 
ATOM      3  C   UNL     1      -3.215  -1.444   0.000  0.00  0.00    +0.000 A 
ATOM      4  C   UNL     1      -2.501  -1.856   0.000  0.00  0.00    +0.000 A 
ATOM      5  C   UNL     1      -3.215  -0.619   0.000  0.00  0.00    +0.000 A 
ATOM      6  C   UNL     1      -1.786  -1.444   0.000  0.00  0.00    +0.000 A 
ATOM      7  N   UNL     1      -1.072   0.619   0.000  0.00  0.00    +0.000 NA
ATOM      8  N   UNL     1      -2.501   0.619   0.000  0.00  0.00    +0.000 NA
ATOM      9  C   UNL     1      -1.786   1.031   0.000  0.00  0.00    +0.000 A 
ATOM     10  C   UNL     1      -1.072  -0.206   0.000  0.00  0.00    +0.000 A 
ATOM     11  C   UNL     1      -2.501  -0.206   0.000  0.00  0.00    +0.000 A 
ATOM     12  C   UNL     1      -1.786  -0.619   0.000  0.00  0.00    +0.000 A 
ATOM     13  N   UNL     1      -0.357  -0.619   0.000  0.00  0.00    +0.000 N 
ENDROOT
BRANCH  13  19
ATOM     14  C   UNL     1       1.786  -0.206   0.000  0.00  0.00    +0.000 A 
ATOM     15  C   UNL     1       1.072   1.031   0.000  0.00  0.00    +0.000 A 
ATOM     16  C   UNL     1       1.072  -0.619   0.000  0.00  0.00    +0.000 A 
ATOM     17  C   UNL     1       0.357   0.619   0.000  0.00  0.00    +0.000 A 
ATOM     18  C   UNL     1       1.786   0.619   0.000  0.00  0.00    +0.000 A 
ATOM     19  C   UNL     1       0.357  -0.206   0.000  0.00  0.00    +0.000 A 
BRANCH  18  21
ATOM     20  C   UNL     1       3.215   0.619   0.000  0.00  0.00    +0.000 C 
ATOM     21  O   UNL     1       2.501   1.031   0.000  0.00  0.00    +0.000 OA
ENDBRANCH  18  21
ENDBRANCH  13  19
TORSDOF 2
