REMARK  Name = 
REMARK  4 active torsions:
REMARK  status: ('A' for Active; 'I' for Inactive)
REMARK    1  A    between atoms: C_8  and  C_10
REMARK    2  A    between atoms: C_10  and  C_11
REMARK    3  A    between atoms: C_13  and  C_18
REMARK    4  A    between atoms: C_22  and  C_24
REMARK                            x       y       z     vdW  Elec       q    Type
REMARK                         _______ _______ _______ _____ _____    ______ ____
ROOT
ATOM      1  C   UNL     1      -0.584   2.237   0.000  0.00  0.00    +0.000 A 
ATOM      2  C   UNL     1      -1.409   2.237   0.000  0.00  0.00    +0.000 A 
ATOM      3  C   UNL     1      -1.821   2.952   0.000  0.00  0.00    +0.000 A 
ATOM      4  C   UNL     1      -1.409   3.666   0.000  0.00  0.00    +0.000 A 
ATOM      5  C   UNL     1      -0.584   3.666   0.000  0.00  0.00    +0.000 A 
ATOM      6  C   UNL     1      -0.171   2.952   0.000  0.00  0.00    +0.000 A 
ATOM      7  F   UNL     1       0.654   2.952   0.000  0.00  0.00    +0.000 F 
ENDROOT
BRANCH   3   8
ATOM      8  C   UNL     1      -2.646   2.952   0.000  0.00  0.00    +0.000 C 
ATOM      9  C   UNL     1      -3.059   2.237   0.000  0.00  0.00    +0.000 C 
ATOM     10  C   UNL     1      -3.884   2.237   0.000  0.00  0.00    +0.000 C 
ATOM     11  C   UNL     1      -4.296   2.952   0.000  0.00  0.00    +0.000 C 
ATOM     12  C   UNL     1      -3.884   3.666   0.000  0.00  0.00    +0.000 C 
ATOM     13  O   UNL     1      -3.059   3.666   0.000  0.00  0.00    +0.000 OA
ATOM     14  O   UNL     1      -5.121   2.952   0.000  0.00  0.00    +0.000 OA
ATOM     15  O   UNL     1      -4.296   1.523   0.000  0.00  0.00    +0.000 OA
ATOM     16  O   UNL     1      -2.646   1.523   0.000  0.00  0.00    +0.000 OA
BRANCH  12  17
ATOM     17  C   UNL     1      -4.296   4.381   0.000  0.00  0.00    +0.000 C 
ATOM     18  O   UNL     1      -5.121   4.381   0.000  0.00  0.00    +0.000 OA
ENDBRANCH  12  17
ENDBRANCH   3   8
BRANCH   1  19
ATOM     19  C   UNL     1      -0.171   1.523   0.000  0.00  0.00    +0.000 C 
BRANCH  19  27
ATOM     20  C   UNL     1       3.352   1.935   0.000  0.00  0.00    +0.000 A 
ATOM     21  C   UNL     1       3.352   1.110   0.000  0.00  0.00    +0.000 A 
ATOM     22  C   UNL     1       2.638   0.698   0.000  0.00  0.00    +0.000 A 
ATOM     23  C   UNL     1       1.923   1.110   0.000  0.00  0.00    +0.000 A 
ATOM     24  C   UNL     1       1.923   1.935   0.000  0.00  0.00    +0.000 A 
ATOM     25  C   UNL     1       2.638   2.348   0.000  0.00  0.00    +0.000 A 
ATOM     26  C   UNL     1       1.139   2.190   0.000  0.00  0.00    +0.000 A 
ATOM     27  C   UNL     1       0.654   1.523   0.000  0.00  0.00    +0.000 A 
ATOM     28  S   UNL     1       1.139   0.856   0.000  0.00  0.00    +0.000 S 
ENDBRANCH  19  27
ENDBRANCH   1  19
TORSDOF 4
