REMARK  Name = 
REMARK  2 active torsions:
REMARK  status: ('A' for Active; 'I' for Inactive)
REMARK    1  A    between atoms: N_10  and  C_21
REMARK    2  A    between atoms: C_19  and  C_21
REMARK                            x       y       z     vdW  Elec       q    Type
REMARK                         _______ _______ _______ _____ _____    ______ ____
ROOT
ATOM      1  C   UNL     1       0.239  -0.653   0.000  0.00  0.00    +0.000 C 
ATOM      2  C   UNL     1      -0.529  -0.653   0.000  0.00  0.00    +0.000 A 
ATOM      3  C   UNL     1       0.618   0.002   0.000  0.00  0.00    +0.000 C 
ATOM      4  C   UNL     1      -0.948  -1.391   0.000  0.00  0.00    +0.000 A 
ATOM      5  C   UNL     1       0.608  -1.391   0.000  0.00  0.00    +0.000 C 
ATOM      6  O   UNL     1      -0.101  -1.918   0.000  0.00  0.00    +0.000 OA
ATOM      7  C   UNL     1       0.239   0.706   0.000  0.00  0.00    +0.000 C 
ATOM      8  C   UNL     1      -0.943  -0.018   0.000  0.00  0.00    +0.000 A 
ATOM      9  C   UNL     1       1.450   0.002   0.000  0.00  0.00    +0.000 C 
ATOM     10  N   UNL     1       0.756   1.282   0.000  0.00  0.00    +0.000 NA
ATOM     11  C   UNL     1      -0.529   0.706   0.000  0.00  0.00    +0.000 C 
ATOM     12  C   UNL     1       1.017  -0.515   0.000  0.00  0.00    +0.000 C 
ATOM     13  C   UNL     1       1.903  -0.677   0.000  0.00  0.00    +0.000 C 
ATOM     14  C   UNL     1       1.465  -1.391   0.000  0.00  0.00    +0.000 C 
ATOM     15  C   UNL     1      -1.755  -1.391   0.000  0.00  0.00    +0.000 A 
ATOM     16  C   UNL     1       1.371   0.814   0.000  0.00  0.00    +0.000 C 
ATOM     17  C   UNL     1      -1.755  -0.018   0.000  0.00  0.00    +0.000 A 
ATOM     18  C   UNL     1      -2.169  -0.677   0.000  0.00  0.00    +0.000 A 
ATOM     19  O   UNL     1      -2.213  -2.095   0.000  0.00  0.00    +0.000 OA
ATOM     20  O   UNL     1       1.888  -2.130   0.000  0.00  0.00    +0.000 OA
ENDROOT
BRANCH  10  21
ATOM     21  C   UNL     1       0.756   2.114   0.000  0.00  0.00    +0.000 C 
BRANCH  21  22
ATOM     22  C   UNL     1       1.494   2.513   0.000  0.00  0.00    +0.000 C 
ATOM     23  C   UNL     1       2.213   2.080   0.000  0.00  0.00    +0.000 C 
ENDBRANCH  21  22
ENDBRANCH  10  21
TORSDOF 2
