REMARK  Name = 
REMARK  4 active torsions:
REMARK  status: ('A' for Active; 'I' for Inactive)
REMARK    1  A    between atoms: C_4  and  C_5
REMARK    2  A    between atoms: C_5  and  O_6
REMARK    3  A    between atoms: O_6  and  P_7
REMARK    4  A    between atoms: C_12  and  N_15
REMARK                            x       y       z     vdW  Elec       q    Type
REMARK                         _______ _______ _______ _____ _____    ______ ____
ROOT
ATOM      1  O   UNL     1      -0.456  -2.456   0.000  0.00  0.00    +0.000 OA
ATOM      2  C   UNL     1      -0.793  -1.701   0.000  0.00  0.00    +0.000 C 
ATOM      3  C   UNL     1      -0.076  -1.293   0.000  0.00  0.00    +0.000 C 
ATOM      4  O   UNL     1      -0.250  -0.484   0.000  0.00  0.00    +0.000 OA
ATOM      5  C   UNL     1      -1.070  -0.397   0.000  0.00  0.00    +0.000 C 
ATOM      6  C   UNL     1      -1.402  -1.152   0.000  0.00  0.00    +0.000 C 
ATOM      7  O   UNL     1      -2.016  -1.701   0.000  0.00  0.00    +0.000 OA
ENDROOT
BRANCH   5   8
ATOM      8  N   UNL     1      -1.478   0.315   0.000  0.00  0.00    +0.000 N 
ATOM      9  N   UNL     1      -1.070   1.027   0.000  0.00  0.00    +0.000 NA
ATOM     10  C   UNL     1      -1.478   1.744   0.000  0.00  0.00    +0.000 A 
ATOM     11  C   UNL     1      -2.304   1.744   0.000  0.00  0.00    +0.000 A 
ATOM     12  O   UNL     1      -2.717   2.456   0.000  0.00  0.00    +0.000 OA
ATOM     13  N   UNL     1      -2.717   1.027   0.000  0.00  0.00    +0.000 NA
ATOM     14  C   UNL     1      -2.304   0.315   0.000  0.00  0.00    +0.000 A 
ATOM     15  O   UNL     1      -2.717  -0.397   0.000  0.00  0.00    +0.000 OA
ENDBRANCH   5   8
BRANCH   3  16
ATOM     16  C   UNL     1       0.744  -1.206   0.000  0.00  0.00    +0.000 C 
BRANCH  16  17
ATOM     17  O   UNL     1       1.076  -0.451   0.000  0.00  0.00    +0.000 OA
BRANCH  17  18
ATOM     18  P   UNL     1       1.896  -0.364   0.000  0.00  0.00    +0.000 P 
ATOM     19  O   UNL     1       1.983  -1.185   0.000  0.00  0.00    +0.000 OA
ATOM     20  O   UNL     1       1.809   0.456   0.000  0.00  0.00    +0.000 OA
ATOM     21  O   UNL     1       2.717  -0.277   0.000  0.00  0.00    +0.000 OA
ENDBRANCH  17  18
ENDBRANCH  16  17
ENDBRANCH   3  16
TORSDOF 4
