REMARK  Name = 
REMARK  4 active torsions:
REMARK  status: ('A' for Active; 'I' for Inactive)
REMARK    1  A    between atoms: C_2  and  O_4
REMARK    2  A    between atoms: O_4  and  C_5
REMARK    3  A    between atoms: C_5  and  C_6
REMARK    4  A    between atoms: C_6  and  C_8
REMARK                            x       y       z     vdW  Elec       q    Type
REMARK                         _______ _______ _______ _____ _____    ______ ____
ROOT
ATOM      1  C   UNL     1       4.815   0.694   0.000  0.00  0.00    +0.000 C 
ATOM      2  C   UNL     1       4.991  -0.112   0.000  0.00  0.00    +0.000 C 
ATOM      3  C   UNL     1       4.279  -0.528   0.000  0.00  0.00    +0.000 C 
ATOM      4  C   UNL     1       3.663   0.020   0.000  0.00  0.00    +0.000 C 
ATOM      5  C   UNL     1       3.994   0.776   0.000  0.00  0.00    +0.000 C 
ATOM      6  C   UNL     1       3.506   1.441   0.000  0.00  0.00    +0.000 C 
ATOM      7  C   UNL     1       2.686   1.350   0.000  0.00  0.00    +0.000 C 
ATOM      8  C   UNL     1       2.354   0.594   0.000  0.00  0.00    +0.000 C 
ATOM      9  C   UNL     1       2.843  -0.070   0.000  0.00  0.00    +0.000 C 
ATOM     10  C   UNL     1       2.512  -0.826   0.000  0.00  0.00    +0.000 C 
ATOM     11  C   UNL     1       1.692  -0.917   0.000  0.00  0.00    +0.000 C 
ATOM     12  C   UNL     1       1.203  -0.252   0.000  0.00  0.00    +0.000 C 
ATOM     13  C   UNL     1       0.383  -0.343   0.000  0.00  0.00    +0.000 C 
ATOM     14  C   UNL     1      -0.105   0.322   0.000  0.00  0.00    +0.000 C 
ATOM     15  O   UNL     1      -0.925   0.231   0.000  0.00  0.00    +0.000 OA
ATOM     16  C   UNL     1       0.226   1.077   0.000  0.00  0.00    +0.000 C 
ATOM     17  C   UNL     1       1.046   1.168   0.000  0.00  0.00    +0.000 C 
ATOM     18  C   UNL     1       1.534   0.503   0.000  0.00  0.00    +0.000 C 
ATOM     19  C   UNL     1       1.866   1.259   0.000  0.00  0.00    +0.000 C 
ATOM     20  F   UNL     1       1.361  -1.672   0.000  0.00  0.00    +0.000 F 
ATOM     21  O   UNL     1       2.197   2.014   0.000  0.00  0.00    +0.000 OA
ATOM     22  C   UNL     1       4.403   1.493   0.000  0.00  0.00    +0.000 C 
ATOM     23  O   UNL     1       5.812  -0.193   0.000  0.00  0.00    +0.000 OA
ATOM     24  C   UNL     1       6.144   0.562   0.000  0.00  0.00    +0.000 C 
ATOM     25  O   UNL     1       5.527   1.111   0.000  0.00  0.00    +0.000 OA
ATOM     26  C   UNL     1       6.932   0.320   0.000  0.00  0.00    +0.000 C 
ATOM     27  C   UNL     1       6.759   1.111   0.000  0.00  0.00    +0.000 C 
ENDROOT
BRANCH   1  28
ATOM     28  C   UNL     1       4.755   1.483   0.000  0.00  0.00    +0.000 C 
ATOM     29  O   UNL     1       3.853   1.751   0.000  0.00  0.00    +0.000 OA
BRANCH  28  30
ATOM     30  C   UNL     1       5.249   2.056   0.000  0.00  0.00    +0.000 C 
BRANCH  30  31
ATOM     31  O   UNL     1       5.073   2.862   0.000  0.00  0.00    +0.000 OA
BRANCH  31  33
ATOM     32  C   UNL     1       5.507   4.223   0.000  0.00  0.00    +0.000 C 
ATOM     33  C   UNL     1       5.683   3.417   0.000  0.00  0.00    +0.000 C 
ATOM     34  O   UNL     1       6.469   3.167   0.000  0.00  0.00    +0.000 OA
ENDBRANCH  31  33
ENDBRANCH  30  31
ENDBRANCH  28  30
ENDBRANCH   1  28
TORSDOF 4
