REMARK  Name = 
REMARK  5 active torsions:
REMARK  status: ('A' for Active; 'I' for Inactive)
REMARK    1  A    between atoms: O_5  and  C_28
REMARK    2  A    between atoms: O_5  and  C_31
REMARK    3  A    between atoms: C_13  and  C_21
REMARK    4  A    between atoms: C_21  and  C_28
REMARK    5  A    between atoms: C_31  and  C_32
REMARK                            x       y       z     vdW  Elec       q    Type
REMARK                         _______ _______ _______ _____ _____    ______ ____
ROOT
ATOM      1  F   UNL     1      -1.850  -1.752   0.000  0.00  0.00    +0.000 F 
ATOM      2  O   UNL     1       0.902   0.832   0.000  0.00  0.00    +0.000 OA
ATOM      3  O   UNL     1      -2.407   0.404   0.000  0.00  0.00    +0.000 OA
ATOM      4  O   UNL     1      -4.648  -2.598   0.000  0.00  0.00    +0.000 OA
ATOM      5  C   UNL     1      -0.409  -0.990   0.000  0.00  0.00    +0.000 C 
ATOM      6  C   UNL     1      -1.134  -1.371   0.000  0.00  0.00    +0.000 C 
ATOM      7  C   UNL     1      -0.409  -0.144   0.000  0.00  0.00    +0.000 C 
ATOM      8  C   UNL     1      -1.850  -0.990   0.000  0.00  0.00    +0.000 C 
ATOM      9  C   UNL     1       0.307   0.237   0.000  0.00  0.00    +0.000 C 
ATOM     10  C   UNL     1      -2.528  -1.371   0.000  0.00  0.00    +0.000 C 
ATOM     11  C   UNL     1      -1.850  -0.144   0.000  0.00  0.00    +0.000 C 
ATOM     12  C   UNL     1      -1.134   0.237   0.000  0.00  0.00    +0.000 C 
ATOM     13  C   UNL     1       1.032  -0.990   0.000  0.00  0.00    +0.000 C 
ATOM     14  C   UNL     1       1.032  -0.144   0.000  0.00  0.00    +0.000 C 
ATOM     15  C   UNL     1      -1.134  -2.170   0.000  0.00  0.00    +0.000 C 
ATOM     16  C   UNL     1      -2.528  -2.170   0.000  0.00  0.00    +0.000 C 
ATOM     17  C   UNL     1      -0.409   0.665   0.000  0.00  0.00    +0.000 C 
ATOM     18  C   UNL     1      -1.850  -2.598   0.000  0.00  0.00    +0.000 C 
ATOM     19  C   UNL     1      -3.253  -0.990   0.000  0.00  0.00    +0.000 C 
ATOM     20  C   UNL     1      -2.528  -0.562   0.000  0.00  0.00    +0.000 C 
ATOM     21  C   UNL     1      -3.253  -2.598   0.000  0.00  0.00    +0.000 C 
ATOM     22  C   UNL     1       1.738   0.283   0.000  0.00  0.00    +0.000 C 
ATOM     23  C   UNL     1      -3.969  -1.371   0.000  0.00  0.00    +0.000 C 
ATOM     24  C   UNL     1      -3.969  -2.170   0.000  0.00  0.00    +0.000 C 
ENDROOT
BRANCH   9  26
ATOM     25  O   UNL     1      -0.409   1.761   0.000  0.00  0.00    +0.000 OA
ATOM     26  C   UNL     1       0.307   1.343   0.000  0.00  0.00    +0.000 C 
BRANCH  26  27
ATOM     27  C   UNL     1       1.032   1.752   0.000  0.00  0.00    +0.000 C 
BRANCH  27  28
ATOM     28  O   UNL     1       1.757   1.334   0.000  0.00  0.00    +0.000 OA
BRANCH  28  30
ATOM     29  O   UNL     1       2.473   2.598   0.000  0.00  0.00    +0.000 OA
ATOM     30  C   UNL     1       2.473   1.743   0.000  0.00  0.00    +0.000 C 
BRANCH  30  32
ATOM     31  N   UNL     1       4.648   0.479   0.000  0.00  0.00    +0.000 NA
ATOM     32  C   UNL     1       3.188   1.325   0.000  0.00  0.00    +0.000 A 
ATOM     33  C   UNL     1       3.179   0.479   0.000  0.00  0.00    +0.000 A 
ATOM     34  C   UNL     1       3.923   1.743   0.000  0.00  0.00    +0.000 A 
ATOM     35  C   UNL     1       3.913   0.060   0.000  0.00  0.00    +0.000 A 
ATOM     36  C   UNL     1       4.648   1.325   0.000  0.00  0.00    +0.000 A 
ENDBRANCH  30  32
ENDBRANCH  28  30
ENDBRANCH  27  28
ENDBRANCH  26  27
ENDBRANCH   9  26
TORSDOF 5
