REMARK  Name = 
REMARK  12 active torsions:
REMARK  status: ('A' for Active; 'I' for Inactive)
REMARK    1  A    between atoms: C_2  and  O_4
REMARK    2  A    between atoms: O_4  and  C_5
REMARK    3  A    between atoms: C_16  and  C_17
REMARK    4  A    between atoms: C_19  and  C_20
REMARK    5  A    between atoms: C_21  and  C_22
REMARK    6  A    between atoms: C_24  and  C_25
REMARK    7  A    between atoms: C_26  and  C_27
REMARK    8  A    between atoms: C_28  and  C_30
REMARK    9  A    between atoms: C_31  and  C_32
REMARK   10  A    between atoms: C_33  and  C_35
REMARK   11  A    between atoms: C_35  and  C_37
REMARK   12  A    between atoms: C_37  and  C_38
REMARK                            x       y       z     vdW  Elec       q    Type
REMARK                         _______ _______ _______ _____ _____    ______ ____
ROOT
ATOM      1  C   UNL     1       1.448   0.859   0.000  0.00  0.00    +0.000 C 
ATOM      2  C   UNL     1       1.448   0.055   0.000  0.00  0.00    +0.000 C 
ATOM      3  C   UNL     1       0.743   1.280   0.000  0.00  0.00    +0.000 C 
ENDROOT
BRANCH   1   5
ATOM      4  C   UNL     1       2.871   0.844   0.000  0.00  0.00    +0.000 C 
ATOM      5  C   UNL     1       2.188   1.280   0.000  0.00  0.00    +0.000 C 
BRANCH   4   8
ATOM      6  C   UNL     1       4.315   0.844   0.000  0.00  0.00    +0.000 C 
ATOM      7  C   UNL     1       4.315  -0.018   0.000  0.00  0.00    +0.000 C 
ATOM      8  C   UNL     1       3.582   1.258   0.000  0.00  0.00    +0.000 C 
BRANCH   6  20
ATOM      9  C   UNL     1       7.895  -0.426   0.000  0.00  0.00    +0.000 C 
ATOM     10  C   UNL     1       7.895   0.403   0.000  0.00  0.00    +0.000 C 
ATOM     11  C   UNL     1       7.154   0.800   0.000  0.00  0.00    +0.000 C 
ATOM     12  O   UNL     1       6.535   1.419   0.000  0.00  0.00    +0.000 OA
ATOM     13  C   UNL     1       7.518   1.485   0.000  0.00  0.00    +0.000 C 
ATOM     14  C   UNL     1       6.465   0.388   0.000  0.00  0.00    +0.000 C 
ATOM     15  C   UNL     1       6.465  -0.426   0.000  0.00  0.00    +0.000 C 
ATOM     16  C   UNL     1       6.187  -1.251   0.000  0.00  0.00    +0.000 C 
ATOM     17  C   UNL     1       5.651  -0.627   0.000  0.00  0.00    +0.000 C 
ATOM     18  C   UNL     1       7.196  -0.832   0.000  0.00  0.00    +0.000 C 
ATOM     19  C   UNL     1       5.746   0.800   0.000  0.00  0.00    +0.000 C 
ATOM     20  C   UNL     1       5.034   1.236   0.000  0.00  0.00    +0.000 C 
BRANCH   9  21
ATOM     21  O   UNL     1       8.604  -0.847   0.000  0.00  0.00    +0.000 OA
BRANCH  21  23
ATOM     22  O   UNL     1       7.881  -2.043   0.000  0.00  0.00    +0.000 OA
ATOM     23  C   UNL     1       8.604  -1.636   0.000  0.00  0.00    +0.000 C 
ATOM     24  C   UNL     1       9.289  -2.094   0.000  0.00  0.00    +0.000 C 
ENDBRANCH  21  23
ENDBRANCH   9  21
ENDBRANCH   6  20
ENDBRANCH   4   8
ENDBRANCH   1   5
BRANCH   3  25
ATOM     25  C   UNL     1       0.046   0.873   0.000  0.00  0.00    +0.000 C 
ATOM     26  C   UNL     1      -0.672   1.280   0.000  0.00  0.00    +0.000 C 
BRANCH  26  27
ATOM     27  C   UNL     1      -1.403   0.859   0.000  0.00  0.00    +0.000 C 
ATOM     28  C   UNL     1      -2.122   1.280   0.000  0.00  0.00    +0.000 C 
ATOM     29  C   UNL     1      -2.122   2.080   0.000  0.00  0.00    +0.000 C 
BRANCH  28  30
ATOM     30  C   UNL     1      -2.812   0.859   0.000  0.00  0.00    +0.000 C 
ATOM     31  C   UNL     1      -3.560   1.280   0.000  0.00  0.00    +0.000 C 
BRANCH  31  32
ATOM     32  C   UNL     1      -4.264   0.873   0.000  0.00  0.00    +0.000 C 
ATOM     33  C   UNL     1      -5.005   1.280   0.000  0.00  0.00    +0.000 C 
ATOM     34  C   UNL     1      -5.005   2.094   0.000  0.00  0.00    +0.000 C 
BRANCH  33  35
ATOM     35  C   UNL     1      -5.724   0.873   0.000  0.00  0.00    +0.000 C 
ATOM     36  O   UNL     1      -5.724   0.011   0.000  0.00  0.00    +0.000 OA
BRANCH  35  37
ATOM     37  C   UNL     1      -6.435   1.280   0.000  0.00  0.00    +0.000 C 
BRANCH  37  38
ATOM     38  C   UNL     1      -7.169   0.844   0.000  0.00  0.00    +0.000 C 
ATOM     39  C   UNL     1      -7.873   1.280   0.000  0.00  0.00    +0.000 C 
ATOM     40  C   UNL     1      -7.385   2.065   0.000  0.00  0.00    +0.000 C 
ATOM     41  C   UNL     1      -8.350   2.006   0.000  0.00  0.00    +0.000 C 
ATOM     42  C   UNL     1      -8.585   0.844   0.000  0.00  0.00    +0.000 C 
ATOM     43  C   UNL     1      -8.585   0.026   0.000  0.00  0.00    +0.000 C 
ATOM     44  O   UNL     1      -9.289  -0.396   0.000  0.00  0.00    +0.000 OA
ATOM     45  C   UNL     1      -7.873  -0.367   0.000  0.00  0.00    +0.000 C 
ATOM     46  C   UNL     1      -7.169   0.055   0.000  0.00  0.00    +0.000 C 
ATOM     47  O   UNL     1      -6.435   0.518   0.000  0.00  0.00    +0.000 OA
ATOM     48  C   UNL     1      -6.589  -0.506   0.000  0.00  0.00    +0.000 C 
ENDBRANCH  37  38
ENDBRANCH  35  37
ENDBRANCH  33  35
ENDBRANCH  31  32
ENDBRANCH  28  30
ENDBRANCH  26  27
ENDBRANCH   3  25
TORSDOF 12
