REMARK  Name = 
REMARK  21 active torsions:
REMARK  status: ('A' for Active; 'I' for Inactive)
REMARK    1  A    between atoms: C_2  and  C_3
REMARK    2  A    between atoms: C_3  and  C_5
REMARK    3  A    between atoms: C_5  and  C_6
REMARK    4  A    between atoms: C_5  and  N_38
REMARK    5  A    between atoms: C_6  and  C_7
REMARK    6  A    between atoms: C_6  and  O_36
REMARK    7  A    between atoms: C_7  and  C_8
REMARK    8  A    between atoms: C_14  and  C_15
REMARK    9  A    between atoms: C_15  and  C_16
REMARK   10  A    between atoms: C_15  and  O_34
REMARK   11  A    between atoms: C_16  and  C_18
REMARK   12  A    between atoms: N_20  and  C_21
REMARK   13  A    between atoms: C_21  and  C_22
REMARK   14  A    between atoms: C_21  and  C_29
REMARK   15  A    between atoms: C_22  and  C_23
REMARK   16  A    between atoms: C_40  and  C_42
REMARK   17  A    between atoms: C_42  and  C_43
REMARK   18  A    between atoms: C_42  and  N_46
REMARK   19  A    between atoms: C_47  and  C_49
REMARK   20  A    between atoms: C_49  and  C_50
REMARK   21  A    between atoms: C_49  and  N_53
REMARK                            x       y       z     vdW  Elec       q    Type
REMARK                         _______ _______ _______ _____ _____    ______ ____
ROOT
ATOM      1  C   UNL     1       4.310  -5.180   0.000  0.00  0.00    +0.000 C 
ATOM      2  O   UNL     1       4.154  -5.990   0.000  0.00  0.00    +0.000 OA
ATOM      3  N   UNL     1       3.686  -4.640   0.000  0.00  0.00    +0.000 N 
ATOM      4  C   UNL     1       2.883  -4.827   0.000  0.00  0.00    +0.000 C 
ATOM      5  C   UNL     1       2.457  -4.121   0.000  0.00  0.00    +0.000 C 
ATOM      6  C   UNL     1       2.997  -3.497   0.000  0.00  0.00    +0.000 C 
ATOM      7  C   UNL     1       3.757  -3.818   0.000  0.00  0.00    +0.000 C 
ENDROOT
BRANCH   1   8
ATOM      8  C   UNL     1       5.090  -4.910   0.000  0.00  0.00    +0.000 C 
BRANCH   8   9
ATOM      9  C   UNL     1       5.713  -5.450   0.000  0.00  0.00    +0.000 C 
BRANCH   9  10
ATOM     10  O   UNL     1       5.557  -6.260   0.000  0.00  0.00    +0.000 OA
ATOM     11  C   UNL     1       4.778  -6.530   0.000  0.00  0.00    +0.000 C 
ENDBRANCH   9  10
BRANCH   9  12
ATOM     12  C   UNL     1       6.493  -5.180   0.000  0.00  0.00    +0.000 C 
BRANCH  12  13
ATOM     13  N   UNL     1       7.116  -5.720   0.000  0.00  0.00    +0.000 N 
ATOM     14  C   UNL     1       6.960  -6.530   0.000  0.00  0.00    +0.000 C 
ATOM     15  C   UNL     1       7.896  -5.450   0.000  0.00  0.00    +0.000 C 
ATOM     16  O   UNL     1       8.052  -4.640   0.000  0.00  0.00    +0.000 OA
BRANCH  15  17
ATOM     17  C   UNL     1       8.520  -5.990   0.000  0.00  0.00    +0.000 C 
BRANCH  17  18
ATOM     18  N   UNL     1       9.299  -5.720   0.000  0.00  0.00    +0.000 NA
ATOM     19  C   UNL     1       9.923  -6.260   0.000  0.00  0.00    +0.000 C 
ATOM     20  O   UNL     1       9.767  -7.070   0.000  0.00  0.00    +0.000 OA
BRANCH  19  21
ATOM     21  C   UNL     1      10.702  -5.990   0.000  0.00  0.00    +0.000 C 
BRANCH  21  22
ATOM     22  N   UNL     1      10.858  -5.180   0.000  0.00  0.00    +0.000 NA
ATOM     23  C   UNL     1      10.235  -4.640   0.000  0.00  0.00    +0.000 C 
ATOM     24  C   UNL     1      11.638  -4.910   0.000  0.00  0.00    +0.000 C 
ENDBRANCH  21  22
BRANCH  21  25
ATOM     25  C   UNL     1      11.326  -6.530   0.000  0.00  0.00    +0.000 C 
ATOM     26  C   UNL     1      12.105  -6.260   0.000  0.00  0.00    +0.000 C 
ATOM     27  C   UNL     1      11.170  -7.340   0.000  0.00  0.00    +0.000 C 
ENDBRANCH  21  25
ENDBRANCH  19  21
ENDBRANCH  17  18
BRANCH  17  28
ATOM     28  C   UNL     1       8.364  -6.800   0.000  0.00  0.00    +0.000 C 
ATOM     29  C   UNL     1       8.987  -7.340   0.000  0.00  0.00    +0.000 C 
ATOM     30  C   UNL     1       7.584  -7.070   0.000  0.00  0.00    +0.000 C 
ENDBRANCH  17  28
ENDBRANCH  15  17
ENDBRANCH  12  13
BRANCH  12  31
ATOM     31  C   UNL     1       6.649  -4.370   0.000  0.00  0.00    +0.000 C 
ATOM     32  C   UNL     1       6.025  -3.830   0.000  0.00  0.00    +0.000 C 
BRANCH  31  34
ATOM     33  C   UNL     1       7.584  -3.290   0.000  0.00  0.00    +0.000 C 
ATOM     34  C   UNL     1       7.428  -4.100   0.000  0.00  0.00    +0.000 C 
ENDBRANCH  31  34
ENDBRANCH  12  31
ENDBRANCH   9  12
ENDBRANCH   8   9
ENDBRANCH   1   8
BRANCH   7  35
ATOM     35  C   UNL     1       4.463  -3.392   0.000  0.00  0.00    +0.000 C 
BRANCH  35  36
ATOM     36  O   UNL     1       5.185  -3.790   0.000  0.00  0.00    +0.000 OA
ATOM     37  C   UNL     1       5.892  -3.364   0.000  0.00  0.00    +0.000 C 
ENDBRANCH  35  36
BRANCH  35  38
ATOM     38  C   UNL     1       4.447  -2.567   0.000  0.00  0.00    +0.000 C 
ATOM     39  C   UNL     1       3.725  -2.168   0.000  0.00  0.00    +0.000 C 
BRANCH  38  40
ATOM     40  C   UNL     1       5.154  -2.141   0.000  0.00  0.00    +0.000 C 
ATOM     41  O   UNL     1       5.876  -2.539   0.000  0.00  0.00    +0.000 OA
ATOM     42  N   UNL     1       5.138  -1.316   0.000  0.00  0.00    +0.000 NA
BRANCH  42  43
ATOM     43  C   UNL     1       5.844  -0.889   0.000  0.00  0.00    +0.000 C 
BRANCH  43  44
ATOM     44  C   UNL     1       6.566  -1.288   0.000  0.00  0.00    +0.000 A 
ATOM     45  N   UNL     1       6.668  -2.107   0.000  0.00  0.00    +0.000 NA
ATOM     46  C   UNL     1       7.478  -2.263   0.000  0.00  0.00    +0.000 A 
ATOM     47  C   UNL     1       7.877  -1.540   0.000  0.00  0.00    +0.000 A 
ATOM     48  S   UNL     1       7.313  -0.938   0.000  0.00  0.00    +0.000 S 
ENDBRANCH  43  44
BRANCH  43  49
ATOM     49  C   UNL     1       5.828  -0.065   0.000  0.00  0.00    +0.000 C 
BRANCH  49  50
ATOM     50  C   UNL     1       6.534   0.361   0.000  0.00  0.00    +0.000 A 
ATOM     51  C   UNL     1       6.518   1.186   0.000  0.00  0.00    +0.000 A 
ATOM     52  C   UNL     1       7.225   1.613   0.000  0.00  0.00    +0.000 A 
ATOM     53  C   UNL     1       7.947   1.214   0.000  0.00  0.00    +0.000 A 
ATOM     54  C   UNL     1       7.963   0.389   0.000  0.00  0.00    +0.000 A 
ATOM     55  C   UNL     1       7.257  -0.037   0.000  0.00  0.00    +0.000 A 
ENDBRANCH  49  50
ENDBRANCH  43  49
ENDBRANCH  42  43
ENDBRANCH  38  40
ENDBRANCH  35  38
ENDBRANCH   7  35
TORSDOF 21
