REMARK  Name = 
REMARK  5 active torsions:
REMARK  status: ('A' for Active; 'I' for Inactive)
REMARK    1  A    between atoms: C_3  and  C_18
REMARK    2  A    between atoms: C_5  and  O_7
REMARK    3  A    between atoms: O_7  and  C_8
REMARK    4  A    between atoms: C_11  and  C_14
REMARK    5  A    between atoms: N_27  and  C_28
REMARK                            x       y       z     vdW  Elec       q    Type
REMARK                         _______ _______ _______ _____ _____    ______ ____
ROOT
ATOM      1  C   UNL     1       0.715  -6.188   0.000  0.00  0.00    +0.000 A 
ATOM      2  C   UNL     1       0.000  -6.600   0.000  0.00  0.00    +0.000 A 
ATOM      3  C   UNL     1      -0.715  -6.188   0.000  0.00  0.00    +0.000 A 
ATOM      4  C   UNL     1      -0.715  -5.362   0.000  0.00  0.00    +0.000 A 
ATOM      5  C   UNL     1       0.000  -4.950   0.000  0.00  0.00    +0.000 A 
ATOM      6  C   UNL     1       0.715  -5.362   0.000  0.00  0.00    +0.000 A 
ENDROOT
BRANCH   3   7
ATOM      7  C   UNL     1      -1.429  -6.600   0.000  0.00  0.00    +0.000 C 
ATOM      8  C   UNL     1      -1.429  -7.425   0.000  0.00  0.00    +0.000 C 
ATOM      9  C   UNL     1      -0.715  -7.838   0.000  0.00  0.00    +0.000 C 
ATOM     10  C   UNL     1      -0.715  -8.662   0.000  0.00  0.00    +0.000 C 
ATOM     11  N   UNL     1      -1.429  -9.075   0.000  0.00  0.00    +0.000 N 
ATOM     12  C   UNL     1      -2.143  -8.662   0.000  0.00  0.00    +0.000 C 
ATOM     13  C   UNL     1      -2.143  -7.838   0.000  0.00  0.00    +0.000 C 
ATOM     14  C   UNL     1      -1.429  -9.900   0.000  0.00  0.00    +0.000 C 
ATOM     15  O   UNL     1      -2.143 -10.312   0.000  0.00  0.00    +0.000 OA
ATOM     16  N   UNL     1      -0.715 -10.312   0.000  0.00  0.00    +0.000 NA
BRANCH  16  17
ATOM     17  C   UNL     1      -0.715 -11.137   0.000  0.00  0.00    +0.000 A 
ATOM     18  C   UNL     1       0.000 -11.550   0.000  0.00  0.00    +0.000 A 
ATOM     19  C   UNL     1       0.000 -12.375   0.000  0.00  0.00    +0.000 A 
ATOM     20  C   UNL     1      -0.715 -12.787   0.000  0.00  0.00    +0.000 A 
ATOM     21  N   UNL     1      -1.429 -12.375   0.000  0.00  0.00    +0.000 NA
ATOM     22  N   UNL     1      -1.429 -11.550   0.000  0.00  0.00    +0.000 NA
ENDBRANCH  16  17
ENDBRANCH   3   7
BRANCH   5  23
ATOM     23  O   UNL     1       0.000  -4.125   0.000  0.00  0.00    +0.000 OA
BRANCH  23  24
ATOM     24  C   UNL     1       0.715  -3.712   0.000  0.00  0.00    +0.000 A 
ATOM     25  C   UNL     1       0.715  -2.888   0.000  0.00  0.00    +0.000 A 
ATOM     26  C   UNL     1       1.429  -2.475   0.000  0.00  0.00    +0.000 A 
ATOM     27  C   UNL     1       2.143  -2.888   0.000  0.00  0.00    +0.000 A 
ATOM     28  C   UNL     1       2.143  -3.712   0.000  0.00  0.00    +0.000 A 
ATOM     29  N   UNL     1       1.429  -4.125   0.000  0.00  0.00    +0.000 NA
BRANCH  27  30
ATOM     30  C   UNL     1       2.858  -2.475   0.000  0.00  0.00    +0.000 C 
ATOM     31  F   UNL     1       3.572  -2.062   0.000  0.00  0.00    +0.000 F 
ATOM     32  F   UNL     1       2.445  -1.760   0.000  0.00  0.00    +0.000 F 
ATOM     33  F   UNL     1       3.270  -3.189   0.000  0.00  0.00    +0.000 F 
ENDBRANCH  27  30
ENDBRANCH  23  24
ENDBRANCH   5  23
TORSDOF 5
