REMARK  Name = 
REMARK  33 active torsions:
REMARK  status: ('A' for Active; 'I' for Inactive)
REMARK    1  A    between atoms: C_1  and  CA_4
REMARK    2  A    between atoms: C_7  and  CA_10
REMARK    3  A    between atoms: N_9  and  CA_10
REMARK    4  A    between atoms: CA_10  and  CB_11
REMARK    5  A    between atoms: CB_11  and  CG_12
REMARK    6  A    between atoms: C_17  and  CA_20
REMARK    7  A    between atoms: N_19  and  CA_20
REMARK    8  A    between atoms: CA_20  and  CB_21
REMARK    9  A    between atoms: CB_21  and  CG_22
REMARK   10  A    between atoms: C_31  and  C_34
REMARK   11  A    between atoms: N_33  and  C_34
REMARK   12  A    between atoms: C_34  and  C_35
REMARK   13  A    between atoms: C_37  and  C_40
REMARK   14  A    between atoms: N_39  and  C_40
REMARK   15  A    between atoms: C_40  and  C_41
REMARK   16  A    between atoms: C_41  and  C_42
REMARK   17  A    between atoms: C_49  and  C_52
REMARK   18  A    between atoms: N_51  and  C_52
REMARK   19  A    between atoms: C_52  and  C_53
REMARK   20  A    between atoms: C_53  and  C_54
REMARK   21  A    between atoms: C_60  and  C_63
REMARK   22  A    between atoms: N_62  and  C_63
REMARK   23  A    between atoms: C_63  and  C_64
REMARK   24  A    between atoms: C_64  and  C_65
REMARK   25  A    between atoms: C_68  and  C_71
REMARK   26  A    between atoms: N_70  and  C_71
REMARK   27  A    between atoms: C_71  and  C_72
REMARK   28  A    between atoms: C_72  and  C_73
REMARK   29  A    between atoms: C_73  and  C_74
REMARK   30  A    between atoms: C_74  and  N_75
REMARK   31  A    between atoms: C_79  and  C_82
REMARK   32  A    between atoms: C_86  and  C_89
REMARK   33  A    between atoms: N_88  and  C_89
REMARK                            x       y       z     vdW  Elec       q    Type
REMARK                         _______ _______ _______ _____ _____    ______ ____
ROOT
ATOM      1  C   UNK A   4       0.870   0.164   0.000  0.00  0.00    +0.000 C 
ATOM      2  O   UNK A   4       0.870   0.989   0.000  0.00  0.00    +0.000 OA
ATOM      3  N   UNK A   4       1.584  -0.249   0.000  0.00  0.00    +0.000 NA
ENDROOT
BRANCH   3   4
ATOM      4  C   UNK A   4       2.299   0.164   0.000  0.00  0.00    +0.000 C 
BRANCH   4   5
ATOM      5  C   UNK A   4       3.013  -0.249   0.000  0.00  0.00    +0.000 C 
ATOM      6  O   UNK A   4       3.013  -1.074   0.000  0.00  0.00    +0.000 OA
ATOM      7  N   UNK A   4       3.728   0.164   0.000  0.00  0.00    +0.000 NA
BRANCH   7   8
ATOM      8  C   UNK A   4       4.442  -0.249   0.000  0.00  0.00    +0.000 C 
BRANCH   8   9
ATOM      9  C   UNK A   4       5.156   0.164   0.000  0.00  0.00    +0.000 C 
ATOM     10  O   UNK A   4       5.156   0.989   0.000  0.00  0.00    +0.000 OA
ATOM     11  N   UNK A   4       5.871  -0.249   0.000  0.00  0.00    +0.000 NA
BRANCH  11  12
ATOM     12  C   UNK A   4       6.585   0.164   0.000  0.00  0.00    +0.000 C 
BRANCH  12  13
ATOM     13  C   UNK A   4       7.300  -0.249   0.000  0.00  0.00    +0.000 C 
ATOM     14  O   UNK A   4       7.300  -1.074   0.000  0.00  0.00    +0.000 OA
ATOM     15  N   UNK A   4       8.014   0.164   0.000  0.00  0.00    +0.000 N 
ATOM     16  C   UNK A   4       8.768  -0.172   0.000  0.00  0.00    +0.000 C 
ATOM     17  C   UNK A   4       9.320   0.441   0.000  0.00  0.00    +0.000 C 
ATOM     18  C   UNK A   4       8.908   1.156   0.000  0.00  0.00    +0.000 C 
ATOM     19  C   UNK A   4       8.101   0.984   0.000  0.00  0.00    +0.000 C 
BRANCH  16  20
ATOM     20  C   UNK A   4       8.940  -0.979   0.000  0.00  0.00    +0.000 C 
ATOM     21  O   UNK A   4       9.724  -1.234   0.000  0.00  0.00    +0.000 OA
ATOM     22  N   UNK A   4       8.326  -1.531   0.000  0.00  0.00    +0.000 NA
BRANCH  22  23
ATOM     23  C   UNK A   4       8.498  -2.338   0.000  0.00  0.00    +0.000 C 
BRANCH  23  24
ATOM     24  C   UNK A   4       7.915  -2.921   0.000  0.00  0.00    +0.000 C 
ATOM     25  O   UNK A   4       8.128  -3.718   0.000  0.00  0.00    +0.000 OA
ATOM     26  N   UNK A   4       7.118  -2.708   0.000  0.00  0.00    +0.000 NA
ENDBRANCH  23  24
ENDBRANCH  22  23
ENDBRANCH  16  20
ENDBRANCH  12  13
BRANCH  12  27
ATOM     27  C   UNK A   4       6.585   0.989   0.000  0.00  0.00    +0.000 C 
BRANCH  27  28
ATOM     28  C   UNK A   4       7.300   1.401   0.000  0.00  0.00    +0.000 C 
BRANCH  28  29
ATOM     29  C   UNK A   4       7.300   2.226   0.000  0.00  0.00    +0.000 C 
BRANCH  29  30
ATOM     30  N   UNK A   4       8.014   2.639   0.000  0.00  0.00    +0.000 NA
ATOM     31  C   UNK A   4       8.014   3.463   0.000  0.00  0.00    +0.000 C 
ATOM     32  N   UNK A   4       7.300   3.876   0.000  0.00  0.00    +0.000 NA
ATOM     33  N   UNK A   4       8.729   3.876   0.000  0.00  0.00    +0.000 NA
ENDBRANCH  29  30
ENDBRANCH  28  29
ENDBRANCH  27  28
ENDBRANCH  12  27
ENDBRANCH  11  12
ENDBRANCH   8   9
BRANCH   8  34
ATOM     34  C   UNK A   4       4.442  -1.074   0.000  0.00  0.00    +0.000 C 
BRANCH  34  35
ATOM     35  C   UNK A   4       5.156  -1.486   0.000  0.00  0.00    +0.000 C 
ATOM     36  C   UNK A   4       5.871  -1.074   0.000  0.00  0.00    +0.000 C 
ATOM     37  C   UNK A   4       5.156  -2.311   0.000  0.00  0.00    +0.000 C 
ENDBRANCH  34  35
ENDBRANCH   8  34
ENDBRANCH   7   8
ENDBRANCH   4   5
BRANCH   4  38
ATOM     38  C   UNK A   4       2.299   0.989   0.000  0.00  0.00    +0.000 C 
BRANCH  38  39
ATOM     39  C   UNK A   4       3.013   1.401   0.000  0.00  0.00    +0.000 A 
ATOM     40  C   UNK A   4       3.728   0.989   0.000  0.00  0.00    +0.000 A 
ATOM     41  C   UNK A   4       4.442   1.401   0.000  0.00  0.00    +0.000 A 
ATOM     42  C   UNK A   4       4.442   2.226   0.000  0.00  0.00    +0.000 A 
ATOM     43  C   UNK A   4       3.728   2.639   0.000  0.00  0.00    +0.000 A 
ATOM     44  C   UNK A   4       3.013   2.226   0.000  0.00  0.00    +0.000 A 
ATOM     45  C   UNK A   4       5.156   2.639   0.000  0.00  0.00    +0.000 A 
ATOM     46  C   UNK A   4       5.156   3.463   0.000  0.00  0.00    +0.000 A 
ATOM     47  C   UNK A   4       4.442   3.876   0.000  0.00  0.00    +0.000 A 
ATOM     48  C   UNK A   4       3.728   3.463   0.000  0.00  0.00    +0.000 A 
ENDBRANCH  38  39
ENDBRANCH   4  38
ENDBRANCH   3   4
BRANCH   1  49
ATOM     49  C   UNK A   4       0.155  -0.249   0.000  0.00  0.00    +0.000 C 
BRANCH  49  52
ATOM     50  C   UNK A   4      -1.274  -0.249   0.000  0.00  0.00    +0.000 C 
ATOM     51  O   UNK A   4      -1.274  -1.074   0.000  0.00  0.00    +0.000 OA
ATOM     52  N   UNK A   4      -0.559   0.164   0.000  0.00  0.00    +0.000 NA
BRANCH  50  53
ATOM     53  C   UNK A   4      -1.988   0.164   0.000  0.00  0.00    +0.000 C 
BRANCH  53  56
ATOM     54  C   TRP A   3      -3.417   0.164   0.000  0.00  0.00    +0.000 C 
ATOM     55  O   TRP A   3      -3.417   0.989   0.000  0.00  0.00    +0.000 OA
ATOM     56  N   UNK A   4      -2.703  -0.249   0.000  0.00  0.00    +0.000 NA
BRANCH  54  57
ATOM     57  CA  TRP A   3      -4.132  -0.249   0.000  0.00  0.00    +0.000 C 
BRANCH  57  60
ATOM     58  C   HIS A   2      -5.560  -0.249   0.000  0.00  0.00    +0.000 C 
ATOM     59  O   HIS A   2      -5.560  -1.074   0.000  0.00  0.00    +0.000 OA
ATOM     60  N   TRP A   3      -4.846   0.164   0.000  0.00  0.00    +0.000 NA
BRANCH  58  61
ATOM     61  CA  HIS A   2      -6.275   0.164   0.000  0.00  0.00    +0.000 C 
BRANCH  61  64
ATOM     62  C   GLN A   1      -7.704   0.164   0.000  0.00  0.00    +0.000 C 
ATOM     63  O   GLN A   1      -7.704   0.989   0.000  0.00  0.00    +0.000 OA
ATOM     64  N   HIS A   2      -6.989  -0.249   0.000  0.00  0.00    +0.000 NA
BRANCH  62  66
ATOM     65  N   GLN A   1      -8.505  -1.069   0.000  0.00  0.00    +0.000 NA
ATOM     66  CA  GLN A   1      -8.418  -0.249   0.000  0.00  0.00    +0.000 C 
ATOM     67  CB  GLN A   1      -9.172   0.086   0.000  0.00  0.00    +0.000 C 
ATOM     68  CG  GLN A   1      -9.724  -0.526   0.000  0.00  0.00    +0.000 C 
ATOM     69  CD  GLN A   1      -9.312  -1.241   0.000  0.00  0.00    +0.000 C 
ATOM     70  OE1 GLN A   1      -9.647  -1.994   0.000  0.00  0.00    +0.000 OA
ENDBRANCH  62  66
ENDBRANCH  61  64
BRANCH  61  71
ATOM     71  CB  HIS A   2      -6.275   0.989   0.000  0.00  0.00    +0.000 C 
BRANCH  71  72
ATOM     72  CG  HIS A   2      -5.560   1.401   0.000  0.00  0.00    +0.000 A 
ATOM     73  CD2 HIS A   2      -5.474   2.221   0.000  0.00  0.00    +0.000 A 
ATOM     74  NE2 HIS A   2      -4.667   2.393   0.000  0.00  0.00    +0.000 NA
ATOM     75  CE1 HIS A   2      -4.255   1.679   0.000  0.00  0.00    +0.000 A 
ATOM     76  ND1 HIS A   2      -4.807   1.065   0.000  0.00  0.00    +0.000 NA
ENDBRANCH  71  72
ENDBRANCH  61  71
ENDBRANCH  58  61
ENDBRANCH  57  60
BRANCH  57  77
ATOM     77  CB  TRP A   3      -4.132  -1.074   0.000  0.00  0.00    +0.000 C 
BRANCH  77  78
ATOM     78  CG  TRP A   3      -3.417  -1.486   0.000  0.00  0.00    +0.000 A 
ATOM     79  CD1 TRP A   3      -2.663  -1.151   0.000  0.00  0.00    +0.000 A 
ATOM     80  NE1 TRP A   3      -2.111  -1.764   0.000  0.00  0.00    +0.000 NA
ATOM     81  CE2 TRP A   3      -2.524  -2.478   0.000  0.00  0.00    +0.000 A 
ATOM     82  CZ2 TRP A   3      -2.269  -3.263   0.000  0.00  0.00    +0.000 A 
ATOM     83  CH2 TRP A   3      -2.821  -3.876   0.000  0.00  0.00    +0.000 A 
ATOM     84  CZ3 TRP A   3      -3.628  -3.705   0.000  0.00  0.00    +0.000 A 
ATOM     85  CE3 TRP A   3      -3.883  -2.920   0.000  0.00  0.00    +0.000 A 
ATOM     86  CD2 TRP A   3      -3.331  -2.307   0.000  0.00  0.00    +0.000 A 
ENDBRANCH  77  78
ENDBRANCH  57  77
ENDBRANCH  54  57
ENDBRANCH  53  56
BRANCH  53  87
ATOM     87  C   UNK A   4      -1.988   0.989   0.000  0.00  0.00    +0.000 C 
ATOM     88  O   UNK A   4      -2.703   1.401   0.000  0.00  0.00    +0.000 OA
ENDBRANCH  53  87
ENDBRANCH  50  53
ENDBRANCH  49  52
BRANCH  49  89
ATOM     89  C   UNK A   4       0.155  -1.074   0.000  0.00  0.00    +0.000 C 
BRANCH  89  90
ATOM     90  C   UNK A   4       0.870  -1.486   0.000  0.00  0.00    +0.000 A 
ATOM     91  C   UNK A   4       0.870  -2.311   0.000  0.00  0.00    +0.000 A 
ATOM     92  C   UNK A   4       1.584  -2.724   0.000  0.00  0.00    +0.000 A 
ATOM     93  C   UNK A   4       2.299  -2.311   0.000  0.00  0.00    +0.000 A 
ATOM     94  O   UNK A   4       3.013  -2.724   0.000  0.00  0.00    +0.000 OA
ATOM     95  C   UNK A   4       2.299  -1.486   0.000  0.00  0.00    +0.000 A 
ATOM     96  C   UNK A   4       1.584  -1.074   0.000  0.00  0.00    +0.000 A 
ENDBRANCH  89  90
ENDBRANCH  49  89
ENDBRANCH   1  49
TORSDOF 33
