REMARK  Name = 
REMARK  5 active torsions:
REMARK  status: ('A' for Active; 'I' for Inactive)
REMARK    1  A    between atoms: C_3  and  C_12
REMARK    2  A    between atoms: N_5  and  C_27
REMARK    3  A    between atoms: C_8  and  C_15
REMARK    4  A    between atoms: C_12  and  C_13
REMARK    5  A    between atoms: C_27  and  C_28
REMARK                            x       y       z     vdW  Elec       q    Type
REMARK                         _______ _______ _______ _____ _____    ______ ____
ROOT
ATOM      1  C   UNL     1      -0.512   1.031   0.000  0.00  0.00    +0.000 A 
ATOM      2  C   UNL     1      -1.227   1.444   0.000  0.00  0.00    +0.000 C 
ATOM      3  C   UNL     1      -1.941   1.031   0.000  0.00  0.00    +0.000 C 
ATOM      4  C   UNL     1      -1.941   0.206   0.000  0.00  0.00    +0.000 C 
ATOM      5  N   UNL     1      -1.227  -0.206   0.000  0.00  0.00    +0.000 N 
ATOM      6  C   UNL     1      -0.512   0.206   0.000  0.00  0.00    +0.000 A 
ATOM      7  N   UNL     1       0.272  -0.049   0.000  0.00  0.00    +0.000 NA
ATOM      8  C   UNL     1       0.757   0.619   0.000  0.00  0.00    +0.000 A 
ATOM      9  N   UNL     1       0.272   1.286   0.000  0.00  0.00    +0.000 NA
ATOM     10  O   UNL     1      -1.227   2.269   0.000  0.00  0.00    +0.000 OA
ATOM     11  O   UNL     1      -2.656  -0.206   0.000  0.00  0.00    +0.000 OA
ENDROOT
BRANCH   8  12
ATOM     12  C   UNL     1       1.582   0.619   0.000  0.00  0.00    +0.000 C 
ATOM     13  C   UNL     1       2.249   1.104   0.000  0.00  0.00    +0.000 C 
ATOM     14  C   UNL     1       1.837  -0.166   0.000  0.00  0.00    +0.000 C 
ATOM     15  C   UNL     1       2.662  -0.166   0.000  0.00  0.00    +0.000 C 
ATOM     16  C   UNL     1       2.917   0.619   0.000  0.00  0.00    +0.000 C 
ATOM     17  C   UNL     1       2.726  -0.810   0.000  0.00  0.00    +0.000 C 
ATOM     18  C   UNL     1       3.309  -0.226   0.000  0.00  0.00    +0.000 C 
ATOM     19  O   UNL     1       3.523  -1.023   0.000  0.00  0.00    +0.000 OA
ENDBRANCH   8  12
BRANCH   3  20
ATOM     20  C   UNL     1      -2.656   1.444   0.000  0.00  0.00    +0.000 C 
BRANCH  20  21
ATOM     21  C   UNL     1      -3.370   1.031   0.000  0.00  0.00    +0.000 C 
ATOM     22  C   UNL     1      -4.085   1.444   0.000  0.00  0.00    +0.000 C 
ENDBRANCH  20  21
ENDBRANCH   3  20
BRANCH   5  23
ATOM     23  C   UNL     1      -1.227  -1.031   0.000  0.00  0.00    +0.000 C 
BRANCH  23  24
ATOM     24  C   UNL     1      -0.512  -1.444   0.000  0.00  0.00    +0.000 C 
ATOM     25  C   UNL     1      -0.512  -2.269   0.000  0.00  0.00    +0.000 C 
ENDBRANCH  23  24
ENDBRANCH   5  23
TORSDOF 5
