REMARK  Name = 
REMARK  1 active torsions:
REMARK  status: ('A' for Active; 'I' for Inactive)
REMARK    1  A    between atoms: C_8  and  C_10
REMARK                            x       y       z     vdW  Elec       q    Type
REMARK                         _______ _______ _______ _____ _____    ______ ____
ROOT
ATOM      1  S   UNL     1      -0.414  -2.045   0.000  0.00  0.00    +0.000 S 
ATOM      2  O   UNL     1       2.425  -1.929   0.000  0.00  0.00    +0.000 OA
ATOM      3  N   UNL     1       1.029  -1.874   0.000  0.00  0.00    +0.000 NA
ATOM      4  N   UNL     1       1.309  -0.042   0.000  0.00  0.00    +0.000 NA
ATOM      5  C   UNL     1       0.020  -0.782   0.000  0.00  0.00    +0.000 A 
ATOM      6  C   UNL     1      -0.805  -0.768   0.000  0.00  0.00    +0.000 A 
ATOM      7  C   UNL     1       0.261  -1.571   0.000  0.00  0.00    +0.000 A 
ATOM      8  C   UNL     1       0.486  -0.102   0.000  0.00  0.00    +0.000 C 
ATOM      9  C   UNL     1      -1.073  -1.548   0.000  0.00  0.00    +0.000 A 
ATOM     10  C   UNL     1      -1.347  -0.146   0.000  0.00  0.00    +0.000 C 
ATOM     11  C   UNL     1      -1.883  -1.706   0.000  0.00  0.00    +0.000 C 
ATOM     12  C   UNL     1       1.744  -1.463   0.000  0.00  0.00    +0.000 C 
ATOM     13  C   UNL     1       1.869  -0.647   0.000  0.00  0.00    +0.000 C 
ATOM     14  C   UNL     1      -2.156  -0.303   0.000  0.00  0.00    +0.000 C 
ATOM     15  C   UNL     1      -2.425  -1.084   0.000  0.00  0.00    +0.000 C 
ENDROOT
BRANCH   8  16
ATOM     16  C   UNL     1       0.075   0.614   0.000  0.00  0.00    +0.000 A 
ATOM     17  C   UNL     1      -0.750   0.616   0.000  0.00  0.00    +0.000 A 
ATOM     18  C   UNL     1       0.489   1.327   0.000  0.00  0.00    +0.000 A 
ATOM     19  C   UNL     1      -1.161   1.331   0.000  0.00  0.00    +0.000 A 
ATOM     20  C   UNL     1       0.078   2.043   0.000  0.00  0.00    +0.000 A 
ATOM     21  C   UNL     1      -0.747   2.045   0.000  0.00  0.00    +0.000 A 
ENDBRANCH   8  16
TORSDOF 1
