REMARK  Name = 
REMARK  6 active torsions:
REMARK  status: ('A' for Active; 'I' for Inactive)
REMARK    1  A    between atoms: N_12  and  C_15
REMARK    2  A    between atoms: C_15  and  C_16
REMARK    3  A    between atoms: C_16  and  C_17
REMARK    4  A    between atoms: C_17  and  C_18
REMARK    5  A    between atoms: C_18  and  C_19
REMARK    6  A    between atoms: N_21  and  C_28
REMARK                            x       y       z     vdW  Elec       q    Type
REMARK                         _______ _______ _______ _____ _____    ______ ____
ROOT
ATOM      1  C   UNL     1      -1.754   9.266   0.000  0.00  0.00    +0.000 C 
ENDROOT
BRANCH   1   2
ATOM      2  C   UNL     1      -2.009  10.050   0.000  0.00  0.00    +0.000 C 
BRANCH   2   3
ATOM      3  C   UNL     1      -1.457  10.664   0.000  0.00  0.00    +0.000 C 
BRANCH   3  15
ATOM      4  C   UNL     1      -1.065  15.192   0.000  0.00  0.00    +0.000 A 
ATOM      5  C   UNL     1      -0.580  14.525   0.000  0.00  0.00    +0.000 A 
ATOM      6  C   UNL     1      -0.916  13.771   0.000  0.00  0.00    +0.000 A 
ATOM      7  C   UNL     1      -1.736  13.685   0.000  0.00  0.00    +0.000 A 
ATOM      8  C   UNL     1      -2.221  14.352   0.000  0.00  0.00    +0.000 A 
ATOM      9  C   UNL     1      -1.886  15.106   0.000  0.00  0.00    +0.000 A 
ATOM     10  C   UNL     1      -3.006  14.097   0.000  0.00  0.00    +0.000 C 
ATOM     11  O   UNL     1      -3.006  13.272   0.000  0.00  0.00    +0.000 OA
ATOM     12  C   UNL     1      -2.221  13.018   0.000  0.00  0.00    +0.000 C 
ATOM     13  C   UNL     1      -1.414  12.846   0.000  0.00  0.00    +0.000 C 
ATOM     14  C   UNL     1      -1.159  12.061   0.000  0.00  0.00    +0.000 C 
ATOM     15  N   UNL     1      -1.712  11.448   0.000  0.00  0.00    +0.000 NA
ATOM     16  C   UNL     1      -2.518  11.620   0.000  0.00  0.00    +0.000 C 
ATOM     17  C   UNL     1      -2.773  12.404   0.000  0.00  0.00    +0.000 C 
ENDBRANCH   3  15
ENDBRANCH   2   3
ENDBRANCH   1   2
BRANCH   1  18
ATOM     18  C   UNL     1      -2.306   8.653   0.000  0.00  0.00    +0.000 C 
BRANCH  18  19
ATOM     19  C   UNL     1      -2.051   7.868   0.000  0.00  0.00    +0.000 A 
ATOM     20  C   UNL     1      -2.536   7.201   0.000  0.00  0.00    +0.000 A 
ATOM     21  N   UNL     1      -2.051   6.533   0.000  0.00  0.00    +0.000 N 
ATOM     22  C   UNL     1      -1.266   6.788   0.000  0.00  0.00    +0.000 A 
ATOM     23  C   UNL     1      -1.266   7.613   0.000  0.00  0.00    +0.000 A 
ATOM     24  C   UNL     1      -0.552   8.026   0.000  0.00  0.00    +0.000 A 
ATOM     25  C   UNL     1       0.163   7.613   0.000  0.00  0.00    +0.000 A 
ATOM     26  C   UNL     1       0.163   6.788   0.000  0.00  0.00    +0.000 A 
ATOM     27  C   UNL     1      -0.552   6.376   0.000  0.00  0.00    +0.000 A 
BRANCH  21  28
ATOM     28  C   UNL     1      -2.306   5.749   0.000  0.00  0.00    +0.000 A 
ATOM     29  C   UNL     1      -1.754   5.136   0.000  0.00  0.00    +0.000 A 
ATOM     30  C   UNL     1      -2.009   4.351   0.000  0.00  0.00    +0.000 A 
ATOM     31  C   UNL     1      -2.816   4.179   0.000  0.00  0.00    +0.000 A 
ATOM     32  C   UNL     1      -3.368   4.793   0.000  0.00  0.00    +0.000 A 
ATOM     33  C   UNL     1      -3.113   5.577   0.000  0.00  0.00    +0.000 A 
ATOM     34  F   UNL     1      -3.071   3.395   0.000  0.00  0.00    +0.000 F 
ENDBRANCH  21  28
ENDBRANCH  18  19
ENDBRANCH   1  18
TORSDOF 6
