REMARK  Name = 
REMARK  4 active torsions:
REMARK  status: ('A' for Active; 'I' for Inactive)
REMARK    1  A    between atoms: C_7  and  C_12
REMARK    2  A    between atoms: C_12  and  C_13
REMARK    3  A    between atoms: C_17  and  C_20
REMARK    4  A    between atoms: C_28  and  C_29
REMARK                            x       y       z     vdW  Elec       q    Type
REMARK                         _______ _______ _______ _____ _____    ______ ____
ROOT
ATOM      1  C   UNL     1      -1.861   0.837   0.000  0.00  0.00    +0.000 A 
ATOM      2  C   UNL     1      -1.861   1.673   0.000  0.00  0.00    +0.000 A 
ATOM      3  C   UNL     1      -1.108   2.091   0.000  0.00  0.00    +0.000 A 
ATOM      4  C   UNL     1      -0.397   1.673   0.000  0.00  0.00    +0.000 A 
ATOM      5  C   UNL     1      -0.397   0.837   0.000  0.00  0.00    +0.000 A 
ATOM      6  C   UNL     1      -1.108   0.418   0.000  0.00  0.00    +0.000 A 
ATOM      7  F   UNL     1       0.314   2.091   0.000  0.00  0.00    +0.000 F 
ENDROOT
BRANCH   5   8
ATOM      8  C   UNL     1       0.314   0.418   0.000  0.00  0.00    +0.000 C 
ATOM      9  N   UNL     1       1.025   0.837   0.000  0.00  0.00    +0.000 N 
ATOM     10  O   UNL     1       0.314  -0.418   0.000  0.00  0.00    +0.000 OA
ATOM     11  C   UNL     1       1.025   1.673   0.000  0.00  0.00    +0.000 C 
ATOM     12  C   UNL     1       1.778   2.091   0.000  0.00  0.00    +0.000 C 
ATOM     13  N   UNL     1       2.489   1.673   0.000  0.00  0.00    +0.000 N 
ATOM     14  C   UNL     1       2.489   0.837   0.000  0.00  0.00    +0.000 C 
ATOM     15  C   UNL     1       1.778   0.418   0.000  0.00  0.00    +0.000 C 
ATOM     16  C   UNL     1       3.200   2.091   0.000  0.00  0.00    +0.000 C 
ATOM     17  O   UNL     1       3.200   2.928   0.000  0.00  0.00    +0.000 OA
BRANCH  16  18
ATOM     18  C   UNL     1       3.911   1.673   0.000  0.00  0.00    +0.000 C 
ATOM     19  C   UNL     1       4.747   1.673   0.000  0.00  0.00    +0.000 C 
ATOM     20  C   UNL     1       4.329   0.962   0.000  0.00  0.00    +0.000 C 
ENDBRANCH  16  18
ENDBRANCH   5   8
BRANCH   1  21
ATOM     21  C   UNL     1      -2.572   0.418   0.000  0.00  0.00    +0.000 C 
BRANCH  21  28
ATOM     22  C   UNL     1      -4.747  -1.673   0.000  0.00  0.00    +0.000 A 
ATOM     23  C   UNL     1      -4.747  -0.837   0.000  0.00  0.00    +0.000 A 
ATOM     24  C   UNL     1      -4.036  -0.418   0.000  0.00  0.00    +0.000 A 
ATOM     25  C   UNL     1      -3.283  -0.837   0.000  0.00  0.00    +0.000 A 
ATOM     26  C   UNL     1      -3.283  -1.673   0.000  0.00  0.00    +0.000 A 
ATOM     27  C   UNL     1      -4.036  -2.091   0.000  0.00  0.00    +0.000 A 
ATOM     28  C   UNL     1      -2.572  -0.418   0.000  0.00  0.00    +0.000 A 
ATOM     29  N   UNL     1      -1.861  -0.837   0.000  0.00  0.00    +0.000 NA
ATOM     30  N   UNL     1      -1.861  -1.673   0.000  0.00  0.00    +0.000 NA
ATOM     31  C   UNL     1      -2.572  -2.091   0.000  0.00  0.00    +0.000 A 
ATOM     32  O   UNL     1      -2.572  -2.928   0.000  0.00  0.00    +0.000 OA
ENDBRANCH  21  28
ENDBRANCH   1  21
TORSDOF 4
