REMARK  Name = 
REMARK  3 active torsions:
REMARK  status: ('A' for Active; 'I' for Inactive)
REMARK    1  A    between atoms: C_1  and  C_9
REMARK    2  A    between atoms: C_9  and  O_10
REMARK    3  A    between atoms: O_10  and  P_11
REMARK                            x       y       z     vdW  Elec       q    Type
REMARK                         _______ _______ _______ _____ _____    ______ ____
ROOT
ATOM      1  C   UNL     1       0.341   0.111   0.000  0.00  0.00    +0.000 C 
ATOM      2  C   UNL     1       0.602  -0.678   0.000  0.00  0.00    +0.000 C 
ATOM      3  O   UNL     1       1.008   0.593   0.000  0.00  0.00    +0.000 OA
ATOM      4  C   UNL     1       1.440  -0.678   0.000  0.00  0.00    +0.000 C 
ATOM      5  O   UNL     1       0.128  -1.349   0.000  0.00  0.00    +0.000 OA
ATOM      6  C   UNL     1       1.691   0.100   0.000  0.00  0.00    +0.000 C 
ATOM      7  O   UNL     1       1.930  -1.338   0.000  0.00  0.00    +0.000 OA
ATOM      8  O   UNL     1       2.517   0.391   0.000  0.00  0.00    +0.000 OA
ENDROOT
BRANCH   1   9
ATOM      9  C   UNL     1      -0.374   0.524   0.000  0.00  0.00    +0.000 C 
BRANCH   9  10
ATOM     10  O   UNL     1      -1.088   0.111   0.000  0.00  0.00    +0.000 OA
BRANCH  10  11
ATOM     11  P   UNL     1      -1.803   0.524   0.000  0.00  0.00    +0.000 P 
ATOM     12  O   UNL     1      -2.517   0.111   0.000  0.00  0.00    +0.000 OA
ATOM     13  O   UNL     1      -1.803   1.349   0.000  0.00  0.00    +0.000 OA
ATOM     14  O   UNL     1      -2.016  -0.273   0.000  0.00  0.00    +0.000 OA
ENDBRANCH  10  11
ENDBRANCH   9  10
ENDBRANCH   1   9
TORSDOF 3
