REMARK  Name = 
REMARK  15 active torsions:
REMARK  status: ('A' for Active; 'I' for Inactive)
REMARK    1  A    between atoms: S_1  and  O_2
REMARK    2  A    between atoms: O_2  and  C_23
REMARK    3  A    between atoms: N_12  and  C_30
REMARK    4  A    between atoms: N_13  and  C_27
REMARK    5  A    between atoms: N_14  and  C_38
REMARK    6  A    between atoms: C_20  and  C_26
REMARK    7  A    between atoms: C_25  and  C_27
REMARK    8  A    between atoms: C_27  and  C_28
REMARK    9  A    between atoms: C_28  and  C_29
REMARK   10  A    between atoms: C_30  and  C_33
REMARK   11  A    between atoms: C_32  and  C_35
REMARK   12  A    between atoms: C_33  and  C_36
REMARK   13  A    between atoms: C_35  and  C_37
REMARK   14  A    between atoms: C_36  and  C_38
REMARK   15  A    between atoms: C_37  and  C_39
REMARK                            x       y       z     vdW  Elec       q    Type
REMARK                         _______ _______ _______ _____ _____    ______ ____
ROOT
ATOM      1  O   UNL     1      -0.016   0.038   0.000  0.00  0.00    +0.000 OA
ATOM      2  N   UNL     1      -1.080  -0.916   0.000  0.00  0.00    +0.000 N 
ATOM      3  C   UNL     1      -1.860  -1.993   0.000  0.00  0.00    +0.000 C 
ATOM      4  C   UNL     1      -1.860  -1.168   0.000  0.00  0.00    +0.000 C 
ATOM      5  C   UNL     1      -1.080  -2.244   0.000  0.00  0.00    +0.000 C 
ATOM      6  C   UNL     1      -0.598  -1.580   0.000  0.00  0.00    +0.000 C 
ATOM      7  C   UNL     1      -2.575  -0.755   0.000  0.00  0.00    +0.000 C 
ATOM      8  C   UNL     1      -2.575  -2.405   0.000  0.00  0.00    +0.000 C 
ATOM      9  C   UNL     1      -3.289  -1.168   0.000  0.00  0.00    +0.000 C 
ATOM     10  C   UNL     1      -3.289  -1.993   0.000  0.00  0.00    +0.000 C 
ATOM     11  C   UNL     1      -0.823  -0.132   0.000  0.00  0.00    +0.000 C 
ENDROOT
BRANCH   6  14
ATOM     12  O   UNL     1       0.639  -0.866   0.000  0.00  0.00    +0.000 OA
ATOM     13  N   UNL     1       0.639  -2.295   0.000  0.00  0.00    +0.000 N 
ATOM     14  C   UNL     1       0.227  -1.580   0.000  0.00  0.00    +0.000 C 
ATOM     15  H   UNL     1       0.384  -2.738   0.000  0.00  0.00    +0.000 HD
BRANCH  13  16
ATOM     16  C   UNL     1       1.464  -2.295   0.000  0.00  0.00    +0.000 C 
BRANCH  16  17
ATOM     17  C   UNL     1       1.877  -3.009   0.000  0.00  0.00    +0.000 C 
BRANCH  17  18
ATOM     18  C   UNL     1       2.702  -3.009   0.000  0.00  0.00    +0.000 C 
BRANCH  18  19
ATOM     19  C   UNL     1       3.114  -3.724   0.000  0.00  0.00    +0.000 C 
BRANCH  19  20
ATOM     20  N   UNL     1       3.939  -3.724   0.000  0.00  0.00    +0.000 NA
ATOM     21  N   UNL     1       5.177  -4.438   0.000  0.00  0.00    +0.000 N 
ATOM     22  N   UNL     1       3.939  -5.153   0.000  0.00  0.00    +0.000 N 
ATOM     23  C   UNL     1       4.352  -4.438   0.000  0.00  0.00    +0.000 C 
ATOM     24  H   UNL     1       5.433  -3.995   0.000  0.00  0.00    +0.000 HD
ATOM     25  H   UNL     1       5.433  -4.881   0.000  0.00  0.00    +0.000 HD
ATOM     26  H   UNL     1       3.428  -5.153   0.000  0.00  0.00    +0.000 HD
ATOM     27  H   UNL     1       4.195  -5.596   0.000  0.00  0.00    +0.000 HD
ENDBRANCH  19  20
ENDBRANCH  18  19
ENDBRANCH  17  18
ENDBRANCH  16  17
ENDBRANCH  13  16
ENDBRANCH   6  14
BRANCH  11  28
ATOM     28  C   UNL     1      -0.993   0.675   0.000  0.00  0.00    +0.000 C 
BRANCH  28  30
ATOM     29  O   UNL     1      -1.334   2.290   0.000  0.00  0.00    +0.000 OA
ATOM     30  N   UNL     1      -0.379   1.226   0.000  0.00  0.00    +0.000 N 
ATOM     31  C   UNL     1      -0.549   2.033   0.000  0.00  0.00    +0.000 C 
ATOM     32  H   UNL     1       0.107   1.067   0.000  0.00  0.00    +0.000 HD
BRANCH  31  34
ATOM     33  O   UNL     1       0.849   2.328   0.000  0.00  0.00    +0.000 OA
ATOM     34  C   UNL     1       0.065   2.584   0.000  0.00  0.00    +0.000 C 
BRANCH  34  35
ATOM     35  C   UNL     1      -0.106   3.392   0.000  0.00  0.00    +0.000 C 
BRANCH  35  37
ATOM     36  O   UNL     1       2.351   5.596   0.000  0.00  0.00    +0.000 OA
ATOM     37  C   UNL     1       0.508   3.943   0.000  0.00  0.00    +0.000 A 
ATOM     38  C   UNL     1       1.293   3.686   0.000  0.00  0.00    +0.000 A 
ATOM     39  C   UNL     1       0.338   4.750   0.000  0.00  0.00    +0.000 A 
ATOM     40  C   UNL     1       1.907   4.237   0.000  0.00  0.00    +0.000 A 
ATOM     41  C   UNL     1       0.952   5.301   0.000  0.00  0.00    +0.000 A 
ATOM     42  C   UNL     1       1.736   5.045   0.000  0.00  0.00    +0.000 A 
ENDBRANCH  35  37
ENDBRANCH  34  35
ENDBRANCH  31  34
ENDBRANCH  28  30
BRANCH  28  43
ATOM     43  C   UNL     1      -1.778   0.931   0.000  0.00  0.00    +0.000 C 
ATOM     44  C   UNL     1      -2.392   0.381   0.000  0.00  0.00    +0.000 C 
BRANCH  43  45
ATOM     45  C   UNL     1      -1.948   1.739   0.000  0.00  0.00    +0.000 C 
ATOM     46  C   UNL     1      -2.732   1.995   0.000  0.00  0.00    +0.000 C 
ENDBRANCH  43  45
ENDBRANCH  28  43
ENDBRANCH  11  28
BRANCH   9  47
ATOM     47  O   UNL     1      -4.004  -0.755   0.000  0.00  0.00    +0.000 OA
BRANCH  47  48
ATOM     48  S   UNL     1      -4.718  -1.168   0.000  0.00  0.00    +0.000 S 
ATOM     49  O   UNL     1      -5.433  -1.580   0.000  0.00  0.00    +0.000 OA
ATOM     50  O   UNL     1      -4.306  -1.882   0.000  0.00  0.00    +0.000 OA
ATOM     51  O   UNL     1      -5.131  -0.453   0.000  0.00  0.00    +0.000 OA
ENDBRANCH  47  48
ENDBRANCH   9  47
TORSDOF 15
