REMARK  Name = 
REMARK  3 active torsions:
REMARK  status: ('A' for Active; 'I' for Inactive)
REMARK    1  A    between atoms: C_1  and  C_2
REMARK    2  A    between atoms: C_1  and  C_3
REMARK    3  A    between atoms: C_2  and  C_4
REMARK                            x       y       z     vdW  Elec       q    Type
REMARK                         _______ _______ _______ _____ _____    ______ ____
ROOT
ATOM      1  C   UNL     1       0.825  -1.650   0.000  0.00  0.00    +0.000 C 
ATOM      2  F   UNL     1       1.650  -1.650   0.000  0.00  0.00    +0.000 F 
ATOM      3  F   UNL     1       0.000  -1.650   0.000  0.00  0.00    +0.000 F 
ENDROOT
BRANCH   1   4
ATOM      4  C   UNL     1       0.825  -2.475   0.000  0.00  0.00    +0.000 C 
ATOM      5  F   UNL     1       0.825  -3.300   0.000  0.00  0.00    +0.000 F 
ATOM      6  F   UNL     1       1.650  -2.475   0.000  0.00  0.00    +0.000 F 
ATOM      7  F   UNL     1       0.000  -2.475   0.000  0.00  0.00    +0.000 F 
ENDBRANCH   1   4
BRANCH   1   8
ATOM      8  C   UNL     1       0.825  -0.825   0.000  0.00  0.00    +0.000 C 
ATOM      9  F   UNL     1       1.650  -0.825   0.000  0.00  0.00    +0.000 F 
ATOM     10  F   UNL     1       0.000  -0.825   0.000  0.00  0.00    +0.000 F 
BRANCH   8  11
ATOM     11  C   UNL     1       0.825   0.000   0.000  0.00  0.00    +0.000 C 
ATOM     12  F   UNL     1       0.825   0.825   0.000  0.00  0.00    +0.000 F 
ATOM     13  F   UNL     1       1.650   0.000   0.000  0.00  0.00    +0.000 F 
ATOM     14  F   UNL     1       0.000   0.000   0.000  0.00  0.00    +0.000 F 
ENDBRANCH   8  11
ENDBRANCH   1   8
TORSDOF 3
