REMARK  Name = 
REMARK  10 active torsions:
REMARK  status: ('A' for Active; 'I' for Inactive)
REMARK    1  A    between atoms: C_3  and  N_22
REMARK    2  A    between atoms: C_4  and  N_22
REMARK    3  A    between atoms: C_14  and  C_15
REMARK    4  A    between atoms: C_14  and  C_18
REMARK    5  A    between atoms: C_15  and  C_20
REMARK    6  A    between atoms: C_16  and  C_17
REMARK    7  A    between atoms: C_16  and  N_22
REMARK    8  A    between atoms: C_17  and  O_24
REMARK    9  A    between atoms: C_19  and  C_20
REMARK   10  A    between atoms: C_21  and  O_24
REMARK                            x       y       z     vdW  Elec       q    Type
REMARK                         _______ _______ _______ _____ _____    ______ ____
ROOT
ATOM      1  C   UNL     1       7.999   2.143   0.000  0.00  0.00    +0.000 A 
ATOM      2  C   UNL     1       7.174   2.143   0.000  0.00  0.00    +0.000 A 
ATOM      3  C   UNL     1       8.412   1.429   0.000  0.00  0.00    +0.000 A 
ATOM      4  C   UNL     1       6.762   1.429   0.000  0.00  0.00    +0.000 A 
ATOM      5  C   UNL     1       7.999   0.715   0.000  0.00  0.00    +0.000 A 
ATOM      6  C   UNL     1       7.174   0.715   0.000  0.00  0.00    +0.000 A 
ENDROOT
BRANCH   5   7
ATOM      7  C   UNL     1       8.412   0.000   0.000  0.00  0.00    +0.000 C 
ATOM      8  O   UNL     1       9.237   0.000   0.000  0.00  0.00    +0.000 OA
BRANCH   7   9
ATOM      9  C   UNL     1       7.999  -0.715   0.000  0.00  0.00    +0.000 C 
BRANCH   9  10
ATOM     10  C   UNL     1       8.412  -1.429   0.000  0.00  0.00    +0.000 C 
BRANCH  10  16
ATOM     11  C   UNL     1      10.887  -1.429   0.000  0.00  0.00    +0.000 A 
ATOM     12  C   UNL     1      10.474  -0.715   0.000  0.00  0.00    +0.000 A 
ATOM     13  C   UNL     1      10.474  -2.143   0.000  0.00  0.00    +0.000 A 
ATOM     14  C   UNL     1       9.649  -0.715   0.000  0.00  0.00    +0.000 A 
ATOM     15  C   UNL     1       9.649  -2.143   0.000  0.00  0.00    +0.000 A 
ATOM     16  C   UNL     1       9.237  -1.429   0.000  0.00  0.00    +0.000 A 
ENDBRANCH  10  16
ENDBRANCH   9  10
ENDBRANCH   7   9
ENDBRANCH   5   7
BRANCH   6  17
ATOM     17  O   UNL     1       6.762   0.000   0.000  0.00  0.00    +0.000 OA
BRANCH  17  18
ATOM     18  C   UNL     1       5.937   0.000   0.000  0.00  0.00    +0.000 C 
BRANCH  18  19
ATOM     19  C   UNL     1       5.524  -0.715   0.000  0.00  0.00    +0.000 C 
BRANCH  19  20
ATOM     20  N   UNL     1       4.699  -0.715   0.000  0.00  0.00    +0.000 NA
BRANCH  20  22
ATOM     21  C   UNL     1       3.462  -1.429   0.000  0.00  0.00    +0.000 C 
ATOM     22  C   UNL     1       4.287  -1.429   0.000  0.00  0.00    +0.000 C 
ENDBRANCH  20  22
BRANCH  20  24
ATOM     23  C   UNL     1       4.699   0.715   0.000  0.00  0.00    +0.000 C 
ATOM     24  C   UNL     1       4.287   0.000   0.000  0.00  0.00    +0.000 C 
ENDBRANCH  20  24
ENDBRANCH  19  20
ENDBRANCH  18  19
ENDBRANCH  17  18
ENDBRANCH   6  17
TORSDOF 10
