REMARK  Name = 
REMARK  2 active torsions:
REMARK  status: ('A' for Active; 'I' for Inactive)
REMARK    1  A    between atoms: C_2  and  N_16
REMARK    2  A    between atoms: N_16  and  C_17
REMARK                            x       y       z     vdW  Elec       q    Type
REMARK                         _______ _______ _______ _____ _____    ______ ____
ROOT
ATOM      1  C   UNL     1      -0.198   1.048   0.000  0.00  0.00    +0.000 C 
ATOM      2  C   UNL     1       0.599   0.866   0.000  0.00  0.00    +0.000 C 
ATOM      3  C   UNL     1       0.959   0.113   0.000  0.00  0.00    +0.000 C 
ATOM      4  C   UNL     1       0.601  -0.623   0.000  0.00  0.00    +0.000 C 
ATOM      5  N   UNL     1      -0.200  -0.808   0.000  0.00  0.00    +0.000 N 
ATOM      6  C   UNL     1      -0.844  -0.292   0.000  0.00  0.00    +0.000 A 
ATOM      7  C   UNL     1      -0.840   0.534   0.000  0.00  0.00    +0.000 A 
ATOM      8  C   UNL     1      -1.553   0.946   0.000  0.00  0.00    +0.000 A 
ATOM      9  C   UNL     1      -2.270   0.534   0.000  0.00  0.00    +0.000 A 
ATOM     10  C   UNL     1      -2.270  -0.295   0.000  0.00  0.00    +0.000 A 
ATOM     11  N   UNL     1      -1.377  -1.513   0.000  0.00  0.00    +0.000 NA
ATOM     12  C   UNL     1      -0.490  -1.575   0.000  0.00  0.00    +0.000 A 
ATOM     13  C   UNL     1      -1.555  -0.708   0.000  0.00  0.00    +0.000 A 
ATOM     14  O   UNL     1      -0.045  -2.270   0.000  0.00  0.00    +0.000 OA
ATOM     15  O   UNL     1      -0.383   1.852   0.000  0.00  0.00    +0.000 OA
ENDROOT
BRANCH   2  16
ATOM     16  N   UNL     1       1.022   1.574   0.000  0.00  0.00    +0.000 NA
BRANCH  16  17
ATOM     17  C   UNL     1       1.847   1.562   0.000  0.00  0.00    +0.000 C 
ATOM     18  C   UNL     1       2.270   2.270   0.000  0.00  0.00    +0.000 C 
ATOM     19  C   UNL     1       2.249   0.841   0.000  0.00  0.00    +0.000 C 
ENDBRANCH  16  17
ENDBRANCH   2  16
TORSDOF 2
