REMARK  Name = 
REMARK  3 active torsions:
REMARK  status: ('A' for Active; 'I' for Inactive)
REMARK    1  A    between atoms: C_2  and  O_17
REMARK    2  A    between atoms: C_11  and  S_13
REMARK    3  A    between atoms: S_13  and  N_16
REMARK                            x       y       z     vdW  Elec       q    Type
REMARK                         _______ _______ _______ _____ _____    ______ ____
ROOT
ATOM      1  S   UNL     1       0.345   0.598   0.000  0.00  0.00    +0.000 S 
ATOM      2  O   UNL     1       0.345  -0.227   0.000  0.00  0.00    +0.000 OA
ATOM      3  O   UNL     1       0.345   1.423   0.000  0.00  0.00    +0.000 OA
ENDROOT
BRANCH   1   9
ATOM      4  C   UNL     1      -0.893   1.312   0.000  0.00  0.00    +0.000 A 
ATOM      5  C   UNL     1      -1.718   1.312   0.000  0.00  0.00    +0.000 A 
ATOM      6  C   UNL     1      -2.130   0.598   0.000  0.00  0.00    +0.000 A 
ATOM      7  C   UNL     1      -1.718  -0.117   0.000  0.00  0.00    +0.000 A 
ATOM      8  C   UNL     1      -0.893  -0.117   0.000  0.00  0.00    +0.000 A 
ATOM      9  C   UNL     1      -0.480   0.598   0.000  0.00  0.00    +0.000 A 
ATOM     10  N   UNL     1      -2.955   0.598   0.000  0.00  0.00    +0.000 NA
ENDBRANCH   1   9
BRANCH   1  16
ATOM     11  C   UNL     1       1.583  -0.117   0.000  0.00  0.00    +0.000 A 
ATOM     12  C   UNL     1       2.403  -0.203   0.000  0.00  0.00    +0.000 A 
ATOM     13  N   UNL     1       2.575  -1.010   0.000  0.00  0.00    +0.000 NA
ATOM     14  S   UNL     1       1.860  -1.423   0.000  0.00  0.00    +0.000 S 
ATOM     15  N   UNL     1       1.247  -0.871   0.000  0.00  0.00    +0.000 NA
ATOM     16  N   UNL     1       1.170   0.598   0.000  0.00  0.00    +0.000 NA
BRANCH  12  17
ATOM     17  O   UNL     1       2.955   0.410   0.000  0.00  0.00    +0.000 OA
ATOM     18  C   UNL     1       2.700   1.195   0.000  0.00  0.00    +0.000 C 
ENDBRANCH  12  17
ENDBRANCH   1  16
TORSDOF 3
