REMARK  Name = 
REMARK  2 active torsions:
REMARK  status: ('A' for Active; 'I' for Inactive)
REMARK    1  A    between atoms: C_4  and  C_8
REMARK    2  A    between atoms: C_8  and  C_13
REMARK                            x       y       z     vdW  Elec       q    Type
REMARK                         _______ _______ _______ _____ _____    ______ ____
ROOT
ATOM      1  C   UNL     1       1.069   1.660   0.000  0.00  0.00    +0.000 C 
ATOM      2  C   UNL     1       1.069   0.835   0.000  0.00  0.00    +0.000 C 
ATOM      3  C   UNL     1       1.069   0.001   0.000  0.00  0.00    +0.000 C 
ATOM      4  C   UNL     1       1.781   1.250   0.000  0.00  0.00    +0.000 C 
ATOM      5  C   UNL     1       0.356   1.250   0.000  0.00  0.00    +0.000 C 
ATOM      6  C   UNL     1       0.356  -0.415   0.000  0.00  0.00    +0.000 C 
ATOM      7  C   UNL     1       2.494   0.001   0.000  0.00  0.00    +0.000 C 
ATOM      8  C   UNL     1       2.494   0.835   0.000  0.00  0.00    +0.000 C 
ATOM      9  C   UNL     1      -0.358   0.835   0.000  0.00  0.00    +0.000 C 
ATOM     10  C   UNL     1      -0.358   0.001   0.000  0.00  0.00    +0.000 C 
ATOM     11  C   UNL     1       0.356  -1.246   0.000  0.00  0.00    +0.000 C 
ATOM     12  C   UNL     1       3.208   1.246   0.000  0.00  0.00    +0.000 C 
ATOM     13  O   UNL     1      -1.073   1.246   0.000  0.00  0.00    +0.000 OA
ATOM     14  C   UNL     1      -1.071  -0.415   0.000  0.00  0.00    +0.000 C 
ATOM     15  C   UNL     1      -0.358  -1.662   0.000  0.00  0.00    +0.000 C 
ATOM     16  C   UNL     1      -1.071   0.410   0.000  0.00  0.00    +0.000 C 
ATOM     17  C   UNL     1      -1.071  -1.246   0.000  0.00  0.00    +0.000 C 
ATOM     18  C   UNL     1      -1.783   0.001   0.000  0.00  0.00    +0.000 C 
ATOM     19  F   UNL     1      -0.358  -2.487   0.000  0.00  0.00    +0.000 F 
ATOM     20  C   UNL     1      -1.783  -1.662   0.000  0.00  0.00    +0.000 C 
ATOM     21  C   UNL     1      -2.496  -0.415   0.000  0.00  0.00    +0.000 C 
ATOM     22  C   UNL     1      -2.496  -1.246   0.000  0.00  0.00    +0.000 C 
ATOM     23  O   UNL     1      -3.211  -1.657   0.000  0.00  0.00    +0.000 OA
ENDROOT
BRANCH   4  24
ATOM     24  C   UNL     1       1.781   2.075   0.000  0.00  0.00    +0.000 C 
ATOM     25  O   UNL     1       1.067   2.487   0.000  0.00  0.00    +0.000 OA
BRANCH  24  26
ATOM     26  C   UNL     1       2.496   2.487   0.000  0.00  0.00    +0.000 C 
ATOM     27  O   UNL     1       3.211   2.075   0.000  0.00  0.00    +0.000 OA
ENDBRANCH  24  26
ENDBRANCH   4  24
TORSDOF 2
