REMARK  Name = 
REMARK  9 active torsions:
REMARK  status: ('A' for Active; 'I' for Inactive)
REMARK    1  A    between atoms: C_6  and  O_8
REMARK    2  A    between atoms: O_8  and  C_9
REMARK    3  A    between atoms: C_15  and  O_33
REMARK    4  A    between atoms: C_16  and  C_28
REMARK    5  A    between atoms: C_19  and  C_20
REMARK    6  A    between atoms: C_23  and  O_26
REMARK    7  A    between atoms: C_28  and  C_29
REMARK    8  A    between atoms: O_33  and  C_34
REMARK    9  A    between atoms: C_38  and  C_40
REMARK                            x       y       z     vdW  Elec       q    Type
REMARK                         _______ _______ _______ _____ _____    ______ ____
ROOT
ATOM      1  C   UNL     1       0.715  -0.412   0.000  0.00  0.00    +0.000 A 
ATOM      2  C   UNL     1       1.429   0.000   0.000  0.00  0.00    +0.000 A 
ATOM      3  O   UNL     1       1.429   0.825   0.000  0.00  0.00    +0.000 OA
ATOM      4  C   UNL     1       2.143  -0.412   0.000  0.00  0.00    +0.000 A 
ATOM      5  C   UNL     1       2.858   0.000   0.000  0.00  0.00    +0.000 A 
ATOM      6  C   UNL     1       3.572  -0.412   0.000  0.00  0.00    +0.000 A 
ATOM      7  C   UNL     1       3.572  -1.238   0.000  0.00  0.00    +0.000 A 
ATOM      8  C   UNL     1       2.858  -1.650   0.000  0.00  0.00    +0.000 A 
ATOM      9  C   UNL     1       2.143  -1.238   0.000  0.00  0.00    +0.000 A 
ATOM     10  O   UNL     1       1.429  -1.650   0.000  0.00  0.00    +0.000 OA
ATOM     11  C   UNL     1       0.715  -1.238   0.000  0.00  0.00    +0.000 A 
ATOM     12  O   UNL     1       2.858   0.825   0.000  0.00  0.00    +0.000 OA
ENDROOT
BRANCH  11  13
ATOM     13  C   UNL     1       0.000  -1.650   0.000  0.00  0.00    +0.000 A 
ATOM     14  C   UNL     1       0.000  -2.475   0.000  0.00  0.00    +0.000 A 
ATOM     15  C   UNL     1      -0.715  -2.888   0.000  0.00  0.00    +0.000 A 
ATOM     16  C   UNL     1      -1.429  -2.475   0.000  0.00  0.00    +0.000 A 
ATOM     17  C   UNL     1      -1.429  -1.650   0.000  0.00  0.00    +0.000 A 
ATOM     18  C   UNL     1      -0.715  -1.238   0.000  0.00  0.00    +0.000 A 
BRANCH  16  19
ATOM     19  O   UNL     1      -2.143  -2.888   0.000  0.00  0.00    +0.000 OA
ATOM     20  C   UNL     1      -2.858  -2.475   0.000  0.00  0.00    +0.000 C 
ENDBRANCH  16  19
ENDBRANCH  11  13
BRANCH   7  21
ATOM     21  O   UNL     1       4.287  -1.650   0.000  0.00  0.00    +0.000 OA
BRANCH  21  22
ATOM     22  C   UNL     1       5.001  -1.238   0.000  0.00  0.00    +0.000 C 
ATOM     23  C   UNL     1       5.001  -0.412   0.000  0.00  0.00    +0.000 C 
ATOM     24  C   UNL     1       5.716   0.000   0.000  0.00  0.00    +0.000 C 
ATOM     25  C   UNL     1       6.430  -0.412   0.000  0.00  0.00    +0.000 C 
ATOM     26  C   UNL     1       6.430  -1.238   0.000  0.00  0.00    +0.000 C 
ATOM     27  O   UNL     1       5.716  -1.650   0.000  0.00  0.00    +0.000 OA
ATOM     28  O   UNL     1       7.145   0.000   0.000  0.00  0.00    +0.000 OA
ATOM     29  O   UNL     1       5.716   0.825   0.000  0.00  0.00    +0.000 OA
ATOM     30  O   UNL     1       4.287   0.000   0.000  0.00  0.00    +0.000 OA
BRANCH  26  31
ATOM     31  C   UNL     1       7.145  -1.650   0.000  0.00  0.00    +0.000 C 
ATOM     32  O   UNL     1       7.859  -1.238   0.000  0.00  0.00    +0.000 OA
ENDBRANCH  26  31
ENDBRANCH  21  22
ENDBRANCH   7  21
BRANCH   1  33
ATOM     33  O   UNL     1       0.000   0.000   0.000  0.00  0.00    +0.000 OA
BRANCH  33  39
ATOM     34  C   UNL     1       1.429   2.475   0.000  0.00  0.00    +0.000 C 
ATOM     35  C   UNL     1       0.715   2.062   0.000  0.00  0.00    +0.000 C 
ATOM     36  C   UNL     1       0.000   2.475   0.000  0.00  0.00    +0.000 C 
ATOM     37  C   UNL     1      -0.715   2.062   0.000  0.00  0.00    +0.000 C 
ATOM     38  C   UNL     1      -0.715   1.238   0.000  0.00  0.00    +0.000 C 
ATOM     39  C   UNL     1       0.000   0.825   0.000  0.00  0.00    +0.000 C 
ATOM     40  O   UNL     1       0.715   1.238   0.000  0.00  0.00    +0.000 OA
ATOM     41  O   UNL     1      -1.429   0.825   0.000  0.00  0.00    +0.000 OA
ATOM     42  O   UNL     1      -1.429   2.475   0.000  0.00  0.00    +0.000 OA
ATOM     43  O   UNL     1       0.000   3.300   0.000  0.00  0.00    +0.000 OA
ENDBRANCH  33  39
ENDBRANCH   1  33
BRANCH   8  44
ATOM     44  C   UNL     1       2.858  -2.475   0.000  0.00  0.00    +0.000 C 
BRANCH  44  45
ATOM     45  C   UNL     1       2.143  -2.888   0.000  0.00  0.00    +0.000 C 
ATOM     46  C   UNL     1       2.143  -3.712   0.000  0.00  0.00    +0.000 C 
ATOM     47  C   UNL     1       1.429  -4.125   0.000  0.00  0.00    +0.000 C 
ATOM     48  C   UNL     1       2.858  -4.125   0.000  0.00  0.00    +0.000 C 
ENDBRANCH  44  45
ENDBRANCH   8  44
TORSDOF 9
