REMARK  Name = 
REMARK  7 active torsions:
REMARK  status: ('A' for Active; 'I' for Inactive)
REMARK    1  A    between atoms: N_3  and  C_7
REMARK    2  A    between atoms: N_3  and  C_9
REMARK    3  A    between atoms: N_4  and  C_15
REMARK    4  A    between atoms: C_6  and  C_7
REMARK    5  A    between atoms: C_6  and  C_8
REMARK    6  A    between atoms: C_9  and  C_10
REMARK    7  A    between atoms: C_21  and  C_22
REMARK                            x       y       z     vdW  Elec       q    Type
REMARK                         _______ _______ _______ _____ _____    ______ ____
ROOT
ATOM      1  C   UNL     1       0.493  -0.016   0.000  0.00  0.00    +0.000 A 
ATOM      2  C   UNL     1      -0.221   0.397   0.000  0.00  0.00    +0.000 A 
ATOM      3  C   UNL     1       1.207   0.397   0.000  0.00  0.00    +0.000 A 
ATOM      4  C   UNL     1      -0.221   1.222   0.000  0.00  0.00    +0.000 A 
ATOM      5  C   UNL     1       1.207   1.222   0.000  0.00  0.00    +0.000 A 
ATOM      6  C   UNL     1       0.493   1.634   0.000  0.00  0.00    +0.000 A 
ENDROOT
BRANCH   6   7
ATOM      7  N   UNL     1       0.493   2.459   0.000  0.00  0.00    +0.000 NA
ATOM      8  N   UNL     1       1.922   2.459   0.000  0.00  0.00    +0.000 N 
ATOM      9  C   UNL     1       1.207   2.872   0.000  0.00  0.00    +0.000 C 
ATOM     10  H   UNL     1       2.365   2.715   0.000  0.00  0.00    +0.000 HD
ATOM     11  H   UNL     1       1.922   1.948   0.000  0.00  0.00    +0.000 HD
BRANCH   9  13
ATOM     12  S   UNL     1       1.875   4.181   0.000  0.00  0.00    +0.000 S 
ATOM     13  C   UNL     1       1.207   3.696   0.000  0.00  0.00    +0.000 A 
ATOM     14  C   UNL     1       0.540   4.181   0.000  0.00  0.00    +0.000 A 
ATOM     15  C   UNL     1       0.795   4.966   0.000  0.00  0.00    +0.000 A 
ATOM     16  C   UNL     1       1.620   4.966   0.000  0.00  0.00    +0.000 A 
ENDBRANCH   9  13
ENDBRANCH   6   7
BRANCH   1  17
ATOM     17  C   UNL     1       0.493  -0.841   0.000  0.00  0.00    +0.000 C 
BRANCH  17  18
ATOM     18  C   UNL     1      -0.221  -1.254   0.000  0.00  0.00    +0.000 C 
BRANCH  18  19
ATOM     19  N   UNL     1      -0.221  -2.079   0.000  0.00  0.00    +0.000 NA
ATOM     20  H   UNL     1       0.221  -2.334   0.000  0.00  0.00    +0.000 HD
BRANCH  19  21
ATOM     21  C   UNL     1      -0.936  -2.491   0.000  0.00  0.00    +0.000 C 
BRANCH  21  23
ATOM     22 CL   UNL     1      -2.365  -4.966   0.000  0.00  0.00    +0.000 Cl
ATOM     23  C   UNL     1      -0.936  -3.316   0.000  0.00  0.00    +0.000 A 
ATOM     24  C   UNL     1      -1.650  -3.728   0.000  0.00  0.00    +0.000 A 
ATOM     25  C   UNL     1      -0.221  -3.728   0.000  0.00  0.00    +0.000 A 
ATOM     26  C   UNL     1      -1.650  -4.554   0.000  0.00  0.00    +0.000 A 
ATOM     27  C   UNL     1      -0.221  -4.554   0.000  0.00  0.00    +0.000 A 
ATOM     28  C   UNL     1      -0.936  -4.966   0.000  0.00  0.00    +0.000 A 
ENDBRANCH  21  23
ENDBRANCH  19  21
ENDBRANCH  18  19
ENDBRANCH  17  18
ENDBRANCH   1  17
TORSDOF 7
