REMARK  Name = 
REMARK  12 active torsions:
REMARK  status: ('A' for Active; 'I' for Inactive)
REMARK    1  A    between atoms: C_2  and  C_4
REMARK    2  A    between atoms: C_4  and  C_6
REMARK    3  A    between atoms: C_6  and  O_8
REMARK    4  A    between atoms: O_8  and  C_9
REMARK    5  A    between atoms: C_9  and  C_10
REMARK    6  A    between atoms: C_10  and  C_11
REMARK    7  A    between atoms: C_11  and  N_12
REMARK    8  A    between atoms: C_11  and  C_35
REMARK    9  A    between atoms: C_13  and  C_15
REMARK   10  A    between atoms: N_19  and  S_20
REMARK   11  A    between atoms: S_20  and  C_23
REMARK   12  A    between atoms: C_26  and  C_29
REMARK                            x       y       z     vdW  Elec       q    Type
REMARK                         _______ _______ _______ _____ _____    ______ ____
ROOT
ATOM      1  N   UNL     1       9.955  -2.038   0.000  0.00  0.00    +0.000 NA
ATOM      2  C   UNL     1      10.153  -1.238   0.000  0.00  0.00    +0.000 C 
ATOM      3  O   UNL     1      10.946  -1.009   0.000  0.00  0.00    +0.000 OA
ENDROOT
BRANCH   2   4
ATOM      4  C   UNL     1       9.559  -0.665   0.000  0.00  0.00    +0.000 C 
ATOM      5  S   UNL     1       8.747  -0.810   0.000  0.00  0.00    +0.000 S 
ATOM      6  C   UNL     1       8.358  -0.082   0.000  0.00  0.00    +0.000 C 
ATOM      7  C   UNL     1       8.930   0.512   0.000  0.00  0.00    +0.000 C 
ATOM      8  N   UNL     1       9.672   0.152   0.000  0.00  0.00    +0.000 NA
BRANCH   8   9
ATOM      9  S   UNL     1      10.400   0.540   0.000  0.00  0.00    +0.000 S 
ATOM     10  O   UNL     1      10.789  -0.187   0.000  0.00  0.00    +0.000 OA
ATOM     11  O   UNL     1      10.011   1.268   0.000  0.00  0.00    +0.000 OA
BRANCH   9  12
ATOM     12  C   UNL     1      11.128   0.929   0.000  0.00  0.00    +0.000 A 
ATOM     13  C   UNL     1      11.155   1.754   0.000  0.00  0.00    +0.000 A 
ATOM     14  C   UNL     1      11.883   2.142   0.000  0.00  0.00    +0.000 A 
ATOM     15  C   UNL     1      12.583   1.706   0.000  0.00  0.00    +0.000 A 
ATOM     16  C   UNL     1      12.556   0.882   0.000  0.00  0.00    +0.000 A 
ATOM     17  C   UNL     1      11.828   0.493   0.000  0.00  0.00    +0.000 A 
BRANCH  15  18
ATOM     18  C   UNL     1      13.311   2.095   0.000  0.00  0.00    +0.000 A 
ATOM     19  C   UNL     1      13.338   2.919   0.000  0.00  0.00    +0.000 A 
ATOM     20  C   UNL     1      14.066   3.308   0.000  0.00  0.00    +0.000 A 
ATOM     21  C   UNL     1      14.767   2.872   0.000  0.00  0.00    +0.000 A 
ATOM     22  C   UNL     1      14.739   2.047   0.000  0.00  0.00    +0.000 A 
ATOM     23  C   UNL     1      14.011   1.659   0.000  0.00  0.00    +0.000 A 
ENDBRANCH  15  18
ENDBRANCH   9  12
ENDBRANCH   8   9
ENDBRANCH   2   4
BRANCH   1  24
ATOM     24  C   UNL     1       9.163  -2.267   0.000  0.00  0.00    +0.000 C 
BRANCH  24  25
ATOM     25  C   UNL     1       8.964  -3.068   0.000  0.00  0.00    +0.000 A 
ATOM     26  C   UNL     1       9.559  -3.640   0.000  0.00  0.00    +0.000 A 
ATOM     27  C   UNL     1       9.361  -4.441   0.000  0.00  0.00    +0.000 A 
ATOM     28  C   UNL     1       8.568  -4.670   0.000  0.00  0.00    +0.000 A 
ATOM     29  F   UNL     1       8.370  -5.471   0.000  0.00  0.00    +0.000 F 
ATOM     30  C   UNL     1       7.974  -4.098   0.000  0.00  0.00    +0.000 A 
ATOM     31  C   UNL     1       8.172  -3.297   0.000  0.00  0.00    +0.000 A 
ENDBRANCH  24  25
BRANCH  24  32
ATOM     32  C   UNL     1       8.568  -1.695   0.000  0.00  0.00    +0.000 C 
BRANCH  32  33
ATOM     33  C   UNL     1       7.776  -1.924   0.000  0.00  0.00    +0.000 C 
BRANCH  33  34
ATOM     34  O   UNL     1       7.181  -1.352   0.000  0.00  0.00    +0.000 OA
BRANCH  34  35
ATOM     35  C   UNL     1       6.388  -1.581   0.000  0.00  0.00    +0.000 C 
ATOM     36  O   UNL     1       6.190  -2.382   0.000  0.00  0.00    +0.000 OA
BRANCH  35  37
ATOM     37  C   UNL     1       5.794  -1.009   0.000  0.00  0.00    +0.000 C 
ATOM     38  N   UNL     1       5.992  -0.208   0.000  0.00  0.00    +0.000 NA
BRANCH  37  40
ATOM     39  C   UNL     1       4.407  -0.665   0.000  0.00  0.00    +0.000 C 
ATOM     40  C   UNL     1       5.001  -1.238   0.000  0.00  0.00    +0.000 C 
ATOM     41  C   UNL     1       4.803  -2.038   0.000  0.00  0.00    +0.000 C 
ENDBRANCH  37  40
ENDBRANCH  35  37
ENDBRANCH  34  35
ENDBRANCH  33  34
ENDBRANCH  32  33
ENDBRANCH  24  32
ENDBRANCH   1  24
TORSDOF 12
