REMARK  Name = 
REMARK  4 active torsions:
REMARK  status: ('A' for Active; 'I' for Inactive)
REMARK    1  A    between atoms: C_3  and  C_4
REMARK    2  A    between atoms: N_6  and  C_7
REMARK    3  A    between atoms: N_11  and  C_13
REMARK    4  A    between atoms: C_21  and  C_25
REMARK                            x       y       z     vdW  Elec       q    Type
REMARK                         _______ _______ _______ _____ _____    ______ ____
ROOT
ATOM      1  C   UNL     1       0.715  -0.412   0.000  0.00  0.00    +0.000 A 
ATOM      2  C   UNL     1       0.000   0.000   0.000  0.00  0.00    +0.000 A 
ATOM      3  C   UNL     1      -0.785  -0.255   0.000  0.00  0.00    +0.000 A 
ATOM      4  C   UNL     1      -1.040  -1.040   0.000  0.00  0.00    +0.000 C 
ATOM      5  C   UNL     1      -1.270   0.412   0.000  0.00  0.00    +0.000 A 
ATOM      6  C   UNL     1      -2.095   0.412   0.000  0.00  0.00    +0.000 C 
ATOM      7  N   UNL     1      -0.785   1.080   0.000  0.00  0.00    +0.000 NA
ATOM      8  C   UNL     1       0.000   0.825   0.000  0.00  0.00    +0.000 A 
ATOM      9  C   UNL     1       0.715   1.238   0.000  0.00  0.00    +0.000 A 
ATOM     10  C   UNL     1       1.429   0.825   0.000  0.00  0.00    +0.000 A 
ATOM     11  C   UNL     1       1.429   0.000   0.000  0.00  0.00    +0.000 A 
ATOM     12  F   UNL     1       2.143  -0.412   0.000  0.00  0.00    +0.000 F 
ENDROOT
BRANCH   1  17
ATOM     13  C   UNL     1       1.429  -2.475   0.000  0.00  0.00    +0.000 C 
ATOM     14  C   UNL     1       0.715  -2.888   0.000  0.00  0.00    +0.000 C 
ATOM     15  C   UNL     1       0.000  -2.475   0.000  0.00  0.00    +0.000 C 
ATOM     16  C   UNL     1       0.000  -1.650   0.000  0.00  0.00    +0.000 C 
ATOM     17  N   UNL     1       0.715  -1.238   0.000  0.00  0.00    +0.000 N 
ATOM     18  C   UNL     1       1.429  -1.650   0.000  0.00  0.00    +0.000 C 
BRANCH  13  21
ATOM     19  C   UNL     1       2.143  -3.712   0.000  0.00  0.00    +0.000 C 
ATOM     20  O   UNL     1       1.429  -4.125   0.000  0.00  0.00    +0.000 OA
ATOM     21  N   UNL     1       2.143  -2.888   0.000  0.00  0.00    +0.000 NA
BRANCH  19  24
ATOM     22  C   UNL     1       4.287  -4.950   0.000  0.00  0.00    +0.000 C 
ATOM     23  C   UNL     1       3.572  -4.537   0.000  0.00  0.00    +0.000 C 
ATOM     24  C   UNL     1       2.858  -4.125   0.000  0.00  0.00    +0.000 C 
ENDBRANCH  19  24
ENDBRANCH  13  21
ENDBRANCH   1  17
BRANCH   9  25
ATOM     25  C   UNL     1       0.715   2.062   0.000  0.00  0.00    +0.000 C 
ATOM     26  N   UNL     1       0.000   2.475   0.000  0.00  0.00    +0.000 NA
ATOM     27  O   UNL     1       1.429   2.475   0.000  0.00  0.00    +0.000 OA
ENDBRANCH   9  25
TORSDOF 4
