REMARK  Name = 
REMARK  12 active torsions:
REMARK  status: ('A' for Active; 'I' for Inactive)
REMARK    1  A    between atoms: C_3  and  C_4
REMARK    2  A    between atoms: C_4  and  C_5
REMARK    3  A    between atoms: C_6  and  C_9
REMARK    4  A    between atoms: C_10  and  O_34
REMARK    5  A    between atoms: C_11  and  O_17
REMARK    6  A    between atoms: O_17  and  C_18
REMARK    7  A    between atoms: C_18  and  C_20
REMARK    8  A    between atoms: C_21  and  C_22
REMARK    9  A    between atoms: C_25  and  O_28
REMARK   10  A    between atoms: O_28  and  C_29
REMARK   11  A    between atoms: C_29  and  C_30
REMARK   12  A    between atoms: C_30  and  N_31
REMARK                            x       y       z     vdW  Elec       q    Type
REMARK                         _______ _______ _______ _____ _____    ______ ____
ROOT
ATOM      1  C   UNL     1       1.127   1.127   0.000  0.00  0.00    +0.000 C 
ATOM      2  C   UNL     1       1.952   1.127   0.000  0.00  0.00    +0.000 C 
ATOM      3  C   UNL     1       2.365   0.412   0.000  0.00  0.00    +0.000 C 
ATOM      4  C   UNL     1       1.952  -0.302   0.000  0.00  0.00    +0.000 C 
ATOM      5  C   UNL     1       1.127  -0.302   0.000  0.00  0.00    +0.000 C 
ATOM      6  C   UNL     1       0.715   0.412   0.000  0.00  0.00    +0.000 C 
ATOM      7  C   UNL     1       0.000   0.000   0.000  0.00  0.00    +0.000 C 
ATOM      8  O   UNL     1       0.000   0.825   0.000  0.00  0.00    +0.000 OA
ENDROOT
BRANCH   1  10
ATOM      9  C   UNL     1       0.241   2.517   0.000  0.00  0.00    +0.000 C 
ATOM     10  C   UNL     1       0.715   1.841   0.000  0.00  0.00    +0.000 C 
ATOM     11  O   UNL     1      -0.107   1.770   0.000  0.00  0.00    +0.000 OA
ATOM     12  C   UNL     1       1.527   1.985   0.000  0.00  0.00    +0.000 C 
BRANCH   9  13
ATOM     13  C   UNL     1       0.169   3.339   0.000  0.00  0.00    +0.000 C 
BRANCH  13  16
ATOM     14  C   UNL     1      -1.398   4.858   0.000  0.00  0.00    +0.000 C 
ATOM     15  C   UNL     1      -0.650   4.510   0.000  0.00  0.00    +0.000 C 
ATOM     16  C   UNL     1      -0.578   3.688   0.000  0.00  0.00    +0.000 C 
ATOM     17  C   UNL     1       0.026   4.983   0.000  0.00  0.00    +0.000 C 
ENDBRANCH  13  16
ENDBRANCH   9  13
ENDBRANCH   1  10
BRANCH   2  18
ATOM     18  O   UNL     1       2.365   1.841   0.000  0.00  0.00    +0.000 OA
ATOM     19  C   UNL     1       1.952   2.556   0.000  0.00  0.00    +0.000 C 
ENDBRANCH   2  18
BRANCH   3  20
ATOM     20  O   UNL     1       3.189   0.412   0.000  0.00  0.00    +0.000 OA
BRANCH  20  21
ATOM     21  C   UNL     1       3.602   1.127   0.000  0.00  0.00    +0.000 C 
ATOM     22  O   UNL     1       4.427   1.127   0.000  0.00  0.00    +0.000 OA
BRANCH  21  23
ATOM     23  C   UNL     1       3.189   1.841   0.000  0.00  0.00    +0.000 C 
ATOM     24  C   UNL     1       3.602   2.556   0.000  0.00  0.00    +0.000 C 
BRANCH  24  25
ATOM     25  C   UNL     1       3.189   3.270   0.000  0.00  0.00    +0.000 A 
ATOM     26  C   UNL     1       2.365   3.270   0.000  0.00  0.00    +0.000 A 
ATOM     27  C   UNL     1       1.952   3.985   0.000  0.00  0.00    +0.000 A 
ATOM     28  C   UNL     1       2.365   4.699   0.000  0.00  0.00    +0.000 A 
ATOM     29  C   UNL     1       3.189   4.699   0.000  0.00  0.00    +0.000 A 
ATOM     30  C   UNL     1       3.602   3.985   0.000  0.00  0.00    +0.000 A 
BRANCH  28  31
ATOM     31  O   UNL     1       1.952   5.414   0.000  0.00  0.00    +0.000 OA
BRANCH  31  32
ATOM     32  C   UNL     1       2.365   6.128   0.000  0.00  0.00    +0.000 C 
BRANCH  32  33
ATOM     33  C   UNL     1       1.952   6.843   0.000  0.00  0.00    +0.000 C 
BRANCH  33  34
ATOM     34  N   UNL     1       2.365   7.557   0.000  0.00  0.00    +0.000 NA
ATOM     35  C   UNL     1       1.952   8.272   0.000  0.00  0.00    +0.000 C 
ATOM     36  C   UNL     1       3.189   7.557   0.000  0.00  0.00    +0.000 C 
ENDBRANCH  33  34
ENDBRANCH  32  33
ENDBRANCH  31  32
ENDBRANCH  28  31
ENDBRANCH  24  25
ENDBRANCH  21  23
ENDBRANCH  20  21
ENDBRANCH   3  20
TORSDOF 12
