REMARK  Name = 
REMARK  7 active torsions:
REMARK  status: ('A' for Active; 'I' for Inactive)
REMARK    1  A    between atoms: C_2  and  C_3
REMARK    2  A    between atoms: C_2  and  N_11
REMARK    3  A    between atoms: C_3  and  O_4
REMARK    4  A    between atoms: O_4  and  C_5
REMARK    5  A    between atoms: N_11  and  C_12
REMARK    6  A    between atoms: C_12  and  C_14
REMARK    7  A    between atoms: C_14  and  C_16
REMARK                            x       y       z     vdW  Elec       q    Type
REMARK                         _______ _______ _______ _____ _____    ______ ____
ROOT
ATOM      1  N   UNL     1       0.000   0.206   0.000  0.00  0.00    +0.000 NA
ENDROOT
BRANCH   1   3
ATOM      2  C   UNL     1      -0.714  -1.031   0.000  0.00  0.00    +0.000 C 
ATOM      3  C   UNL     1      -0.714  -0.206   0.000  0.00  0.00    +0.000 C 
BRANCH   3   4
ATOM      4  C   UNL     1      -1.429   0.206   0.000  0.00  0.00    +0.000 C 
BRANCH   4   5
ATOM      5  O   UNL     1      -2.143  -0.206   0.000  0.00  0.00    +0.000 OA
BRANCH   5   6
ATOM      6  C   UNL     1      -2.858   0.206   0.000  0.00  0.00    +0.000 A 
ATOM      7  C   UNL     1      -3.572  -0.206   0.000  0.00  0.00    +0.000 A 
ATOM      8  C   UNL     1      -4.287   0.206   0.000  0.00  0.00    +0.000 A 
ATOM      9  C   UNL     1      -4.287   1.031   0.000  0.00  0.00    +0.000 A 
ATOM     10  C   UNL     1      -3.572   1.444   0.000  0.00  0.00    +0.000 A 
ATOM     11  C   UNL     1      -2.858   1.031   0.000  0.00  0.00    +0.000 A 
ENDBRANCH   5   6
ENDBRANCH   4   5
ENDBRANCH   3   4
ENDBRANCH   1   3
BRANCH   1  12
ATOM     12  C   UNL     1       0.714  -0.206   0.000  0.00  0.00    +0.000 C 
ATOM     13  C   UNL     1       0.714  -1.031   0.000  0.00  0.00    +0.000 C 
BRANCH  12  14
ATOM     14  C   UNL     1       1.429   0.206   0.000  0.00  0.00    +0.000 C 
ATOM     15  O   UNL     1       1.429   1.031   0.000  0.00  0.00    +0.000 OA
BRANCH  14  16
ATOM     16  C   UNL     1       2.143  -0.206   0.000  0.00  0.00    +0.000 A 
ATOM     17  C   UNL     1       2.858   0.206   0.000  0.00  0.00    +0.000 A 
ATOM     18  C   UNL     1       3.572  -0.206   0.000  0.00  0.00    +0.000 A 
ATOM     19  C   UNL     1       3.572  -1.031   0.000  0.00  0.00    +0.000 A 
ATOM     20  O   UNL     1       4.287  -1.444   0.000  0.00  0.00    +0.000 OA
ATOM     21  C   UNL     1       2.858  -1.444   0.000  0.00  0.00    +0.000 A 
ATOM     22  C   UNL     1       2.143  -1.031   0.000  0.00  0.00    +0.000 A 
ENDBRANCH  14  16
ENDBRANCH  12  14
ENDBRANCH   1  12
TORSDOF 7
