REMARK  Name = 
REMARK  18 active torsions:
REMARK  status: ('A' for Active; 'I' for Inactive)
REMARK    1  A    between atoms: C_1  and  C_2
REMARK    2  A    between atoms: C_1  and  N_17
REMARK    3  A    between atoms: C_2  and  C_3
REMARK    4  A    between atoms: C_3  and  C_4
REMARK    5  A    between atoms: C_4  and  C_5
REMARK    6  A    between atoms: C_5  and  C_6
REMARK    7  A    between atoms: C_6  and  C_7
REMARK    8  A    between atoms: C_7  and  C_8
REMARK    9  A    between atoms: C_8  and  C_9
REMARK   10  A    between atoms: C_9  and  C_10
REMARK   11  A    between atoms: C_10  and  C_11
REMARK   12  A    between atoms: C_11  and  C_12
REMARK   13  A    between atoms: C_12  and  C_13
REMARK   14  A    between atoms: C_13  and  C_14
REMARK   15  A    between atoms: C_14  and  C_15
REMARK   16  A    between atoms: C_22  and  C_33
REMARK   17  A    between atoms: C_27  and  O_31
REMARK   18  A    between atoms: C_33  and  C_34
REMARK                            x       y       z     vdW  Elec       q    Type
REMARK                         _______ _______ _______ _____ _____    ______ ____
ROOT
ATOM      1  C   UNL     1      -1.072   1.441   0.000  0.00  0.00    +0.000 C 
ENDROOT
BRANCH   1   2
ATOM      2  C   UNL     1      -1.787   1.030   0.000  0.00  0.00    +0.000 C 
BRANCH   2   3
ATOM      3  C   UNL     1      -2.502   1.441   0.000  0.00  0.00    +0.000 C 
BRANCH   3   4
ATOM      4  C   UNL     1      -3.217   1.030   0.000  0.00  0.00    +0.000 C 
BRANCH   4   5
ATOM      5  C   UNL     1      -3.932   1.441   0.000  0.00  0.00    +0.000 C 
BRANCH   5   6
ATOM      6  C   UNL     1      -4.647   1.030   0.000  0.00  0.00    +0.000 C 
BRANCH   6   7
ATOM      7  N   UNL     1      -5.357   1.441   0.000  0.00  0.00    +0.000 N 
ATOM      8  C   UNL     1      -6.067   1.030   0.000  0.00  0.00    +0.000 C 
ATOM      9  C   UNL     1      -5.357   2.270   0.000  0.00  0.00    +0.000 C 
ATOM     10  C   UNL     1      -6.067   1.853   0.000  0.00  0.00    +0.000 C 
ENDBRANCH   6   7
ENDBRANCH   5   6
ENDBRANCH   4   5
ENDBRANCH   3   4
ENDBRANCH   2   3
ENDBRANCH   1   2
BRANCH   1  11
ATOM     11  C   UNL     1      -0.357   1.030   0.000  0.00  0.00    +0.000 C 
BRANCH  11  12
ATOM     12  C   UNL     1       0.357   1.441   0.000  0.00  0.00    +0.000 C 
BRANCH  12  13
ATOM     13  C   UNL     1       1.067   1.030   0.000  0.00  0.00    +0.000 C 
BRANCH  13  14
ATOM     14  C   UNL     1       1.782   1.441   0.000  0.00  0.00    +0.000 C 
BRANCH  14  15
ATOM     15  C   UNL     1       2.497   1.030   0.000  0.00  0.00    +0.000 C 
BRANCH  15  16
ATOM     16  C   UNL     1       3.212   1.441   0.000  0.00  0.00    +0.000 C 
BRANCH  16  17
ATOM     17  C   UNL     1       3.927   1.030   0.000  0.00  0.00    +0.000 C 
BRANCH  17  18
ATOM     18  C   UNL     1       4.642   1.441   0.000  0.00  0.00    +0.000 C 
BRANCH  18  19
ATOM     19  C   UNL     1       5.352   1.030   0.000  0.00  0.00    +0.000 C 
ATOM     20  C   UNL     1       6.067   1.441   0.000  0.00  0.00    +0.000 C 
ENDBRANCH  18  19
ENDBRANCH  17  18
ENDBRANCH  16  17
ENDBRANCH  15  16
ENDBRANCH  14  15
ENDBRANCH  13  14
ENDBRANCH  12  13
ENDBRANCH  11  12
ENDBRANCH   1  11
TORSDOF 15
REMARK  Name = 
REMARK  18 active torsions:
REMARK  status: ('A' for Active; 'I' for Inactive)
REMARK    1  A    between atoms: C_1  and  C_2
REMARK    2  A    between atoms: C_1  and  N_17
REMARK    3  A    between atoms: C_2  and  C_3
REMARK    4  A    between atoms: C_3  and  C_4
REMARK    5  A    between atoms: C_4  and  C_5
REMARK    6  A    between atoms: C_5  and  C_6
REMARK    7  A    between atoms: C_6  and  C_7
REMARK    8  A    between atoms: C_7  and  C_8
REMARK    9  A    between atoms: C_8  and  C_9
REMARK   10  A    between atoms: C_9  and  C_10
REMARK   11  A    between atoms: C_10  and  C_11
REMARK   12  A    between atoms: C_11  and  C_12
REMARK   13  A    between atoms: C_12  and  C_13
REMARK   14  A    between atoms: C_13  and  C_14
REMARK   15  A    between atoms: C_14  and  C_15
REMARK   16  A    between atoms: C_22  and  C_33
REMARK   17  A    between atoms: C_27  and  O_31
REMARK   18  A    between atoms: C_33  and  C_34
REMARK                            x       y       z     vdW  Elec       q    Type
REMARK                         _______ _______ _______ _____ _____    ______ ____
ROOT
ATOM      1  C   UNL     1       0.357  -0.618   0.000  0.00  0.00    +0.000 A 
ATOM      2  C   UNL     1       1.067  -1.030   0.000  0.00  0.00    +0.000 A 
ATOM      3  C   UNL     1       1.067  -1.858   0.000  0.00  0.00    +0.000 A 
ATOM      4  C   UNL     1       0.357  -2.270   0.000  0.00  0.00    +0.000 A 
ATOM      5  C   UNL     1      -0.357  -1.858   0.000  0.00  0.00    +0.000 A 
ATOM      6  C   UNL     1      -1.072  -2.270   0.000  0.00  0.00    +0.000 A 
ATOM      7  C   UNL     1      -1.787  -1.858   0.000  0.00  0.00    +0.000 A 
ATOM      8  C   UNL     1      -1.787  -1.030   0.000  0.00  0.00    +0.000 A 
ATOM      9  C   UNL     1      -1.072  -0.618   0.000  0.00  0.00    +0.000 A 
ATOM     10  C   UNL     1      -0.357  -1.030   0.000  0.00  0.00    +0.000 A 
ENDROOT
BRANCH   7  11
ATOM     11  O   UNL     1      -2.502  -2.270   0.000  0.00  0.00    +0.000 OA
ATOM     12  C   UNL     1      -3.217  -1.858   0.000  0.00  0.00    +0.000 C 
ENDBRANCH   7  11
BRANCH   2  13
ATOM     13  C   UNL     1       1.782  -0.618   0.000  0.00  0.00    +0.000 C 
ATOM     14  C   UNL     1       1.782   0.206   0.000  0.00  0.00    +0.000 C 
BRANCH  13  15
ATOM     15  C   UNL     1       2.497  -1.030   0.000  0.00  0.00    +0.000 C 
ATOM     16  O   UNL     1       2.497  -1.858   0.000  0.00  0.00    +0.000 OA
ATOM     17  O   UNL     1       3.212  -0.618   0.000  0.00  0.00    +0.000 OA
ENDBRANCH  13  15
ENDBRANCH   2  13
TORSDOF 3
