REMARK  Name = 
REMARK  4 active torsions:
REMARK  status: ('A' for Active; 'I' for Inactive)
REMARK    1  A    between atoms: C_2  and  C_3
REMARK    2  A    between atoms: C_13  and  N_16
REMARK    3  A    between atoms: N_16  and  C_17
REMARK    4  A    between atoms: C_23  and  C_24
REMARK                            x       y       z     vdW  Elec       q    Type
REMARK                         _______ _______ _______ _____ _____    ______ ____
ROOT
ATOM      1  C   UNL     1       0.715  -1.238   0.000  0.00  0.00    +0.000 A 
ATOM      2  C   UNL     1       0.715  -0.412   0.000  0.00  0.00    +0.000 A 
ATOM      3  C   UNL     1       1.429   0.000   0.000  0.00  0.00    +0.000 A 
ATOM      4  F   UNL     1       1.429   0.825   0.000  0.00  0.00    +0.000 F 
ATOM      5  C   UNL     1       2.143  -0.412   0.000  0.00  0.00    +0.000 A 
ATOM      6  N   UNL     1       2.858   0.000   0.000  0.00  0.00    +0.000 NA
ATOM      7  C   UNL     1       3.572  -0.412   0.000  0.00  0.00    +0.000 A 
ATOM      8  N   UNL     1       4.287   0.000   0.000  0.00  0.00    +0.000 N 
ATOM      9  C   UNL     1       4.287   0.825   0.000  0.00  0.00    +0.000 C 
ATOM     10  C   UNL     1       5.001   1.238   0.000  0.00  0.00    +0.000 C 
ATOM     11  C   UNL     1       5.716   0.825   0.000  0.00  0.00    +0.000 C 
ATOM     12  C   UNL     1       5.716   0.000   0.000  0.00  0.00    +0.000 C 
ATOM     13  C   UNL     1       5.001  -0.412   0.000  0.00  0.00    +0.000 C 
ATOM     14  C   UNL     1       3.572  -1.238   0.000  0.00  0.00    +0.000 A 
ATOM     15  C   UNL     1       2.858  -1.650   0.000  0.00  0.00    +0.000 A 
ATOM     16  C   UNL     1       2.858  -2.475   0.000  0.00  0.00    +0.000 C 
ATOM     17  C   UNL     1       2.143  -1.238   0.000  0.00  0.00    +0.000 A 
ATOM     18  C   UNL     1       1.429  -1.650   0.000  0.00  0.00    +0.000 A 
ENDROOT
BRANCH  14  19
ATOM     19  C   UNL     1       4.287  -1.650   0.000  0.00  0.00    +0.000 A 
ATOM     20  N   UNL     1       5.040  -1.314   0.000  0.00  0.00    +0.000 NA
ATOM     21  C   UNL     1       5.593  -1.927   0.000  0.00  0.00    +0.000 A 
ATOM     22  C   UNL     1       6.413  -1.841   0.000  0.00  0.00    +0.000 C 
ATOM     23  N   UNL     1       5.180  -2.642   0.000  0.00  0.00    +0.000 NA
ATOM     24  O   UNL     1       4.373  -2.470   0.000  0.00  0.00    +0.000 OA
ENDBRANCH  14  19
BRANCH   1  26
ATOM     25  C   UNL     1       0.000  -2.475   0.000  0.00  0.00    +0.000 C 
ATOM     26  C   UNL     1       0.000  -1.650   0.000  0.00  0.00    +0.000 C 
ENDBRANCH   1  26
BRANCH  11  27
ATOM     27  N   UNL     1       6.430   1.238   0.000  0.00  0.00    +0.000 NA
BRANCH  27  28
ATOM     28  C   UNL     1       7.145   0.825   0.000  0.00  0.00    +0.000 C 
ATOM     29  C   UNL     1       7.859   1.238   0.000  0.00  0.00    +0.000 C 
ATOM     30  C   UNL     1       8.574   0.825   0.000  0.00  0.00    +0.000 C 
ATOM     31  O   UNL     1       8.574   0.000   0.000  0.00  0.00    +0.000 OA
ATOM     32  C   UNL     1       7.859  -0.412   0.000  0.00  0.00    +0.000 C 
ATOM     33  C   UNL     1       7.145   0.000   0.000  0.00  0.00    +0.000 C 
ENDBRANCH  27  28
ENDBRANCH  11  27
TORSDOF 4
