REMARK  Name = 
REMARK  12 active torsions:
REMARK  status: ('A' for Active; 'I' for Inactive)
REMARK    1  A    between atoms: C_9  and  O_14
REMARK    2  A    between atoms: C_11  and  O_16
REMARK    3  A    between atoms: O_14  and  C_38
REMARK    4  A    between atoms: O_16  and  C_55
REMARK    5  A    between atoms: C_17  and  O_21
REMARK    6  A    between atoms: O_21  and  C_28
REMARK    7  A    between atoms: C_31  and  O_34
REMARK    8  A    between atoms: C_33  and  O_36
REMARK    9  A    between atoms: O_36  and  C_52
REMARK   10  A    between atoms: C_39  and  O_42
REMARK   11  A    between atoms: C_41  and  N_45
REMARK   12  A    between atoms: O_42  and  C_49
REMARK                            x       y       z     vdW  Elec       q    Type
REMARK                         _______ _______ _______ _____ _____    ______ ____
ROOT
ATOM      1  C   UNL     1      -0.584   3.504   0.000  0.00  0.00    +0.000 C 
ATOM      2  C   UNL     1      -0.591   4.344   0.000  0.00  0.00    +0.000 C 
ATOM      3  O   UNL     1       0.131   3.921   0.000  0.00  0.00    +0.000 OA
ATOM      4  C   UNL     1      -0.584   2.677   0.000  0.00  0.00    +0.000 C 
ATOM      5  C   UNL     1      -1.300   3.921   0.000  0.00  0.00    +0.000 C 
ATOM      6  C   UNL     1       0.135   2.271   0.000  0.00  0.00    +0.000 C 
ATOM      7  C   UNL     1      -2.012   3.504   0.000  0.00  0.00    +0.000 C 
ATOM      8  O   UNL     1      -1.300   4.740   0.000  0.00  0.00    +0.000 OA
ATOM      9  C   UNL     1       0.135   1.444   0.000  0.00  0.00    +0.000 C 
ATOM     10  C   UNL     1       0.843   2.681   0.000  0.00  0.00    +0.000 C 
ATOM     11  C   UNL     1      -2.012   2.677   0.000  0.00  0.00    +0.000 C 
ATOM     12  C   UNL     1      -2.727   3.921   0.000  0.00  0.00    +0.000 C 
ATOM     13  C   UNL     1      -0.584   1.031   0.000  0.00  0.00    +0.000 C 
ATOM     14  C   UNL     1      -2.727   2.271   0.000  0.00  0.00    +0.000 C 
ATOM     15  C   UNL     1      -0.584   0.208   0.000  0.00  0.00    +0.000 C 
ATOM     16  C   UNL     1      -1.300   1.444   0.000  0.00  0.00    +0.000 C 
ATOM     17  C   UNL     1      -2.727   1.444   0.000  0.00  0.00    +0.000 C 
ATOM     18  C   UNL     1      -3.439   2.681   0.000  0.00  0.00    +0.000 C 
ATOM     19  C   UNL     1      -1.300  -0.202   0.000  0.00  0.00    +0.000 C 
ATOM     20  O   UNL     1      -2.012   1.031   0.000  0.00  0.00    +0.000 OA
ATOM     21  C   UNL     1      -3.443   1.027   0.000  0.00  0.00    +0.000 C 
ATOM     22  C   UNL     1      -2.012   0.208   0.000  0.00  0.00    +0.000 C 
ATOM     23  C   UNL     1      -1.300  -1.025   0.000  0.00  0.00    +0.000 C 
ATOM     24  O   UNL     1      -2.727  -0.202   0.000  0.00  0.00    +0.000 OA
ENDROOT
BRANCH   9  25
ATOM     25  O   UNL     1       0.840   1.031   0.000  0.00  0.00    +0.000 OA
BRANCH  25  26
ATOM     26  C   UNL     1       1.554   0.622   0.000  0.00  0.00    +0.000 C 
ATOM     27  C   UNL     1       2.265   1.035   0.000  0.00  0.00    +0.000 C 
ATOM     28  O   UNL     1       1.557  -0.201   0.000  0.00  0.00    +0.000 OA
ATOM     29  C   UNL     1       2.979   0.625   0.000  0.00  0.00    +0.000 C 
ATOM     30  C   UNL     1       2.268  -0.609   0.000  0.00  0.00    +0.000 C 
ATOM     31  C   UNL     1       2.979  -0.196   0.000  0.00  0.00    +0.000 C 
ATOM     32  C   UNL     1       2.270  -1.432   0.000  0.00  0.00    +0.000 C 
BRANCH  29  33
ATOM     33  N   UNL     1       3.690   1.038   0.000  0.00  0.00    +0.000 NA
ATOM     34  C   UNL     1       3.681   1.864   0.000  0.00  0.00    +0.000 C 
ATOM     35  C   UNL     1       4.401   0.631   0.000  0.00  0.00    +0.000 C 
ENDBRANCH  29  33
BRANCH  27  36
ATOM     36  O   UNL     1       2.259   1.867   0.000  0.00  0.00    +0.000 OA
BRANCH  36  37
ATOM     37  C   UNL     1       2.259   2.696   0.000  0.00  0.00    +0.000 C 
ATOM     38  C   UNL     1       1.541   3.111   0.000  0.00  0.00    +0.000 C 
ATOM     39  O   UNL     1       2.978   3.111   0.000  0.00  0.00    +0.000 OA
ENDBRANCH  36  37
ENDBRANCH  27  36
ENDBRANCH  25  26
ENDBRANCH   9  25
BRANCH  15  40
ATOM     40  O   UNL     1       0.135  -0.202   0.000  0.00  0.00    +0.000 OA
BRANCH  40  41
ATOM     41  C   UNL     1       0.133  -1.025   0.000  0.00  0.00    +0.000 C 
ATOM     42  C   UNL     1      -0.586  -1.439   0.000  0.00  0.00    +0.000 C 
ATOM     43  O   UNL     1       0.843  -1.438   0.000  0.00  0.00    +0.000 OA
ATOM     44  C   UNL     1      -0.584  -2.259   0.000  0.00  0.00    +0.000 C 
ATOM     45  C   UNL     1       0.843  -2.259   0.000  0.00  0.00    +0.000 C 
ATOM     46  C   UNL     1       0.124  -2.674   0.000  0.00  0.00    +0.000 C 
ATOM     47  C   UNL     1       1.554  -2.672   0.000  0.00  0.00    +0.000 C 
BRANCH  44  48
ATOM     48  O   UNL     1      -1.295  -2.673   0.000  0.00  0.00    +0.000 OA
ATOM     49  C   UNL     1      -2.008  -2.262   0.000  0.00  0.00    +0.000 C 
ENDBRANCH  44  48
BRANCH  46  50
ATOM     50  O   UNL     1       0.127  -3.493   0.000  0.00  0.00    +0.000 OA
BRANCH  50  51
ATOM     51  C   UNL     1      -0.590  -3.911   0.000  0.00  0.00    +0.000 C 
ATOM     52  O   UNL     1      -0.587  -4.740   0.000  0.00  0.00    +0.000 OA
ATOM     53  C   UNL     1      -1.310  -3.498   0.000  0.00  0.00    +0.000 C 
ENDBRANCH  50  51
ENDBRANCH  46  50
ENDBRANCH  40  41
ENDBRANCH  15  40
BRANCH  11  54
ATOM     54  O   UNL     1      -2.965   3.175   0.000  0.00  0.00    +0.000 OA
BRANCH  54  55
ATOM     55  C   UNL     1      -3.683   3.590   0.000  0.00  0.00    +0.000 C 
ATOM     56  C   UNL     1      -4.401   3.175   0.000  0.00  0.00    +0.000 C 
ATOM     57  O   UNL     1      -3.683   4.420   0.000  0.00  0.00    +0.000 OA
ENDBRANCH  54  55
ENDBRANCH  11  54
TORSDOF 12
