REMARK  Name = 
REMARK  5 active torsions:
REMARK  status: ('A' for Active; 'I' for Inactive)
REMARK    1  A    between atoms: O_2  and  C_3
REMARK    2  A    between atoms: C_5  and  C_6
REMARK    3  A    between atoms: N_8  and  C_9
REMARK    4  A    between atoms: C_16  and  O_17
REMARK    5  A    between atoms: C_19  and  O_20
REMARK                            x       y       z     vdW  Elec       q    Type
REMARK                         _______ _______ _______ _____ _____    ______ ____
ROOT
ATOM      1  C   UNL     1      -0.714   1.444   0.000  0.00  0.00    +0.000 A 
ATOM      2  C   UNL     1       0.000   1.031   0.000  0.00  0.00    +0.000 A 
ATOM      3  C   UNL     1       0.000   0.206   0.000  0.00  0.00    +0.000 A 
ATOM      4  C   UNL     1      -0.714  -0.206   0.000  0.00  0.00    +0.000 A 
ATOM      5  C   UNL     1      -1.429   0.206   0.000  0.00  0.00    +0.000 A 
ATOM      6  C   UNL     1      -1.429   1.031   0.000  0.00  0.00    +0.000 A 
ENDROOT
BRANCH   3   7
ATOM      7  C   UNL     1       0.714  -0.206   0.000  0.00  0.00    +0.000 C 
ATOM      8  O   UNL     1       1.429   0.206   0.000  0.00  0.00    +0.000 OA
ATOM      9  N   UNL     1       0.714  -1.031   0.000  0.00  0.00    +0.000 NA
BRANCH   9  10
ATOM     10  C   UNL     1       1.429  -1.444   0.000  0.00  0.00    +0.000 C 
ATOM     11  C   UNL     1       2.143  -1.031   0.000  0.00  0.00    +0.000 C 
ATOM     12  C   UNL     1       2.858  -1.444   0.000  0.00  0.00    +0.000 C 
ATOM     13  C   UNL     1       2.858  -2.269   0.000  0.00  0.00    +0.000 C 
ATOM     14  N   UNL     1       2.143  -2.681   0.000  0.00  0.00    +0.000 NA
ATOM     15  C   UNL     1       1.429  -2.269   0.000  0.00  0.00    +0.000 C 
ENDBRANCH   9  10
ENDBRANCH   3   7
BRANCH   1  17
ATOM     16  C   UNL     1      -1.429   2.681   0.000  0.00  0.00    +0.000 C 
ATOM     17  O   UNL     1      -0.714   2.269   0.000  0.00  0.00    +0.000 OA
ENDBRANCH   1  17
BRANCH   5  18
ATOM     18  O   UNL     1      -2.143  -0.206   0.000  0.00  0.00    +0.000 OA
ATOM     19  C   UNL     1      -2.858   0.206   0.000  0.00  0.00    +0.000 C 
ENDBRANCH   5  18
BRANCH   6  20
ATOM     20  O   UNL     1      -2.143   1.444   0.000  0.00  0.00    +0.000 OA
ATOM     21  C   UNL     1      -2.858   1.031   0.000  0.00  0.00    +0.000 C 
ENDBRANCH   6  20
TORSDOF 5
