REMARK  Name = 
REMARK  9 active torsions:
REMARK  status: ('A' for Active; 'I' for Inactive)
REMARK    1  A    between atoms: O_2  and  C_19
REMARK    2  A    between atoms: N_4  and  C_13
REMARK    3  A    between atoms: C_5  and  C_6
REMARK    4  A    between atoms: C_5  and  C_7
REMARK    5  A    between atoms: C_6  and  C_8
REMARK    6  A    between atoms: C_7  and  C_10
REMARK    7  A    between atoms: C_8  and  C_11
REMARK    8  A    between atoms: C_9  and  C_12
REMARK    9  A    between atoms: C_13  and  C_14
REMARK                            x       y       z     vdW  Elec       q    Type
REMARK                         _______ _______ _______ _____ _____    ______ ____
ROOT
ATOM      1  O   UNL     1       5.130   1.341   0.000  0.00  0.00    +0.000 OA
ATOM      2  N   UNL     1       4.415   0.103   0.000  0.00  0.00    +0.000 NA
ATOM      3  C   UNL     1       5.130   0.516   0.000  0.00  0.00    +0.000 C 
ENDROOT
BRANCH   3   4
ATOM      4  C   UNL     1       5.844   0.103   0.000  0.00  0.00    +0.000 C 
BRANCH   4   5
ATOM      5  C   UNL     1       6.559   0.516   0.000  0.00  0.00    +0.000 C 
BRANCH   5   6
ATOM      6  C   UNL     1       7.273   0.103   0.000  0.00  0.00    +0.000 C 
BRANCH   6   7
ATOM      7  C   UNL     1       7.987   0.516   0.000  0.00  0.00    +0.000 C 
BRANCH   7   8
ATOM      8  C   UNL     1       8.702   0.103   0.000  0.00  0.00    +0.000 C 
ATOM      9  C   UNL     1       9.416   0.516   0.000  0.00  0.00    +0.000 C 
BRANCH   9  10
ATOM     10  C   UNL     1      10.131   0.103   0.000  0.00  0.00    +0.000 C 
ATOM     11  C   UNL     1      10.845   0.516   0.000  0.00  0.00    +0.000 C 
ATOM     12  C   UNL     1      10.131  -0.722   0.000  0.00  0.00    +0.000 C 
ENDBRANCH   9  10
ENDBRANCH   7   8
ENDBRANCH   6   7
ENDBRANCH   5   6
ENDBRANCH   4   5
ENDBRANCH   3   4
BRANCH   2  13
ATOM     13  C   UNL     1       3.701   0.515   0.000  0.00  0.00    +0.000 C 
BRANCH  13  15
ATOM     14  O   UNL     1       0.843  -1.134   0.000  0.00  0.00    +0.000 OA
ATOM     15  C   UNL     1       2.986   0.103   0.000  0.00  0.00    +0.000 A 
ATOM     16  C   UNL     1       2.272   0.516   0.000  0.00  0.00    +0.000 A 
ATOM     17  C   UNL     1       2.986  -0.722   0.000  0.00  0.00    +0.000 A 
ATOM     18  C   UNL     1       1.557   0.103   0.000  0.00  0.00    +0.000 A 
ATOM     19  C   UNL     1       2.272  -1.134   0.000  0.00  0.00    +0.000 A 
ATOM     20  C   UNL     1       1.557  -0.722   0.000  0.00  0.00    +0.000 A 
BRANCH  18  21
ATOM     21  O   UNL     1       0.843   0.516   0.000  0.00  0.00    +0.000 OA
ATOM     22  C   UNL     1       0.843   1.341   0.000  0.00  0.00    +0.000 C 
ENDBRANCH  18  21
ENDBRANCH  13  15
ENDBRANCH   2  13
TORSDOF 9
