REMARK  Name = 
REMARK  6 active torsions:
REMARK  status: ('A' for Active; 'I' for Inactive)
REMARK    1  A    between atoms: C_2  and  C_4
REMARK    2  A    between atoms: C_2  and  O_7
REMARK    3  A    between atoms: O_7  and  C_8
REMARK    4  A    between atoms: C_16  and  C_18
REMARK    5  A    between atoms: C_16  and  O_21
REMARK    6  A    between atoms: O_21  and  C_22
REMARK                            x       y       z     vdW  Elec       q    Type
REMARK                         _______ _______ _______ _____ _____    ______ ____
ROOT
ATOM      1  O   UNL     1      -0.572   0.440   0.000  0.00  0.00    +0.000 OA
ENDROOT
BRANCH   1   2
ATOM      2  C   UNL     1      -0.572  -0.385   0.000  0.00  0.00    +0.000 A 
ATOM      3  C   UNL     1       0.143  -0.797   0.000  0.00  0.00    +0.000 A 
ATOM      4  C   UNL     1       0.143  -1.623   0.000  0.00  0.00    +0.000 A 
ATOM      5  C   UNL     1      -0.572  -2.035   0.000  0.00  0.00    +0.000 A 
ATOM      6  C   UNL     1      -1.286  -1.623   0.000  0.00  0.00    +0.000 A 
ATOM      7  C   UNL     1      -1.286  -0.797   0.000  0.00  0.00    +0.000 A 
ATOM      8 CL   UNL     1      -0.572  -2.860   0.000  0.00  0.00    +0.000 Cl
ENDBRANCH   1   2
BRANCH   1  10
ATOM      9  C   UNL     1       0.555   0.138   0.000  0.00  0.00    +0.000 C 
ATOM     10  C   UNL     1       0.143   0.853   0.000  0.00  0.00    +0.000 C 
ATOM     11  C   UNL     1      -0.270   1.567   0.000  0.00  0.00    +0.000 C 
BRANCH  10  12
ATOM     12  C   UNL     1       0.857   1.265   0.000  0.00  0.00    +0.000 C 
ATOM     13  O   UNL     1       1.572   0.853   0.000  0.00  0.00    +0.000 OA
ATOM     14  O   UNL     1       0.857   2.090   0.000  0.00  0.00    +0.000 OA
ENDBRANCH  10  12
ENDBRANCH   1  10
TORSDOF 3
REMARK  Name = 
REMARK  6 active torsions:
REMARK  status: ('A' for Active; 'I' for Inactive)
REMARK    1  A    between atoms: C_2  and  C_4
REMARK    2  A    between atoms: C_2  and  O_7
REMARK    3  A    between atoms: O_7  and  C_8
REMARK    4  A    between atoms: C_16  and  C_18
REMARK    5  A    between atoms: C_16  and  O_21
REMARK    6  A    between atoms: O_21  and  C_22
REMARK                            x       y       z     vdW  Elec       q    Type
REMARK                         _______ _______ _______ _____ _____    ______ ____
ROOT
ATOM      1  O   UNL     1       5.955   0.648   0.000  0.00  0.00    +0.000 OA
ENDROOT
BRANCH   1   2
ATOM      2  C   UNL     1       5.955  -0.177   0.000  0.00  0.00    +0.000 A 
ATOM      3  C   UNL     1       6.669  -0.589   0.000  0.00  0.00    +0.000 A 
ATOM      4  C   UNL     1       6.669  -1.414   0.000  0.00  0.00    +0.000 A 
ATOM      5  C   UNL     1       5.955  -1.827   0.000  0.00  0.00    +0.000 A 
ATOM      6  C   UNL     1       5.240  -1.414   0.000  0.00  0.00    +0.000 A 
ATOM      7  C   UNL     1       5.240  -0.589   0.000  0.00  0.00    +0.000 A 
ATOM      8 CL   UNL     1       5.955  -2.652   0.000  0.00  0.00    +0.000 Cl
ENDBRANCH   1   2
BRANCH   1  10
ATOM      9  C   UNL     1       4.828   0.346   0.000  0.00  0.00    +0.000 C 
ATOM     10  C   UNL     1       5.240   1.061   0.000  0.00  0.00    +0.000 C 
ATOM     11  C   UNL     1       5.653   1.775   0.000  0.00  0.00    +0.000 C 
BRANCH  10  12
ATOM     12  C   UNL     1       4.526   1.473   0.000  0.00  0.00    +0.000 C 
ATOM     13  O   UNL     1       4.526   2.298   0.000  0.00  0.00    +0.000 OA
ATOM     14  O   UNL     1       3.811   1.061   0.000  0.00  0.00    +0.000 OA
ENDBRANCH  10  12
ENDBRANCH   1  10
TORSDOF 3
REMARK  Name = 
REMARK  6 active torsions:
REMARK  status: ('A' for Active; 'I' for Inactive)
REMARK    1  A    between atoms: C_2  and  C_4
REMARK    2  A    between atoms: C_2  and  O_7
REMARK    3  A    between atoms: O_7  and  C_8
REMARK    4  A    between atoms: C_16  and  C_18
REMARK    5  A    between atoms: C_16  and  O_21
REMARK    6  A    between atoms: O_21  and  C_22
REMARK                            x       y       z     vdW  Elec       q    Type
REMARK                         _______ _______ _______ _____ _____    ______ ____
ROOT
ATOM      1  O   HOH     1       0.000  -4.510   0.000  0.00  0.00    +0.000 OA
ENDROOT
TORSDOF 0
REMARK  Name = 
REMARK  6 active torsions:
REMARK  status: ('A' for Active; 'I' for Inactive)
REMARK    1  A    between atoms: C_2  and  C_4
REMARK    2  A    between atoms: C_2  and  O_7
REMARK    3  A    between atoms: O_7  and  C_8
REMARK    4  A    between atoms: C_16  and  C_18
REMARK    5  A    between atoms: C_16  and  O_21
REMARK    6  A    between atoms: O_21  and  C_22
REMARK                            x       y       z     vdW  Elec       q    Type
REMARK                         _______ _______ _______ _____ _____    ______ ____
ROOT
ATOM      1 AL   UNL     1       0.857   2.915   0.000  0.00  0.00    +0.000 Al
ENDROOT
TORSDOF 0
