REMARK  Name = 
REMARK  9 active torsions:
REMARK  status: ('A' for Active; 'I' for Inactive)
REMARK    1  A    between atoms: C_4  and  C_6
REMARK    2  A    between atoms: C_6  and  N_7
REMARK    3  A    between atoms: N_7  and  C_8
REMARK    4  A    between atoms: N_7  and  C_12
REMARK    5  A    between atoms: C_8  and  C_9
REMARK    6  A    between atoms: C_13  and  C_14
REMARK    7  A    between atoms: C_16  and  C_17
REMARK    8  A    between atoms: C_17  and  C_18
REMARK    9  A    between atoms: C_21  and  C_22
REMARK                            x       y       z     vdW  Elec       q    Type
REMARK                         _______ _______ _______ _____ _____    ______ ____
ROOT
ATOM      1 SR   UNL     1      -4.407   0.000   0.000  0.00  0.00    +0.000 Sr
ENDROOT
TORSDOF 0
REMARK  Name = 
REMARK  9 active torsions:
REMARK  status: ('A' for Active; 'I' for Inactive)
REMARK    1  A    between atoms: C_4  and  C_6
REMARK    2  A    between atoms: C_6  and  N_7
REMARK    3  A    between atoms: N_7  and  C_8
REMARK    4  A    between atoms: N_7  and  C_12
REMARK    5  A    between atoms: C_8  and  C_9
REMARK    6  A    between atoms: C_13  and  C_14
REMARK    7  A    between atoms: C_16  and  C_17
REMARK    8  A    between atoms: C_17  and  C_18
REMARK    9  A    between atoms: C_21  and  C_22
REMARK                            x       y       z     vdW  Elec       q    Type
REMARK                         _______ _______ _______ _____ _____    ______ ____
ROOT
ATOM      1 SR   UNL     1      -2.759   0.000   0.000  0.00  0.00    +0.000 Sr
ENDROOT
TORSDOF 0
REMARK  Name = 
REMARK  9 active torsions:
REMARK  status: ('A' for Active; 'I' for Inactive)
REMARK    1  A    between atoms: C_4  and  C_6
REMARK    2  A    between atoms: C_6  and  N_7
REMARK    3  A    between atoms: N_7  and  C_8
REMARK    4  A    between atoms: N_7  and  C_12
REMARK    5  A    between atoms: C_8  and  C_9
REMARK    6  A    between atoms: C_13  and  C_14
REMARK    7  A    between atoms: C_16  and  C_17
REMARK    8  A    between atoms: C_17  and  C_18
REMARK    9  A    between atoms: C_21  and  C_22
REMARK                            x       y       z     vdW  Elec       q    Type
REMARK                         _______ _______ _______ _____ _____    ______ ____
ROOT
ATOM      1  C   UNL     1       1.675   0.229   0.000  0.00  0.00    +0.000 A 
ATOM      2  C   UNL     1       1.931  -0.555   0.000  0.00  0.00    +0.000 A 
ATOM      3  C   UNL     1       2.759  -0.555   0.000  0.00  0.00    +0.000 A 
ATOM      4  C   UNL     1       3.015   0.229   0.000  0.00  0.00    +0.000 A 
ATOM      5  S   UNL     1       2.345   0.714   0.000  0.00  0.00    +0.000 S 
ENDROOT
BRANCH   4   6
ATOM      6  C   UNL     1       3.799   0.476   0.000  0.00  0.00    +0.000 C 
ATOM      7  O   UNL     1       4.407  -0.070   0.000  0.00  0.00    +0.000 OA
ATOM      8  O   UNL     1       3.967   1.287   0.000  0.00  0.00    +0.000 OA
ENDBRANCH   4   6
BRANCH   2   9
ATOM      9  C   UNL     1       1.446  -1.225   0.000  0.00  0.00    +0.000 C 
ATOM     10  N   UNL     1       0.961  -1.886   0.000  0.00  0.00    +0.000 NA
ENDBRANCH   2   9
BRANCH   3  11
ATOM     11  C   UNL     1       3.235  -1.225   0.000  0.00  0.00    +0.000 C 
BRANCH  11  12
ATOM     12  C   UNL     1       2.900  -1.974   0.000  0.00  0.00    +0.000 C 
ATOM     13  O   UNL     1       2.080  -2.063   0.000  0.00  0.00    +0.000 OA
ATOM     14  O   UNL     1       3.385  -2.644   0.000  0.00  0.00    +0.000 OA
ENDBRANCH  11  12
ENDBRANCH   3  11
BRANCH   1  15
ATOM     15  N   UNL     1       0.890   0.476   0.000  0.00  0.00    +0.000 N 
BRANCH  15  16
ATOM     16  C   UNL     1       0.282  -0.070   0.000  0.00  0.00    +0.000 C 
BRANCH  16  18
ATOM     17  O   UNL     1      -0.670   0.987   0.000  0.00  0.00    +0.000 OA
ATOM     18  C   UNL     1      -0.502   0.185   0.000  0.00  0.00    +0.000 C 
ATOM     19  O   UNL     1      -1.111  -0.370   0.000  0.00  0.00    +0.000 OA
ENDBRANCH  16  18
ENDBRANCH  15  16
BRANCH  15  20
ATOM     20  C   UNL     1       0.723   1.287   0.000  0.00  0.00    +0.000 C 
BRANCH  20  21
ATOM     21  C   UNL     1       1.331   1.833   0.000  0.00  0.00    +0.000 C 
ATOM     22  O   UNL     1       2.116   1.587   0.000  0.00  0.00    +0.000 OA
ATOM     23  O   UNL     1       1.163   2.644   0.000  0.00  0.00    +0.000 OA
ENDBRANCH  20  21
ENDBRANCH  15  20
ENDBRANCH   1  15
TORSDOF 9
