REMARK  Name = 
REMARK  1 active torsions:
REMARK  status: ('A' for Active; 'I' for Inactive)
REMARK    1  A    between atoms: C_2  and  C_5
REMARK                            x       y       z     vdW  Elec       q    Type
REMARK                         _______ _______ _______ _____ _____    ______ ____
ROOT
ATOM      1  C   UNL     1       0.825  -1.650   0.000  0.00  0.00    +0.000 C 
ATOM      2  C   UNL     1       0.825  -0.825   0.000  0.00  0.00    +0.000 C 
ATOM      3  C   UNL     1       1.650  -0.825   0.000  0.00  0.00    +0.000 C 
ATOM      4  O   UNL     1       0.000  -0.825   0.000  0.00  0.00    +0.000 OA
ENDROOT
BRANCH   2   5
ATOM      5  C   UNL     1       0.825   0.000   0.000  0.00  0.00    +0.000 C 
ATOM      6 CL   UNL     1       0.825   0.825   0.000  0.00  0.00    +0.000 Cl
ATOM      7 CL   UNL     1       1.650   0.000   0.000  0.00  0.00    +0.000 Cl
ATOM      8 CL   UNL     1       0.000   0.000   0.000  0.00  0.00    +0.000 Cl
ENDBRANCH   2   5
TORSDOF 1
