REMARK  Name = 
REMARK  7 active torsions:
REMARK  status: ('A' for Active; 'I' for Inactive)
REMARK    1  A    between atoms: CA_3  and  C_8
REMARK    2  A    between atoms: CA_5  and  N_10
REMARK    3  A    between atoms: C_15  and  C_16
REMARK    4  A    between atoms: C_16  and  C_18
REMARK    5  A    between atoms: C_18  and  C_19
REMARK    6  A    between atoms: C_19  and  CA_20
REMARK    7  A    between atoms: CA_20  and  C_21
REMARK                            x       y       z     vdW  Elec       q    Type
REMARK                         _______ _______ _______ _____ _____    ______ ____
ROOT
ATOM      1  N   UNL     1       2.479  -0.369   0.000  0.00  0.00    +0.000 N 
ATOM      2  C   UNL     1       2.479   0.457   0.000  0.00  0.00    +0.000 C 
ATOM      3  CA  UNL     1       3.191  -0.798   0.000  0.00  0.00    +0.000 C 
ATOM      4  C   UNL     1       1.653  -0.369   0.000  0.00  0.00    +0.000 C 
ATOM      5  CA  UNL     1       1.653   0.457   0.000  0.00  0.00    +0.000 C 
ATOM      6  S   UNL     1       3.191   0.870   0.000  0.00  0.00    +0.000 S 
ATOM      7  C   UNL     1       3.915  -0.377   0.000  0.00  0.00    +0.000 C 
ATOM      8  O   UNL     1       1.069  -0.949   0.000  0.00  0.00    +0.000 OA
ATOM      9  C   UNL     1       3.915   0.457   0.000  0.00  0.00    +0.000 C 
ATOM     10  C   UNL     1       4.628  -0.786   0.000  0.00  0.00    +0.000 C 
ENDROOT
BRANCH   3  11
ATOM     11  C   UNL     1       3.184  -1.624   0.000  0.00  0.00    +0.000 C 
ATOM     12  O   UNL     1       2.467  -2.026   0.000  0.00  0.00    +0.000 OA
ATOM     13  OXT UNL     1       3.896  -2.037   0.000  0.00  0.00    +0.000 OA
ENDBRANCH   3  11
BRANCH   5  14
ATOM     14  N   UNL     1       0.368   0.802   0.000  0.00  0.00    +0.000 NA
ATOM     15  C   UNL     1      -0.345   1.211   0.000  0.00  0.00    +0.000 C 
ATOM     16  O   UNL     1      -0.345   2.037   0.000  0.00  0.00    +0.000 OA
BRANCH  15  17
ATOM     17  C   UNL     1      -1.057   0.802   0.000  0.00  0.00    +0.000 C 
BRANCH  17  18
ATOM     18  C   UNL     1      -1.774   1.211   0.000  0.00  0.00    +0.000 C 
BRANCH  18  19
ATOM     19  C   UNL     1      -2.486   0.802   0.000  0.00  0.00    +0.000 C 
BRANCH  19  20
ATOM     20  CA  UNL     1      -3.199   1.211   0.000  0.00  0.00    +0.000 C 
ATOM     21  N   UNL     1      -3.199   2.037   0.000  0.00  0.00    +0.000 NA
BRANCH  20  22
ATOM     22  C   UNL     1      -3.915   0.802   0.000  0.00  0.00    +0.000 C 
ATOM     23  O   UNL     1      -4.628   1.215   0.000  0.00  0.00    +0.000 OA
ATOM     24  OXT UNL     1      -3.912  -0.025   0.000  0.00  0.00    +0.000 OA
ENDBRANCH  20  22
ENDBRANCH  19  20
ENDBRANCH  18  19
ENDBRANCH  17  18
ENDBRANCH  15  17
ENDBRANCH   5  14
TORSDOF 7
