REMARK  Name = 
REMARK  1 active torsions:
REMARK  status: ('A' for Active; 'I' for Inactive)
REMARK    1  A    between atoms: CA_3  and  C_7
REMARK                            x       y       z     vdW  Elec       q    Type
REMARK                         _______ _______ _______ _____ _____    ______ ____
ROOT
ATOM      1  N   UNL     1      -0.369   0.009   0.000  0.00  0.00    +0.000 N 
ATOM      2  C   UNL     1      -0.369   0.834   0.000  0.00  0.00    +0.000 C 
ATOM      3  CA  UNL     1       0.343  -0.418   0.000  0.00  0.00    +0.000 C 
ATOM      4  C   UNL     1      -1.194   0.009   0.000  0.00  0.00    +0.000 C 
ATOM      5  S   UNL     1       0.343   1.247   0.000  0.00  0.00    +0.000 S 
ATOM      6  C   UNL     1       1.065   0.002   0.000  0.00  0.00    +0.000 C 
ATOM      7  O   UNL     1      -1.776  -0.570   0.000  0.00  0.00    +0.000 OA
ATOM      8  C   UNL     1       1.065   0.834   0.000  0.00  0.00    +0.000 C 
ATOM      9  C   UNL     1       1.777  -0.407   0.000  0.00  0.00    +0.000 C 
ATOM     10  CA  UNL     1      -1.194   0.834   0.000  0.00  0.00    +0.000 C 
ATOM     11  N   UNL     1      -1.777   1.418   0.000  0.00  0.00    +0.000 NA
ENDROOT
BRANCH   3  12
ATOM     12  C   UNL     1       0.335  -1.243   0.000  0.00  0.00    +0.000 C 
ATOM     13  O   UNL     1      -0.380  -1.644   0.000  0.00  0.00    +0.000 OA
ATOM     14  OXT UNL     1       1.046  -1.655   0.000  0.00  0.00    +0.000 OA
ENDBRANCH   3  12
TORSDOF 1
