REMARK  Name = 
REMARK  1 active torsions:
REMARK  status: ('A' for Active; 'I' for Inactive)
REMARK    1  A    between atoms: C_3  and  C_31
REMARK                            x       y       z     vdW  Elec       q    Type
REMARK                         _______ _______ _______ _____ _____    ______ ____
ROOT
ATOM      1  C   UNL     1       3.680   0.587   0.000  0.00  0.00    +0.000 C 
ATOM      2  C   UNL     1       4.469   0.347   0.000  0.00  0.00    +0.000 C 
ATOM      3  C   UNL     1       4.763   1.176   0.000  0.00  0.00    +0.000 C 
ATOM      4  C   UNL     1       5.632   1.172   0.000  0.00  0.00    +0.000 C 
ATOM      5  C   UNL     1       5.925   0.349   0.000  0.00  0.00    +0.000 C 
ATOM      6  O   UNL     1       5.199   0.266   0.000  0.00  0.00    +0.000 OA
ATOM      7  N   UNL     1       6.148  -0.512   0.000  0.00  0.00    +0.000 N 
ATOM      8  C   UNL     1       6.919  -0.861   0.000  0.00  0.00    +0.000 A 
ATOM      9  C   UNL     1       7.662  -0.502   0.000  0.00  0.00    +0.000 A 
ATOM     10  C   UNL     1       8.344  -0.967   0.000  0.00  0.00    +0.000 A 
ATOM     11  C   UNL     1       8.283  -1.789   0.000  0.00  0.00    +0.000 A 
ATOM     12  C   UNL     1       7.540  -2.148   0.000  0.00  0.00    +0.000 A 
ATOM     13  C   UNL     1       6.858  -1.684   0.000  0.00  0.00    +0.000 A 
ATOM     14  C   UNL     1       6.049  -1.916   0.000  0.00  0.00    +0.000 A 
ATOM     15  C   UNL     1       5.626  -1.195   0.000  0.00  0.00    +0.000 A 
ATOM     16  C   UNL     1       4.775  -1.195   0.000  0.00  0.00    +0.000 A 
ATOM     17  N   UNL     1       4.249  -0.515   0.000  0.00  0.00    +0.000 N 
ATOM     18  C   UNL     1       3.468  -0.858   0.000  0.00  0.00    +0.000 A 
ATOM     19  C   UNL     1       2.724  -0.503   0.000  0.00  0.00    +0.000 A 
ATOM     20  C   UNL     1       2.044  -0.970   0.000  0.00  0.00    +0.000 A 
ATOM     21  C   UNL     1       2.109  -1.793   0.000  0.00  0.00    +0.000 A 
ATOM     22  C   UNL     1       2.854  -2.148   0.000  0.00  0.00    +0.000 A 
ATOM     23  C   UNL     1       3.533  -1.680   0.000  0.00  0.00    +0.000 A 
ATOM     24  C   UNL     1       4.345  -1.910   0.000  0.00  0.00    +0.000 A 
ATOM     25  C   UNL     1       4.774  -2.630   0.000  0.00  0.00    +0.000 A 
ATOM     26  C   UNL     1       5.599  -2.632   0.000  0.00  0.00    +0.000 A 
ATOM     27  C   UNL     1       5.852  -3.418   0.000  0.00  0.00    +0.000 C 
ATOM     28  O   UNL     1       6.636  -3.674   0.000  0.00  0.00    +0.000 OA
ATOM     29  N   UNL     1       5.184  -3.901   0.000  0.00  0.00    +0.000 NA
ATOM     30  C   UNL     1       4.518  -3.414   0.000  0.00  0.00    +0.000 C 
ATOM     31  O   UNL     1       4.678   1.997   0.000  0.00  0.00    +0.000 OA
ENDROOT
BRANCH   3  32
ATOM     32  C   UNL     1       4.019   1.532   0.000  0.00  0.00    +0.000 C 
ATOM     33  O   UNL     1       3.338   1.066   0.000  0.00  0.00    +0.000 OA
ENDBRANCH   3  32
TORSDOF 1
