REMARK  Name = 
REMARK  38 active torsions:
REMARK  status: ('A' for Active; 'I' for Inactive)
REMARK    1  A    between atoms: C_5  and  O_19
REMARK    2  A    between atoms: C_6  and  O_20
REMARK    3  A    between atoms: C_7  and  O_21
REMARK    4  A    between atoms: C_8  and  O_22
REMARK    5  A    between atoms: C_9  and  C_13
REMARK    6  A    between atoms: C_9  and  O_19
REMARK    7  A    between atoms: C_10  and  C_14
REMARK    8  A    between atoms: C_10  and  O_20
REMARK    9  A    between atoms: C_11  and  C_15
REMARK   10  A    between atoms: C_11  and  O_21
REMARK   11  A    between atoms: C_12  and  C_16
REMARK   12  A    between atoms: C_12  and  O_22
REMARK   13  A    between atoms: C_13  and  P_23
REMARK   14  A    between atoms: C_14  and  P_23
REMARK   15  A    between atoms: C_15  and  P_24
REMARK   16  A    between atoms: C_16  and  P_24
REMARK   17  A    between atoms: C_17  and  C_18
REMARK   18  A    between atoms: C_17  and  P_23
REMARK   19  A    between atoms: C_18  and  P_24
REMARK   20  A    between atoms: C_29  and  O_43
REMARK   21  A    between atoms: C_30  and  O_44
REMARK   22  A    between atoms: C_31  and  O_45
REMARK   23  A    between atoms: C_32  and  O_46
REMARK   24  A    between atoms: C_33  and  C_37
REMARK   25  A    between atoms: C_33  and  O_43
REMARK   26  A    between atoms: C_34  and  C_38
REMARK   27  A    between atoms: C_34  and  O_44
REMARK   28  A    between atoms: C_35  and  C_39
REMARK   29  A    between atoms: C_35  and  O_45
REMARK   30  A    between atoms: C_36  and  C_40
REMARK   31  A    between atoms: C_36  and  O_46
REMARK   32  A    between atoms: C_37  and  P_47
REMARK   33  A    between atoms: C_38  and  P_47
REMARK   34  A    between atoms: C_39  and  P_48
REMARK   35  A    between atoms: C_40  and  P_48
REMARK   36  A    between atoms: C_41  and  C_42
REMARK   37  A    between atoms: C_41  and  P_47
REMARK   38  A    between atoms: C_42  and  P_48
REMARK                            x       y       z     vdW  Elec       q    Type
REMARK                         _______ _______ _______ _____ _____    ______ ____
ROOT
ATOM      1  C   UNL     1      -6.723   0.420   0.000  0.00  0.00    +0.000 C 
ENDROOT
BRANCH   1   2
ATOM      2  C   UNL     1      -6.567   1.230   0.000  0.00  0.00    +0.000 C 
BRANCH   2   3
ATOM      3  P   UNL     1      -5.787   1.500   0.000  0.00  0.00    +0.000 P 
BRANCH   3   4
ATOM      4  C   UNL     1      -5.631   2.310   0.000  0.00  0.00    +0.000 C 
BRANCH   4   5
ATOM      5  C   UNL     1      -4.852   2.580   0.000  0.00  0.00    +0.000 C 
BRANCH   5   6
ATOM      6  O   UNL     1      -4.696   3.390   0.000  0.00  0.00    +0.000 OA
BRANCH   6   8
ATOM      7  C   UNL     1      -3.760   4.471   0.000  0.00  0.00    +0.000 C 
ATOM      8  C   UNL     1      -3.916   3.660   0.000  0.00  0.00    +0.000 C 
ENDBRANCH   6   8
ENDBRANCH   5   6
ENDBRANCH   4   5
ENDBRANCH   3   4
BRANCH   3   9
ATOM      9  C   UNL     1      -5.163   0.960   0.000  0.00  0.00    +0.000 C 
BRANCH   9  10
ATOM     10  C   UNL     1      -4.384   1.230   0.000  0.00  0.00    +0.000 C 
BRANCH  10  11
ATOM     11  O   UNL     1      -3.760   0.690   0.000  0.00  0.00    +0.000 OA
BRANCH  11  13
ATOM     12  C   UNL     1      -2.357   0.420   0.000  0.00  0.00    +0.000 C 
ATOM     13  C   UNL     1      -2.981   0.960   0.000  0.00  0.00    +0.000 C 
ENDBRANCH  11  13
ENDBRANCH  10  11
ENDBRANCH   9  10
ENDBRANCH   3   9
ENDBRANCH   2   3
ENDBRANCH   1   2
BRANCH   1  14
ATOM     14  P   UNL     1      -7.502   0.150   0.000  0.00  0.00    +0.000 P 
BRANCH  14  15
ATOM     15  C   UNL     1      -7.658  -0.660   0.000  0.00  0.00    +0.000 C 
BRANCH  15  16
ATOM     16  C   UNL     1      -8.438  -0.930   0.000  0.00  0.00    +0.000 C 
BRANCH  16  17
ATOM     17  O   UNL     1      -8.594  -1.740   0.000  0.00  0.00    +0.000 OA
BRANCH  17  19
ATOM     18  C   UNL     1      -9.529  -2.821   0.000  0.00  0.00    +0.000 C 
ATOM     19  C   UNL     1      -9.373  -2.010   0.000  0.00  0.00    +0.000 C 
ENDBRANCH  17  19
ENDBRANCH  16  17
ENDBRANCH  15  16
ENDBRANCH  14  15
BRANCH  14  20
ATOM     20  C   UNL     1      -8.126   0.690   0.000  0.00  0.00    +0.000 C 
BRANCH  20  21
ATOM     21  C   UNL     1      -8.905   0.420   0.000  0.00  0.00    +0.000 C 
BRANCH  21  22
ATOM     22  O   UNL     1      -9.529   0.960   0.000  0.00  0.00    +0.000 OA
BRANCH  22  24
ATOM     23  C   UNL     1     -10.932   1.230   0.000  0.00  0.00    +0.000 C 
ATOM     24  C   UNL     1     -10.309   0.690   0.000  0.00  0.00    +0.000 C 
ENDBRANCH  22  24
ENDBRANCH  21  22
ENDBRANCH  20  21
ENDBRANCH  14  20
ENDBRANCH   1  14
TORSDOF 19
REMARK  Name = 
REMARK  38 active torsions:
REMARK  status: ('A' for Active; 'I' for Inactive)
REMARK    1  A    between atoms: C_5  and  O_19
REMARK    2  A    between atoms: C_6  and  O_20
REMARK    3  A    between atoms: C_7  and  O_21
REMARK    4  A    between atoms: C_8  and  O_22
REMARK    5  A    between atoms: C_9  and  C_13
REMARK    6  A    between atoms: C_9  and  O_19
REMARK    7  A    between atoms: C_10  and  C_14
REMARK    8  A    between atoms: C_10  and  O_20
REMARK    9  A    between atoms: C_11  and  C_15
REMARK   10  A    between atoms: C_11  and  O_21
REMARK   11  A    between atoms: C_12  and  C_16
REMARK   12  A    between atoms: C_12  and  O_22
REMARK   13  A    between atoms: C_13  and  P_23
REMARK   14  A    between atoms: C_14  and  P_23
REMARK   15  A    between atoms: C_15  and  P_24
REMARK   16  A    between atoms: C_16  and  P_24
REMARK   17  A    between atoms: C_17  and  C_18
REMARK   18  A    between atoms: C_17  and  P_23
REMARK   19  A    between atoms: C_18  and  P_24
REMARK   20  A    between atoms: C_29  and  O_43
REMARK   21  A    between atoms: C_30  and  O_44
REMARK   22  A    between atoms: C_31  and  O_45
REMARK   23  A    between atoms: C_32  and  O_46
REMARK   24  A    between atoms: C_33  and  C_37
REMARK   25  A    between atoms: C_33  and  O_43
REMARK   26  A    between atoms: C_34  and  C_38
REMARK   27  A    between atoms: C_34  and  O_44
REMARK   28  A    between atoms: C_35  and  C_39
REMARK   29  A    between atoms: C_35  and  O_45
REMARK   30  A    between atoms: C_36  and  C_40
REMARK   31  A    between atoms: C_36  and  O_46
REMARK   32  A    between atoms: C_37  and  P_47
REMARK   33  A    between atoms: C_38  and  P_47
REMARK   34  A    between atoms: C_39  and  P_48
REMARK   35  A    between atoms: C_40  and  P_48
REMARK   36  A    between atoms: C_41  and  C_42
REMARK   37  A    between atoms: C_41  and  P_47
REMARK   38  A    between atoms: C_42  and  P_48
REMARK                            x       y       z     vdW  Elec       q    Type
REMARK                         _______ _______ _______ _____ _____    ______ ____
ROOT
ATOM      1  C   UNL     1       4.210   0.420   0.000  0.00  0.00    +0.000 C 
ENDROOT
BRANCH   1   2
ATOM      2  C   UNL     1       4.365   1.230   0.000  0.00  0.00    +0.000 C 
BRANCH   2   3
ATOM      3  P   UNL     1       5.145   1.500   0.000  0.00  0.00    +0.000 P 
BRANCH   3   4
ATOM      4  C   UNL     1       5.301   2.310   0.000  0.00  0.00    +0.000 C 
BRANCH   4   5
ATOM      5  C   UNL     1       6.080   2.580   0.000  0.00  0.00    +0.000 C 
BRANCH   5   6
ATOM      6  O   UNL     1       6.236   3.390   0.000  0.00  0.00    +0.000 OA
BRANCH   6   8
ATOM      7  C   UNL     1       7.172   4.471   0.000  0.00  0.00    +0.000 C 
ATOM      8  C   UNL     1       7.016   3.660   0.000  0.00  0.00    +0.000 C 
ENDBRANCH   6   8
ENDBRANCH   5   6
ENDBRANCH   4   5
ENDBRANCH   3   4
BRANCH   3   9
ATOM      9  C   UNL     1       5.769   0.960   0.000  0.00  0.00    +0.000 C 
BRANCH   9  10
ATOM     10  C   UNL     1       6.548   1.230   0.000  0.00  0.00    +0.000 C 
BRANCH  10  11
ATOM     11  O   UNL     1       7.172   0.690   0.000  0.00  0.00    +0.000 OA
BRANCH  11  13
ATOM     12  C   UNL     1       8.575   0.420   0.000  0.00  0.00    +0.000 C 
ATOM     13  C   UNL     1       7.951   0.960   0.000  0.00  0.00    +0.000 C 
ENDBRANCH  11  13
ENDBRANCH  10  11
ENDBRANCH   9  10
ENDBRANCH   3   9
ENDBRANCH   2   3
ENDBRANCH   1   2
BRANCH   1  14
ATOM     14  P   UNL     1       3.430   0.150   0.000  0.00  0.00    +0.000 P 
BRANCH  14  15
ATOM     15  C   UNL     1       3.274  -0.660   0.000  0.00  0.00    +0.000 C 
BRANCH  15  16
ATOM     16  C   UNL     1       2.494  -0.930   0.000  0.00  0.00    +0.000 C 
BRANCH  16  17
ATOM     17  O   UNL     1       2.339  -1.740   0.000  0.00  0.00    +0.000 OA
BRANCH  17  19
ATOM     18  C   UNL     1       1.403  -2.821   0.000  0.00  0.00    +0.000 C 
ATOM     19  C   UNL     1       1.559  -2.010   0.000  0.00  0.00    +0.000 C 
ENDBRANCH  17  19
ENDBRANCH  16  17
ENDBRANCH  15  16
ENDBRANCH  14  15
BRANCH  14  20
ATOM     20  C   UNL     1       2.806   0.690   0.000  0.00  0.00    +0.000 C 
BRANCH  20  21
ATOM     21  C   UNL     1       2.027   0.420   0.000  0.00  0.00    +0.000 C 
BRANCH  21  22
ATOM     22  O   UNL     1       1.403   0.960   0.000  0.00  0.00    +0.000 OA
BRANCH  22  24
ATOM     23  C   UNL     1       0.000   1.230   0.000  0.00  0.00    +0.000 C 
ATOM     24  C   UNL     1       0.624   0.690   0.000  0.00  0.00    +0.000 C 
ENDBRANCH  22  24
ENDBRANCH  21  22
ENDBRANCH  20  21
ENDBRANCH  14  20
ENDBRANCH   1  14
TORSDOF 19
REMARK  Name = 
REMARK  38 active torsions:
REMARK  status: ('A' for Active; 'I' for Inactive)
REMARK    1  A    between atoms: C_5  and  O_19
REMARK    2  A    between atoms: C_6  and  O_20
REMARK    3  A    between atoms: C_7  and  O_21
REMARK    4  A    between atoms: C_8  and  O_22
REMARK    5  A    between atoms: C_9  and  C_13
REMARK    6  A    between atoms: C_9  and  O_19
REMARK    7  A    between atoms: C_10  and  C_14
REMARK    8  A    between atoms: C_10  and  O_20
REMARK    9  A    between atoms: C_11  and  C_15
REMARK   10  A    between atoms: C_11  and  O_21
REMARK   11  A    between atoms: C_12  and  C_16
REMARK   12  A    between atoms: C_12  and  O_22
REMARK   13  A    between atoms: C_13  and  P_23
REMARK   14  A    between atoms: C_14  and  P_23
REMARK   15  A    between atoms: C_15  and  P_24
REMARK   16  A    between atoms: C_16  and  P_24
REMARK   17  A    between atoms: C_17  and  C_18
REMARK   18  A    between atoms: C_17  and  P_23
REMARK   19  A    between atoms: C_18  and  P_24
REMARK   20  A    between atoms: C_29  and  O_43
REMARK   21  A    between atoms: C_30  and  O_44
REMARK   22  A    between atoms: C_31  and  O_45
REMARK   23  A    between atoms: C_32  and  O_46
REMARK   24  A    between atoms: C_33  and  C_37
REMARK   25  A    between atoms: C_33  and  O_43
REMARK   26  A    between atoms: C_34  and  C_38
REMARK   27  A    between atoms: C_34  and  O_44
REMARK   28  A    between atoms: C_35  and  C_39
REMARK   29  A    between atoms: C_35  and  O_45
REMARK   30  A    between atoms: C_36  and  C_40
REMARK   31  A    between atoms: C_36  and  O_46
REMARK   32  A    between atoms: C_37  and  P_47
REMARK   33  A    between atoms: C_38  and  P_47
REMARK   34  A    between atoms: C_39  and  P_48
REMARK   35  A    between atoms: C_40  and  P_48
REMARK   36  A    between atoms: C_41  and  C_42
REMARK   37  A    between atoms: C_41  and  P_47
REMARK   38  A    between atoms: C_42  and  P_48
REMARK                            x       y       z     vdW  Elec       q    Type
REMARK                         _______ _______ _______ _____ _____    ______ ____
ROOT
ATOM      1  O   HOH     1      10.932   0.825   0.000  0.00  0.00    +0.000 OA
ENDROOT
TORSDOF 0
REMARK  Name = 
REMARK  38 active torsions:
REMARK  status: ('A' for Active; 'I' for Inactive)
REMARK    1  A    between atoms: C_5  and  O_19
REMARK    2  A    between atoms: C_6  and  O_20
REMARK    3  A    between atoms: C_7  and  O_21
REMARK    4  A    between atoms: C_8  and  O_22
REMARK    5  A    between atoms: C_9  and  C_13
REMARK    6  A    between atoms: C_9  and  O_19
REMARK    7  A    between atoms: C_10  and  C_14
REMARK    8  A    between atoms: C_10  and  O_20
REMARK    9  A    between atoms: C_11  and  C_15
REMARK   10  A    between atoms: C_11  and  O_21
REMARK   11  A    between atoms: C_12  and  C_16
REMARK   12  A    between atoms: C_12  and  O_22
REMARK   13  A    between atoms: C_13  and  P_23
REMARK   14  A    between atoms: C_14  and  P_23
REMARK   15  A    between atoms: C_15  and  P_24
REMARK   16  A    between atoms: C_16  and  P_24
REMARK   17  A    between atoms: C_17  and  C_18
REMARK   18  A    between atoms: C_17  and  P_23
REMARK   19  A    between atoms: C_18  and  P_24
REMARK   20  A    between atoms: C_29  and  O_43
REMARK   21  A    between atoms: C_30  and  O_44
REMARK   22  A    between atoms: C_31  and  O_45
REMARK   23  A    between atoms: C_32  and  O_46
REMARK   24  A    between atoms: C_33  and  C_37
REMARK   25  A    between atoms: C_33  and  O_43
REMARK   26  A    between atoms: C_34  and  C_38
REMARK   27  A    between atoms: C_34  and  O_44
REMARK   28  A    between atoms: C_35  and  C_39
REMARK   29  A    between atoms: C_35  and  O_45
REMARK   30  A    between atoms: C_36  and  C_40
REMARK   31  A    between atoms: C_36  and  O_46
REMARK   32  A    between atoms: C_37  and  P_47
REMARK   33  A    between atoms: C_38  and  P_47
REMARK   34  A    between atoms: C_39  and  P_48
REMARK   35  A    between atoms: C_40  and  P_48
REMARK   36  A    between atoms: C_41  and  C_42
REMARK   37  A    between atoms: C_41  and  P_47
REMARK   38  A    between atoms: C_42  and  P_48
REMARK                            x       y       z     vdW  Elec       q    Type
REMARK                         _______ _______ _______ _____ _____    ______ ____
ROOT
ATOM      1  O   HOH     1      -6.645  -4.471   0.000  0.00  0.00    +0.000 OA
ENDROOT
TORSDOF 0
REMARK  Name = 
REMARK  38 active torsions:
REMARK  status: ('A' for Active; 'I' for Inactive)
REMARK    1  A    between atoms: C_5  and  O_19
REMARK    2  A    between atoms: C_6  and  O_20
REMARK    3  A    between atoms: C_7  and  O_21
REMARK    4  A    between atoms: C_8  and  O_22
REMARK    5  A    between atoms: C_9  and  C_13
REMARK    6  A    between atoms: C_9  and  O_19
REMARK    7  A    between atoms: C_10  and  C_14
REMARK    8  A    between atoms: C_10  and  O_20
REMARK    9  A    between atoms: C_11  and  C_15
REMARK   10  A    between atoms: C_11  and  O_21
REMARK   11  A    between atoms: C_12  and  C_16
REMARK   12  A    between atoms: C_12  and  O_22
REMARK   13  A    between atoms: C_13  and  P_23
REMARK   14  A    between atoms: C_14  and  P_23
REMARK   15  A    between atoms: C_15  and  P_24
REMARK   16  A    between atoms: C_16  and  P_24
REMARK   17  A    between atoms: C_17  and  C_18
REMARK   18  A    between atoms: C_17  and  P_23
REMARK   19  A    between atoms: C_18  and  P_24
REMARK   20  A    between atoms: C_29  and  O_43
REMARK   21  A    between atoms: C_30  and  O_44
REMARK   22  A    between atoms: C_31  and  O_45
REMARK   23  A    between atoms: C_32  and  O_46
REMARK   24  A    between atoms: C_33  and  C_37
REMARK   25  A    between atoms: C_33  and  O_43
REMARK   26  A    between atoms: C_34  and  C_38
REMARK   27  A    between atoms: C_34  and  O_44
REMARK   28  A    between atoms: C_35  and  C_39
REMARK   29  A    between atoms: C_35  and  O_45
REMARK   30  A    between atoms: C_36  and  C_40
REMARK   31  A    between atoms: C_36  and  O_46
REMARK   32  A    between atoms: C_37  and  P_47
REMARK   33  A    between atoms: C_38  and  P_47
REMARK   34  A    between atoms: C_39  and  P_48
REMARK   35  A    between atoms: C_40  and  P_48
REMARK   36  A    between atoms: C_41  and  C_42
REMARK   37  A    between atoms: C_41  and  P_47
REMARK   38  A    between atoms: C_42  and  P_48
REMARK                            x       y       z     vdW  Elec       q    Type
REMARK                         _______ _______ _______ _____ _____    ______ ____
ROOT
ATOM      1 TC   UNL     1      -4.170  -4.471   0.000  0.00  0.00    +0.000 Tc
ENDROOT
TORSDOF 0
