REMARK  Name = 
REMARK  3 active torsions:
REMARK  status: ('A' for Active; 'I' for Inactive)
REMARK    1  A    between atoms: N_2  and  C_3
REMARK    2  A    between atoms: C_3  and  C_4
REMARK    3  A    between atoms: C_4  and  S_5
REMARK                            x       y       z     vdW  Elec       q    Type
REMARK                         _______ _______ _______ _____ _____    ______ ____
ROOT
ATOM      1  C   UNL     1       0.302   0.000   0.000  0.00  0.00    +0.000 C 
ENDROOT
BRANCH   1   2
ATOM      2  S   UNL     1       0.302   0.825   0.000  0.00  0.00    +0.000 S 
ATOM      3  O   UNL     1       0.302   1.650   0.000  0.00  0.00    +0.000 OA
ATOM      4  O   UNL     1       1.127   0.825   0.000  0.00  0.00    +0.000 OA
ATOM      5  O   UNL     1      -0.523   0.825   0.000  0.00  0.00    +0.000 OA
ENDBRANCH   1   2
BRANCH   1   6
ATOM      6  C   UNL     1      -0.412  -0.412   0.000  0.00  0.00    +0.000 C 
BRANCH   6   8
ATOM      7 CL   UNL     1      -1.127  -1.650   0.000  0.00  0.00    +0.000 Cl
ATOM      8  N   UNL     1      -0.412  -1.238   0.000  0.00  0.00    +0.000 NA
ENDBRANCH   6   8
ENDBRANCH   1   6
TORSDOF 3
