REMARK  Name = 
REMARK  4 active torsions:
REMARK  status: ('A' for Active; 'I' for Inactive)
REMARK    1  A    between atoms: O_6  and  C_28
REMARK    2  A    between atoms: O_6  and  C_33
REMARK    3  A    between atoms: C_12  and  C_20
REMARK    4  A    between atoms: C_20  and  C_28
REMARK                            x       y       z     vdW  Elec       q    Type
REMARK                         _______ _______ _______ _____ _____    ______ ____
ROOT
ATOM      1  F   UNL     1      -0.755  -3.052   0.000  0.00  0.00    +0.000 F 
ATOM      2  O   UNL     1       1.963   1.168   0.000  0.00  0.00    +0.000 OA
ATOM      3  O   UNL     1       2.761   0.083   0.000  0.00  0.00    +0.000 OA
ATOM      4  O   UNL     1      -1.460   0.665   0.000  0.00  0.00    +0.000 OA
ATOM      5  O   UNL     1      -3.595  -2.218   0.000  0.00  0.00    +0.000 OA
ATOM      6  C   UNL     1       0.712  -0.586   0.000  0.00  0.00    +0.000 C 
ATOM      7  C   UNL     1       0.712   0.248   0.000  0.00  0.00    +0.000 C 
ATOM      8  C   UNL     1      -0.043  -1.003   0.000  0.00  0.00    +0.000 C 
ATOM      9  C   UNL     1       1.460   0.500   0.000  0.00  0.00    +0.000 C 
ATOM     10  C   UNL     1      -0.755  -0.586   0.000  0.00  0.00    +0.000 C 
ATOM     11  C   UNL     1       1.963  -0.169   0.000  0.00  0.00    +0.000 C 
ATOM     12  C   UNL     1      -1.460  -1.003   0.000  0.00  0.00    +0.000 C 
ATOM     13  C   UNL     1       1.460  -0.838   0.000  0.00  0.00    +0.000 C 
ATOM     14  C   UNL     1      -0.755   0.248   0.000  0.00  0.00    +0.000 C 
ATOM     15  C   UNL     1      -0.043   0.665   0.000  0.00  0.00    +0.000 C 
ATOM     16  C   UNL     1      -0.043  -1.801   0.000  0.00  0.00    +0.000 C 
ATOM     17  C   UNL     1      -1.460  -1.801   0.000  0.00  0.00    +0.000 C 
ATOM     18  C   UNL     1       2.761   0.917   0.000  0.00  0.00    +0.000 C 
ATOM     19  C   UNL     1       0.712   1.089   0.000  0.00  0.00    +0.000 C 
ATOM     20  C   UNL     1      -0.755  -2.218   0.000  0.00  0.00    +0.000 C 
ATOM     21  C   UNL     1      -2.171  -0.586   0.000  0.00  0.00    +0.000 C 
ATOM     22  C   UNL     1      -1.460  -0.169   0.000  0.00  0.00    +0.000 C 
ATOM     23  C   UNL     1      -2.171  -2.218   0.000  0.00  0.00    +0.000 C 
ATOM     24  C   UNL     1      -2.883  -1.003   0.000  0.00  0.00    +0.000 C 
ATOM     25  C   UNL     1       2.761   1.758   0.000  0.00  0.00    +0.000 C 
ATOM     26  C   UNL     1       3.595   0.917   0.000  0.00  0.00    +0.000 C 
ATOM     27  C   UNL     1      -2.883  -1.801   0.000  0.00  0.00    +0.000 C 
ENDROOT
BRANCH   9  29
ATOM     28  O   UNL     1       2.215   2.175   0.000  0.00  0.00    +0.000 OA
ATOM     29  C   UNL     1       1.460   1.758   0.000  0.00  0.00    +0.000 C 
BRANCH  29  30
ATOM     30  C   UNL     1       0.791   2.132   0.000  0.00  0.00    +0.000 C 
BRANCH  30  31
ATOM     31  O   UNL     1       0.086   1.758   0.000  0.00  0.00    +0.000 OA
BRANCH  31  33
ATOM     32  O   UNL     1      -0.633   3.052   0.000  0.00  0.00    +0.000 OA
ATOM     33  C   UNL     1      -0.625   2.197   0.000  0.00  0.00    +0.000 C 
ATOM     34  C   UNL     1      -1.359   1.808   0.000  0.00  0.00    +0.000 C 
ENDBRANCH  31  33
ENDBRANCH  30  31
ENDBRANCH  29  30
ENDBRANCH   9  29
TORSDOF 4
