REMARK  Name = 
REMARK  7 active torsions:
REMARK  status: ('A' for Active; 'I' for Inactive)
REMARK    1  A    between atoms: C_2  and  C_4
REMARK    2  A    between atoms: C_4  and  C_5
REMARK    3  A    between atoms: C_14  and  O_15
REMARK    4  A    between atoms: O_15  and  C_16
REMARK    5  A    between atoms: C_16  and  C_17
REMARK    6  A    between atoms: C_19  and  C_28
REMARK    7  A    between atoms: C_20  and  C_23
REMARK                            x       y       z     vdW  Elec       q    Type
REMARK                         _______ _______ _______ _____ _____    ______ ____
ROOT
ATOM      1  O   UNL     1      -0.414  -0.792   0.000  0.00  0.00    +0.000 OA
ENDROOT
BRANCH   1  11
ATOM      2  C   UNL     1       3.438   0.972   0.000  0.00  0.00    +0.000 C 
ATOM      3  C   UNL     1       3.677   0.182   0.000  0.00  0.00    +0.000 C 
ATOM      4  C   UNL     1       3.001  -0.289   0.000  0.00  0.00    +0.000 C 
ATOM      5  C   UNL     1       2.343   0.209   0.000  0.00  0.00    +0.000 A 
ATOM      6  C   UNL     1       2.613   0.988   0.000  0.00  0.00    +0.000 A 
ATOM      7  N   UNL     1       1.955   1.486   0.000  0.00  0.00    +0.000 NA
ATOM      8  C   UNL     1       1.278   1.015   0.000  0.00  0.00    +0.000 A 
ATOM      9  C   UNL     1       1.518   0.225   0.000  0.00  0.00    +0.000 A 
ATOM     10  C   UNL     1       0.954  -0.377   0.000  0.00  0.00    +0.000 A 
ATOM     11  C   UNL     1       0.150  -0.190   0.000  0.00  0.00    +0.000 A 
ATOM     12  C   UNL     1      -0.089   0.600   0.000  0.00  0.00    +0.000 A 
ATOM     13  C   UNL     1       0.475   1.202   0.000  0.00  0.00    +0.000 A 
BRANCH   2  14
ATOM     14  C   UNL     1       3.936   1.630   0.000  0.00  0.00    +0.000 C 
BRANCH  14  16
ATOM     15  O   UNL     1       5.253   2.185   0.000  0.00  0.00    +0.000 OA
ATOM     16  C   UNL     1       4.755   1.527   0.000  0.00  0.00    +0.000 C 
ATOM     17  O   UNL     1       5.075   0.767   0.000  0.00  0.00    +0.000 OA
ENDBRANCH  14  16
ENDBRANCH   2  14
ENDBRANCH   1  11
BRANCH   1  18
ATOM     18  C   UNL     1      -0.174  -1.581   0.000  0.00  0.00    +0.000 C 
BRANCH  18  19
ATOM     19  C   UNL     1      -0.738  -2.183   0.000  0.00  0.00    +0.000 A 
ATOM     20  C   UNL     1      -0.499  -2.973   0.000  0.00  0.00    +0.000 A 
ATOM     21  C   UNL     1      -1.063  -3.575   0.000  0.00  0.00    +0.000 A 
ATOM     22  C   UNL     1      -1.866  -3.388   0.000  0.00  0.00    +0.000 A 
ATOM     23  C   UNL     1      -2.106  -2.598   0.000  0.00  0.00    +0.000 A 
ATOM     24  C   UNL     1      -1.542  -1.996   0.000  0.00  0.00    +0.000 A 
BRANCH  22  25
ATOM     25  C   UNL     1      -2.430  -3.990   0.000  0.00  0.00    +0.000 C 
ATOM     26  C   UNL     1      -2.275  -4.800   0.000  0.00  0.00    +0.000 C 
ATOM     27  C   UNL     1      -2.997  -5.198   0.000  0.00  0.00    +0.000 C 
ATOM     28  C   UNL     1      -3.599  -4.634   0.000  0.00  0.00    +0.000 C 
ATOM     29  C   UNL     1      -3.249  -3.887   0.000  0.00  0.00    +0.000 C 
ENDBRANCH  22  25
BRANCH  21  30
ATOM     30  C   UNL     1      -0.823  -4.364   0.000  0.00  0.00    +0.000 C 
ATOM     31  F   UNL     1      -0.584  -5.154   0.000  0.00  0.00    +0.000 F 
ATOM     32  F   UNL     1      -1.613  -4.604   0.000  0.00  0.00    +0.000 F 
ATOM     33  F   UNL     1      -0.034  -4.125   0.000  0.00  0.00    +0.000 F 
ENDBRANCH  21  30
ENDBRANCH  18  19
ENDBRANCH   1  18
TORSDOF 7
