REMARK  Name = 
REMARK  16 active torsions:
REMARK  status: ('A' for Active; 'I' for Inactive)
REMARK    1  A    between atoms: SD_2  and  CG_3
REMARK    2  A    between atoms: CG_3  and  CB_4
REMARK    3  A    between atoms: CB_4  and  CA_5
REMARK    4  A    between atoms: CA_5  and  C_6
REMARK    5  A    between atoms: CA_5  and  N_9
REMARK    6  A    between atoms: C_10  and  CA_12
REMARK    7  A    between atoms: CA_12  and  CB_13
REMARK    8  A    between atoms: CA_12  and  N_20
REMARK    9  A    between atoms: CB_13  and  CG_14
REMARK   10  A    between atoms: C_21  and  CA_23
REMARK   11  A    between atoms: CA_23  and  N_24
REMARK   12  A    between atoms: C_25  and  CA_27
REMARK   13  A    between atoms: CA_27  and  N_28
REMARK   14  A    between atoms: C_29  and  CA_31
REMARK   15  A    between atoms: CA_31  and  CB_32
REMARK   16  A    between atoms: CB_32  and  CG_33
REMARK                            x       y       z     vdW  Elec       q    Type
REMARK                         _______ _______ _______ _____ _____    ______ ____
ROOT
ATOM      1  N   PHE A   4      11.431 -11.550   0.000  0.00  0.00    +0.000 NA
ATOM      2  C   GLY A   3      12.146 -11.137   0.000  0.00  0.00    +0.000 C 
ATOM      3  O   GLY A   3      12.146 -10.312   0.000  0.00  0.00    +0.000 OA
ENDROOT
BRANCH   2   4
ATOM      4  CA  GLY A   3      12.861 -11.550   0.000  0.00  0.00    +0.000 C 
BRANCH   4   5
ATOM      5  N   GLY A   3      13.575 -11.137   0.000  0.00  0.00    +0.000 NA
ATOM      6  C   GLY A   2      14.289 -11.550   0.000  0.00  0.00    +0.000 C 
ATOM      7  O   GLY A   2      14.289 -12.375   0.000  0.00  0.00    +0.000 OA
BRANCH   6   8
ATOM      8  CA  GLY A   2      15.004 -11.137   0.000  0.00  0.00    +0.000 C 
BRANCH   8   9
ATOM      9  N   GLY A   2      15.718 -11.550   0.000  0.00  0.00    +0.000 NA
ATOM     10  C   TYR A   1      16.433 -11.137   0.000  0.00  0.00    +0.000 C 
ATOM     11  O   TYR A   1      16.433 -10.312   0.000  0.00  0.00    +0.000 OA
BRANCH  10  12
ATOM     12  CA  TYR A   1      17.147 -11.550   0.000  0.00  0.00    +0.000 C 
ATOM     13  N   TYR A   1      17.147 -12.375   0.000  0.00  0.00    +0.000 NA
BRANCH  12  14
ATOM     14  CB  TYR A   1      17.862 -11.137   0.000  0.00  0.00    +0.000 C 
BRANCH  14  15
ATOM     15  CG  TYR A   1      18.576 -11.550   0.000  0.00  0.00    +0.000 A 
ATOM     16  CD1 TYR A   1      19.291 -11.137   0.000  0.00  0.00    +0.000 A 
ATOM     17  CE1 TYR A   1      20.005 -11.550   0.000  0.00  0.00    +0.000 A 
ATOM     18  CZ  TYR A   1      20.005 -12.375   0.000  0.00  0.00    +0.000 A 
ATOM     19  CE2 TYR A   1      19.291 -12.787   0.000  0.00  0.00    +0.000 A 
ATOM     20  CD2 TYR A   1      18.576 -12.375   0.000  0.00  0.00    +0.000 A 
ATOM     21  OH  TYR A   1      20.720 -12.787   0.000  0.00  0.00    +0.000 OA
ENDBRANCH  14  15
ENDBRANCH  12  14
ENDBRANCH  10  12
ENDBRANCH   8   9
ENDBRANCH   6   8
ENDBRANCH   4   5
ENDBRANCH   2   4
BRANCH   1  22
ATOM     22  CA  PHE A   4      10.717 -11.137   0.000  0.00  0.00    +0.000 C 
BRANCH  22  24
ATOM     23  N   MET A   5       9.288 -11.137   0.000  0.00  0.00    +0.000 NA
ATOM     24  C   PHE A   4      10.003 -11.550   0.000  0.00  0.00    +0.000 C 
ATOM     25  O   PHE A   4      10.003 -12.375   0.000  0.00  0.00    +0.000 OA
BRANCH  23  26
ATOM     26  CA  MET A   5       8.574 -11.550   0.000  0.00  0.00    +0.000 C 
BRANCH  26  27
ATOM     27  C   MET A   5       8.574 -12.375   0.000  0.00  0.00    +0.000 C 
ATOM     28  O   MET A   5       7.859 -12.787   0.000  0.00  0.00    +0.000 OA
ATOM     29  OXT MET A   5       9.288 -12.787   0.000  0.00  0.00    +0.000 OA
ENDBRANCH  26  27
BRANCH  26  30
ATOM     30  CB  MET A   5       7.859 -11.137   0.000  0.00  0.00    +0.000 C 
BRANCH  30  31
ATOM     31  CG  MET A   5       7.145 -11.550   0.000  0.00  0.00    +0.000 C 
BRANCH  31  33
ATOM     32  CE  MET A   5       5.716 -11.550   0.000  0.00  0.00    +0.000 C 
ATOM     33  SD  MET A   5       6.430 -11.137   0.000  0.00  0.00    +0.000 S 
ENDBRANCH  31  33
ENDBRANCH  30  31
ENDBRANCH  26  30
ENDBRANCH  23  26
ENDBRANCH  22  24
BRANCH  22  34
ATOM     34  CB  PHE A   4      10.717 -10.312   0.000  0.00  0.00    +0.000 C 
BRANCH  34  35
ATOM     35  CG  PHE A   4      10.003  -9.900   0.000  0.00  0.00    +0.000 A 
ATOM     36  CD1 PHE A   4       9.288 -10.312   0.000  0.00  0.00    +0.000 A 
ATOM     37  CE1 PHE A   4       8.574  -9.900   0.000  0.00  0.00    +0.000 A 
ATOM     38  CZ  PHE A   4       8.574  -9.075   0.000  0.00  0.00    +0.000 A 
ATOM     39  CE2 PHE A   4       9.288  -8.662   0.000  0.00  0.00    +0.000 A 
ATOM     40  CD2 PHE A   4      10.003  -9.075   0.000  0.00  0.00    +0.000 A 
ENDBRANCH  34  35
ENDBRANCH  22  34
ENDBRANCH   1  22
TORSDOF 16
