REMARK  Name = 
REMARK  2 active torsions:
REMARK  status: ('A' for Active; 'I' for Inactive)
REMARK    1  A    between atoms: C_13  and  O_14
REMARK    2  A    between atoms: O_14  and  C_26
REMARK                            x       y       z     vdW  Elec       q    Type
REMARK                         _______ _______ _______ _____ _____    ______ ____
ROOT
ATOM      1  C   UNL     1      -2.585  -1.474   0.000  0.00  0.00    +0.000 C 
ATOM      2  C   UNL     1      -2.585  -0.649   0.000  0.00  0.00    +0.000 C 
ATOM      3  C   UNL     1      -1.869  -0.237   0.000  0.00  0.00    +0.000 C 
ATOM      4  O   UNL     1      -3.301  -1.887   0.000  0.00  0.00    +0.000 OA
ATOM      5  C   UNL     1      -1.869  -1.887   0.000  0.00  0.00    +0.000 C 
ATOM      6  C   UNL     1      -1.153  -1.474   0.000  0.00  0.00    +0.000 C 
ATOM      7  C   UNL     1      -0.441  -1.887   0.000  0.00  0.00    +0.000 C 
ATOM      8  C   UNL     1       0.274  -1.474   0.000  0.00  0.00    +0.000 C 
ATOM      9  C   UNL     1       0.274  -0.649   0.000  0.00  0.00    +0.000 C 
ATOM     10  C   UNL     1       0.986  -0.237   0.000  0.00  0.00    +0.000 C 
ATOM     11  C   UNL     1       1.771  -0.494   0.000  0.00  0.00    +0.000 C 
ATOM     12  C   UNL     1       2.260   0.175   0.000  0.00  0.00    +0.000 C 
ATOM     13  C   UNL     1       1.771   0.841   0.000  0.00  0.00    +0.000 C 
ATOM     14  C   UNL     1       0.986   0.588   0.000  0.00  0.00    +0.000 C 
ATOM     15  C   UNL     1       0.986   1.413   0.000  0.00  0.00    +0.000 C 
ATOM     16  C   UNL     1       0.274   1.000   0.000  0.00  0.00    +0.000 C 
ATOM     17  C   UNL     1      -0.441   0.588   0.000  0.00  0.00    +0.000 C 
ATOM     18  C   UNL     1      -0.441  -0.237   0.000  0.00  0.00    +0.000 C 
ATOM     19  C   UNL     1      -1.153  -0.649   0.000  0.00  0.00    +0.000 C 
ATOM     20  C   UNL     1      -1.153   0.175   0.000  0.00  0.00    +0.000 C 
ENDROOT
BRANCH  13  21
ATOM     21  O   UNL     1       2.028   1.625   0.000  0.00  0.00    +0.000 OA
BRANCH  21  22
ATOM     22  C   UNL     1       2.862   1.599   0.000  0.00  0.00    +0.000 C 
ATOM     23  C   UNL     1       3.301   2.307   0.000  0.00  0.00    +0.000 C 
ATOM     24  O   UNL     1       3.256   0.866   0.000  0.00  0.00    +0.000 OA
ENDBRANCH  21  22
ENDBRANCH  13  21
TORSDOF 2
