REMARK  Name = 
REMARK  4 active torsions:
REMARK  status: ('A' for Active; 'I' for Inactive)
REMARK    1  A    between atoms: C_3  and  C_5
REMARK    2  A    between atoms: C_16  and  N_17
REMARK    3  A    between atoms: N_17  and  C_18
REMARK    4  A    between atoms: C_18  and  C_19
REMARK                            x       y       z     vdW  Elec       q    Type
REMARK                         _______ _______ _______ _____ _____    ______ ____
ROOT
ATOM      1  C   UNL     1      -5.291   2.229   0.000  0.00  0.00    +0.000 A 
ATOM      2  C   UNL     1      -4.576   2.642   0.000  0.00  0.00    +0.000 A 
ATOM      3  N   UNL     1      -3.862   2.229   0.000  0.00  0.00    +0.000 NA
ATOM      4  C   UNL     1      -3.862   1.405   0.000  0.00  0.00    +0.000 A 
ATOM      5  N   UNL     1      -4.576   0.992   0.000  0.00  0.00    +0.000 NA
ATOM      6  C   UNL     1      -5.291   1.405   0.000  0.00  0.00    +0.000 A 
ATOM      7  N   UNL     1      -3.147   0.992   0.000  0.00  0.00    +0.000 N 
ATOM      8  C   UNL     1      -2.393   1.328   0.000  0.00  0.00    +0.000 C 
ATOM      9  C   UNL     1      -1.841   0.715   0.000  0.00  0.00    +0.000 C 
ATOM     10  C   UNL     1      -2.254   0.000   0.000  0.00  0.00    +0.000 C 
ATOM     11  C   UNL     1      -3.061   0.172   0.000  0.00  0.00    +0.000 C 
ATOM     12  C   UNL     1      -1.429   0.000   0.000  0.00  0.00    +0.000 C 
ENDROOT
BRANCH   1  15
ATOM     13  O   UNL     1      -7.434   2.642   0.000  0.00  0.00    +0.000 OA
ATOM     14  N   UNL     1      -6.720   2.229   0.000  0.00  0.00    +0.000 NA
ATOM     15  C   UNL     1      -6.005   2.642   0.000  0.00  0.00    +0.000 C 
ATOM     16  O   UNL     1      -6.005   3.467   0.000  0.00  0.00    +0.000 OA
ENDBRANCH   1  15
BRANCH  12  17
ATOM     17  N   UNL     1      -0.715  -0.412   0.000  0.00  0.00    +0.000 NA
BRANCH  17  18
ATOM     18  C   UNL     1       0.000   0.000   0.000  0.00  0.00    +0.000 C 
BRANCH  18  19
ATOM     19  C   UNL     1       0.715  -0.412   0.000  0.00  0.00    +0.000 A 
ATOM     20  N   UNL     1       1.429   0.000   0.000  0.00  0.00    +0.000 NA
ATOM     21  C   UNL     1       2.143  -0.412   0.000  0.00  0.00    +0.000 A 
ATOM     22  C   UNL     1       2.858   0.000   0.000  0.00  0.00    +0.000 A 
ATOM     23  C   UNL     1       3.572  -0.412   0.000  0.00  0.00    +0.000 A 
ATOM     24  C   UNL     1       3.572  -1.238   0.000  0.00  0.00    +0.000 A 
ATOM     25  F   UNL     1       4.287  -1.650   0.000  0.00  0.00    +0.000 F 
ATOM     26  C   UNL     1       2.858  -1.650   0.000  0.00  0.00    +0.000 A 
ATOM     27  C   UNL     1       2.143  -1.238   0.000  0.00  0.00    +0.000 A 
ATOM     28  C   UNL     1       1.429  -1.650   0.000  0.00  0.00    +0.000 A 
ATOM     29  C   UNL     1       0.715  -1.238   0.000  0.00  0.00    +0.000 A 
ENDBRANCH  18  19
ENDBRANCH  17  18
ENDBRANCH  12  17
TORSDOF 4
