REMARK  Name = 
REMARK  3 active torsions:
REMARK  status: ('A' for Active; 'I' for Inactive)
REMARK    1  A    between atoms: C_6  and  C_7
REMARK    2  A    between atoms: C_7  and  CA_8
REMARK    3  A    between atoms: CA_8  and  C_9
REMARK                            x       y       z     vdW  Elec       q    Type
REMARK                         _______ _______ _______ _____ _____    ______ ____
ROOT
ATOM      1  C   UNL     1      -1.072  -2.062   0.000  0.00  0.00    +0.000 A 
ATOM      2  C   UNL     1      -1.072  -1.238   0.000  0.00  0.00    +0.000 A 
ATOM      3  C   UNL     1      -1.786  -0.825   0.000  0.00  0.00    +0.000 A 
ATOM      4  C   UNL     1      -1.786   0.000   0.000  0.00  0.00    +0.000 A 
ATOM      5  C   UNL     1      -1.072   0.412   0.000  0.00  0.00    +0.000 A 
ATOM      6  C   UNL     1      -0.357   0.000   0.000  0.00  0.00    +0.000 A 
ATOM      7  C   UNL     1      -0.357  -0.825   0.000  0.00  0.00    +0.000 A 
ATOM      8  C   UNL     1       0.357  -1.238   0.000  0.00  0.00    +0.000 A 
ATOM      9  C   UNL     1       0.357  -2.062   0.000  0.00  0.00    +0.000 A 
ATOM     10  C   UNL     1      -0.357  -2.475   0.000  0.00  0.00    +0.000 A 
ENDROOT
BRANCH   6  11
ATOM     11  C   UNL     1       0.357   0.412   0.000  0.00  0.00    +0.000 C 
BRANCH  11  12
ATOM     12  CA  UNL     1       0.357   1.238   0.000  0.00  0.00    +0.000 C 
ATOM     13  N   UNL     1      -0.357   1.650   0.000  0.00  0.00    +0.000 NA
BRANCH  12  14
ATOM     14  C   UNL     1       1.072   1.650   0.000  0.00  0.00    +0.000 C 
ATOM     15  O   UNL     1       1.786   1.238   0.000  0.00  0.00    +0.000 OA
ATOM     16  OXT UNL     1       1.072   2.475   0.000  0.00  0.00    +0.000 OA
ENDBRANCH  12  14
ENDBRANCH  11  12
ENDBRANCH   6  11
TORSDOF 3
