REMARK  Name = 
REMARK  9 active torsions:
REMARK  status: ('A' for Active; 'I' for Inactive)
REMARK    1  A    between atoms: S_1  and  N_8
REMARK    2  A    between atoms: S_1  and  C_15
REMARK    3  A    between atoms: O_6  and  C_20
REMARK    4  A    between atoms: O_6  and  C_30
REMARK    5  A    between atoms: N_9  and  C_16
REMARK    6  A    between atoms: C_10  and  C_14
REMARK    7  A    between atoms: C_16  and  C_17
REMARK    8  A    between atoms: C_16  and  C_20
REMARK    9  A    between atoms: C_17  and  C_21
REMARK                            x       y       z     vdW  Elec       q    Type
REMARK                         _______ _______ _______ _____ _____    ______ ____
ROOT
ATOM      1  S   UNL     1       2.113   2.475   0.000  0.00  0.00    +0.000 S 
ATOM      2  N   UNL     1       2.113   0.825   0.000  0.00  0.00    +0.000 NA
ATOM      3  C   UNL     1       1.399   1.238   0.000  0.00  0.00    +0.000 C 
ATOM      4  C   UNL     1       2.827   1.238   0.000  0.00  0.00    +0.000 C 
ATOM      5  C   UNL     1       1.399   2.062   0.000  0.00  0.00    +0.000 C 
ATOM      6  C   UNL     1       2.827   2.062   0.000  0.00  0.00    +0.000 C 
ENDROOT
BRANCH   2   7
ATOM      7  S   UNL     1       2.113   0.000   0.000  0.00  0.00    +0.000 S 
ATOM      8  O   UNL     1       2.938   0.000   0.000  0.00  0.00    +0.000 OA
ATOM      9  O   UNL     1       1.288   0.000   0.000  0.00  0.00    +0.000 OA
BRANCH   7  10
ATOM     10  C   UNL     1       2.113  -0.825   0.000  0.00  0.00    +0.000 A 
ATOM     11  C   UNL     1       1.399  -1.238   0.000  0.00  0.00    +0.000 A 
ATOM     12  C   UNL     1       2.827  -1.238   0.000  0.00  0.00    +0.000 A 
ATOM     13  C   UNL     1       1.399  -2.062   0.000  0.00  0.00    +0.000 A 
ATOM     14  C   UNL     1       2.827  -2.062   0.000  0.00  0.00    +0.000 A 
ATOM     15  C   UNL     1       2.113  -2.475   0.000  0.00  0.00    +0.000 A 
ATOM     16  C   UNL     1       2.113  -3.300   0.000  0.00  0.00    +0.000 C 
ENDBRANCH   7  10
ENDBRANCH   2   7
BRANCH   3  19
ATOM     17  O   UNL     1       0.684   0.000   0.000  0.00  0.00    +0.000 OA
ATOM     18  N   UNL     1      -0.030   1.238   0.000  0.00  0.00    +0.000 NA
ATOM     19  C   UNL     1       0.684   0.825   0.000  0.00  0.00    +0.000 C 
BRANCH  18  20
ATOM     20  C   UNL     1      -0.745   0.825   0.000  0.00  0.00    +0.000 C 
BRANCH  20  22
ATOM     21  O   UNL     1      -2.174   0.825   0.000  0.00  0.00    +0.000 OA
ATOM     22  C   UNL     1      -1.459   1.238   0.000  0.00  0.00    +0.000 C 
BRANCH  22  23
ATOM     23  O   UNL     1      -1.459   2.062   0.000  0.00  0.00    +0.000 OA
BRANCH  23  24
ATOM     24  C   UNL     1      -2.174   2.475   0.000  0.00  0.00    +0.000 C 
ATOM     25  C   UNL     1      -2.174   3.300   0.000  0.00  0.00    +0.000 C 
ENDBRANCH  23  24
ENDBRANCH  22  23
ENDBRANCH  20  22
BRANCH  20  26
ATOM     26  C   UNL     1      -0.745   0.000   0.000  0.00  0.00    +0.000 C 
BRANCH  26  27
ATOM     27  C   UNL     1      -1.459  -0.412   0.000  0.00  0.00    +0.000 A 
ATOM     28  C   UNL     1      -2.174   0.000   0.000  0.00  0.00    +0.000 A 
ATOM     29  C   UNL     1      -1.459  -1.238   0.000  0.00  0.00    +0.000 A 
ATOM     30  C   UNL     1      -2.888  -0.412   0.000  0.00  0.00    +0.000 A 
ATOM     31  C   UNL     1      -2.174  -1.650   0.000  0.00  0.00    +0.000 A 
ATOM     32  C   UNL     1      -2.888  -1.238   0.000  0.00  0.00    +0.000 A 
ENDBRANCH  26  27
ENDBRANCH  20  26
ENDBRANCH  18  20
ENDBRANCH   3  19
TORSDOF 9
