REMARK  Name = 
REMARK  6 active torsions:
REMARK  status: ('A' for Active; 'I' for Inactive)
REMARK    1  A    between atoms: C_2  and  C_13
REMARK    2  A    between atoms: C_4  and  C_5
REMARK    3  A    between atoms: C_14  and  C_15
REMARK    4  A    between atoms: C_22  and  C_36
REMARK    5  A    between atoms: C_37  and  C_38
REMARK    6  A    between atoms: C_41  and  C_42
REMARK                            x       y       z     vdW  Elec       q    Type
REMARK                         _______ _______ _______ _____ _____    ______ ____
ROOT
ATOM      1  C   UNL     1       0.415  -2.145   0.000  0.00  0.00    +0.000 A 
ATOM      2  C   UNL     1       0.669  -1.360   0.000  0.00  0.00    +0.000 A 
ATOM      3  C   UNL     1       1.476  -1.188   0.000  0.00  0.00    +0.000 A 
ATOM      4  C   UNL     1       2.029  -1.802   0.000  0.00  0.00    +0.000 A 
ATOM      5  C   UNL     1       2.853  -1.802   0.000  0.00  0.00    +0.000 A 
ATOM      6  C   UNL     1       3.406  -1.188   0.000  0.00  0.00    +0.000 A 
ATOM      7  C   UNL     1       4.213  -1.360   0.000  0.00  0.00    +0.000 A 
ATOM      8  C   UNL     1       4.468  -2.145   0.000  0.00  0.00    +0.000 A 
ATOM      9  C   UNL     1       3.915  -2.758   0.000  0.00  0.00    +0.000 A 
ATOM     10  C   UNL     1       3.108  -2.586   0.000  0.00  0.00    +0.000 A 
ATOM     11  C   UNL     1       2.441  -3.071   0.000  0.00  0.00    +0.000 C 
ATOM     12  C   UNL     1       3.155  -3.484   0.000  0.00  0.00    +0.000 C 
ATOM     13  C   UNL     1       3.155  -4.309   0.000  0.00  0.00    +0.000 C 
ATOM     14  N   UNL     1       2.441  -4.721   0.000  0.00  0.00    +0.000 N 
ATOM     15  C   UNL     1       1.727  -4.309   0.000  0.00  0.00    +0.000 C 
ATOM     16  C   UNL     1       1.727  -3.484   0.000  0.00  0.00    +0.000 C 
ATOM     17  C   UNL     1       2.441  -5.546   0.000  0.00  0.00    +0.000 C 
ATOM     18  C   UNL     1       1.727  -5.959   0.000  0.00  0.00    +0.000 C 
ATOM     19  O   UNL     1       3.155  -5.959   0.000  0.00  0.00    +0.000 OA
ATOM     20  C   UNL     1       1.774  -2.586   0.000  0.00  0.00    +0.000 A 
ATOM     21  C   UNL     1       0.967  -2.758   0.000  0.00  0.00    +0.000 A 
ENDROOT
BRANCH   1  23
ATOM     22  C   UNL     1      -1.199  -2.488   0.000  0.00  0.00    +0.000 C 
ATOM     23  C   UNL     1      -0.392  -2.316   0.000  0.00  0.00    +0.000 C 
BRANCH  22  24
ATOM     24  C   UNL     1      -2.006  -2.659   0.000  0.00  0.00    +0.000 C 
ATOM     25  O   UNL     1      -2.261  -3.444   0.000  0.00  0.00    +0.000 OA
ATOM     26  C   UNL     1      -3.068  -3.615   0.000  0.00  0.00    +0.000 C 
ATOM     27  C   UNL     1      -3.620  -3.002   0.000  0.00  0.00    +0.000 C 
ATOM     28  O   UNL     1      -4.427  -3.174   0.000  0.00  0.00    +0.000 OA
ATOM     29  C   UNL     1      -3.365  -2.218   0.000  0.00  0.00    +0.000 C 
ATOM     30  O   UNL     1      -3.917  -1.605   0.000  0.00  0.00    +0.000 OA
ATOM     31  C   UNL     1      -2.558  -2.046   0.000  0.00  0.00    +0.000 C 
ATOM     32  O   UNL     1      -2.303  -1.262   0.000  0.00  0.00    +0.000 OA
BRANCH  26  33
ATOM     33  C   UNL     1      -3.323  -4.400   0.000  0.00  0.00    +0.000 C 
ATOM     34  O   UNL     1      -4.130  -4.572   0.000  0.00  0.00    +0.000 OA
ENDBRANCH  26  33
ENDBRANCH  22  24
ENDBRANCH   1  23
BRANCH   8  35
ATOM     35  C   UNL     1       5.274  -2.316   0.000  0.00  0.00    +0.000 C 
ATOM     36  C   UNL     1       6.081  -2.488   0.000  0.00  0.00    +0.000 C 
BRANCH  36  37
ATOM     37  C   UNL     1       6.888  -2.659   0.000  0.00  0.00    +0.000 C 
ATOM     38  O   UNL     1       7.440  -2.046   0.000  0.00  0.00    +0.000 OA
ATOM     39  C   UNL     1       8.247  -2.218   0.000  0.00  0.00    +0.000 C 
ATOM     40  C   UNL     1       8.502  -3.002   0.000  0.00  0.00    +0.000 C 
ATOM     41  O   UNL     1       9.309  -3.174   0.000  0.00  0.00    +0.000 OA
ATOM     42  C   UNL     1       7.950  -3.615   0.000  0.00  0.00    +0.000 C 
ATOM     43  O   UNL     1       8.205  -4.400   0.000  0.00  0.00    +0.000 OA
ATOM     44  C   UNL     1       7.143  -3.444   0.000  0.00  0.00    +0.000 C 
ATOM     45  O   UNL     1       6.591  -4.057   0.000  0.00  0.00    +0.000 OA
BRANCH  39  46
ATOM     46  C   UNL     1       8.799  -1.605   0.000  0.00  0.00    +0.000 C 
ATOM     47  O   UNL     1       8.544  -0.820   0.000  0.00  0.00    +0.000 OA
ENDBRANCH  39  46
ENDBRANCH  36  37
ENDBRANCH   8  35
TORSDOF 6
