REMARK  Name = 
REMARK  3 active torsions:
REMARK  status: ('A' for Active; 'I' for Inactive)
REMARK    1  A    between atoms: C_3  and  C_4
REMARK    2  A    between atoms: N_6  and  C1*_12
REMARK    3  A    between atoms: C4*_15  and  C5*_17
REMARK                            x       y       z     vdW  Elec       q    Type
REMARK                         _______ _______ _______ _____ _____    ______ ____
ROOT
ATOM      1  C   UNL     1      -0.608   4.353   0.000  0.00  0.00    +0.000 A 
ATOM      2  C   UNL     1      -0.608   3.528   0.000  0.00  0.00    +0.000 A 
ATOM      3  N   UNL     1      -1.322   3.115   0.000  0.00  0.00    +0.000 N 
ATOM      4  C   UNL     1      -2.037   3.528   0.000  0.00  0.00    +0.000 A 
ATOM      5  O   UNL     1      -2.751   3.115   0.000  0.00  0.00    +0.000 OA
ATOM      6  N   UNL     1      -2.037   4.353   0.000  0.00  0.00    +0.000 NA
ATOM      7  C   UNL     1      -1.322   4.765   0.000  0.00  0.00    +0.000 A 
ATOM      8  O   UNL     1      -1.322   5.590   0.000  0.00  0.00    +0.000 OA
ENDROOT
BRANCH   3   9
ATOM      9  C1* UNL     1      -1.322   2.290   0.000  0.00  0.00    +0.000 C 
ATOM     10  C2* UNL     1      -0.655   1.805   0.000  0.00  0.00    +0.000 C 
ATOM     11  C3* UNL     1      -0.910   1.021   0.000  0.00  0.00    +0.000 C 
ATOM     12  C4* UNL     1      -1.735   1.021   0.000  0.00  0.00    +0.000 C 
ATOM     13  O4* UNL     1      -1.990   1.805   0.000  0.00  0.00    +0.000 OA
ATOM     14  O3* UNL     1      -0.425   0.353   0.000  0.00  0.00    +0.000 OA
ATOM     15  O2* UNL     1       0.130   2.060   0.000  0.00  0.00    +0.000 OA
BRANCH  12  16
ATOM     16  C5* UNL     1      -2.220   0.353   0.000  0.00  0.00    +0.000 C 
ATOM     17  O5* UNL     1      -1.884  -0.401   0.000  0.00  0.00    +0.000 OA
ENDBRANCH  12  16
ENDBRANCH   3   9
BRANCH   1  20
ATOM     18  C   UNL     1       1.536   5.590   0.000  0.00  0.00    +0.000 C 
ATOM     19  C   UNL     1       0.821   5.178   0.000  0.00  0.00    +0.000 C 
ATOM     20  C   UNL     1       0.107   4.765   0.000  0.00  0.00    +0.000 C 
ENDBRANCH   1  20
TORSDOF 3
