REMARK  Name = 
REMARK  9 active torsions:
REMARK  status: ('A' for Active; 'I' for Inactive)
REMARK    1  A    between atoms: C_2  and  C_3
REMARK    2  A    between atoms: C_3  and  C_4
REMARK    3  A    between atoms: C_10  and  C_11
REMARK    4  A    between atoms: C_17  and  C_18
REMARK    5  A    between atoms: C_17  and  C_25
REMARK    6  A    between atoms: C_18  and  C_19
REMARK    7  A    between atoms: N_27  and  C_28
REMARK    8  A    between atoms: C_28  and  C_29
REMARK    9  A    between atoms: C_28  and  C_32
REMARK                            x       y       z     vdW  Elec       q    Type
REMARK                         _______ _______ _______ _____ _____    ______ ____
ROOT
ATOM      1  C   UNL     1      -0.245  -3.070   0.000  0.00  0.00    +0.000 C 
ATOM      2  O   UNL     1       0.560  -3.250   0.000  0.00  0.00    +0.000 OA
ATOM      3  N   UNL     1      -0.492  -2.282   0.000  0.00  0.00    +0.000 N 
ATOM      4  C   UNL     1      -1.274  -2.019   0.000  0.00  0.00    +0.000 C 
ATOM      5  C   UNL     1      -1.266  -1.194   0.000  0.00  0.00    +0.000 C 
ATOM      6  C   UNL     1      -0.478  -0.948   0.000  0.00  0.00    +0.000 C 
ATOM      7  C   UNL     1      -0.000  -1.620   0.000  0.00  0.00    +0.000 C 
ENDROOT
BRANCH   1  14
ATOM      8  C   UNL     1       0.109  -4.829   0.000  0.00  0.00    +0.000 C 
ATOM      9  O   UNL     1       0.782  -4.351   0.000  0.00  0.00    +0.000 OA
ATOM     10  N   UNL     1      -0.641  -4.486   0.000  0.00  0.00    +0.000 N 
ATOM     11  C   UNL     1      -1.360  -4.891   0.000  0.00  0.00    +0.000 C 
ATOM     12  C   UNL     1      -1.967  -4.332   0.000  0.00  0.00    +0.000 C 
ATOM     13  C   UNL     1      -1.623  -3.582   0.000  0.00  0.00    +0.000 C 
ATOM     14  C   UNL     1      -0.804  -3.677   0.000  0.00  0.00    +0.000 C 
BRANCH   8  15
ATOM     15  C   UNL     1       0.187  -5.650   0.000  0.00  0.00    +0.000 C 
ATOM     16  N   UNL     1      -0.486  -6.128   0.000  0.00  0.00    +0.000 NA
BRANCH  15  18
ATOM     17  C   UNL     1       1.015  -6.815   0.000  0.00  0.00    +0.000 C 
ATOM     18  C   UNL     1       0.937  -5.994   0.000  0.00  0.00    +0.000 C 
ATOM     19  O   UNL     1       1.609  -5.516   0.000  0.00  0.00    +0.000 OA
ENDBRANCH  15  18
ENDBRANCH   8  15
ENDBRANCH   1  14
BRANCH   7  20
ATOM     20  C   UNL     1       0.714  -2.033   0.000  0.00  0.00    +0.000 C 
ATOM     21  O   UNL     1       0.714  -2.858   0.000  0.00  0.00    +0.000 OA
ATOM     22  N   UNL     1       1.429  -1.620   0.000  0.00  0.00    +0.000 NA
BRANCH  22  23
ATOM     23  C   UNL     1       2.143  -2.033   0.000  0.00  0.00    +0.000 C 
BRANCH  23  24
ATOM     24  C   UNL     1       2.143  -2.858   0.000  0.00  0.00    +0.000 C 
ATOM     25  C   UNL     1       2.858  -3.270   0.000  0.00  0.00    +0.000 C 
ATOM     26  O   UNL     1       1.429  -3.270   0.000  0.00  0.00    +0.000 OA
ENDBRANCH  23  24
BRANCH  23  27
ATOM     27  C   UNL     1       2.858  -1.620   0.000  0.00  0.00    +0.000 C 
ATOM     28  O   UNL     1       2.858  -0.795   0.000  0.00  0.00    +0.000 OA
ATOM     29  N   UNL     1       3.572  -2.033   0.000  0.00  0.00    +0.000 NA
ENDBRANCH  23  27
ENDBRANCH  22  23
ENDBRANCH   7  20
BRANCH   7  30
ATOM     30  C   UNL     1       0.723  -1.223   0.000  0.00  0.00    +0.000 C 
BRANCH  30  31
ATOM     31  C   UNL     1       0.740  -0.398   0.000  0.00  0.00    +0.000 A 
ATOM     32  C   UNL     1       0.034   0.030   0.000  0.00  0.00    +0.000 A 
ATOM     33  C   UNL     1       0.051   0.854   0.000  0.00  0.00    +0.000 A 
ATOM     34  C   UNL     1       0.774   1.252   0.000  0.00  0.00    +0.000 A 
ATOM     35  C   UNL     1       1.480   0.825   0.000  0.00  0.00    +0.000 A 
ATOM     36  C   UNL     1       1.463  -0.000   0.000  0.00  0.00    +0.000 A 
ENDBRANCH  30  31
ENDBRANCH   7  30
TORSDOF 9
