REMARK  Name = 
REMARK  10 active torsions:
REMARK  status: ('A' for Active; 'I' for Inactive)
REMARK    1  A    between atoms: C_2  and  O_3
REMARK    2  A    between atoms: O_3  and  C_4
REMARK    3  A    between atoms: C_5  and  C_14
REMARK    4  A    between atoms: C_8  and  C_10
REMARK    5  A    between atoms: C_16  and  C_18
REMARK    6  A    between atoms: C_25  and  C_43
REMARK    7  A    between atoms: N_33  and  C_34
REMARK    8  A    between atoms: C_34  and  C_35
REMARK    9  A    between atoms: C_35  and  C_36
REMARK   10  A    between atoms: C_36  and  S_37
REMARK                            x       y       z     vdW  Elec       q    Type
REMARK                         _______ _______ _______ _____ _____    ______ ____
ROOT
ATOM      1  C   UNL     1       1.597  -2.327   0.000  0.00  0.00    +0.000 C 
ATOM      2  N   UNL     1       0.772  -2.327   0.000  0.00  0.00    +0.000 NA
ATOM      3  C   UNL     1       0.517  -1.542   0.000  0.00  0.00    +0.000 C 
ATOM      4  C   UNL     1       0.104  -0.828   0.000  0.00  0.00    +0.000 C 
ATOM      5  C   UNL     1       1.184  -1.057   0.000  0.00  0.00    +0.000 C 
ATOM      6  C   UNL     1       0.632  -0.444   0.000  0.00  0.00    +0.000 C 
ATOM      7  N   UNL     1       1.851  -1.542   0.000  0.00  0.00    +0.000 N 
ATOM      8  C   UNL     1       2.636  -1.287   0.000  0.00  0.00    +0.000 C 
ATOM      9  O   UNL     1       3.049  -0.573   0.000  0.00  0.00    +0.000 OA
ATOM     10  N   UNL     1       3.249  -1.839   0.000  0.00  0.00    +0.000 N 
ATOM     11  C   UNL     1       4.034  -1.584   0.000  0.00  0.00    +0.000 C 
ATOM     12  C   UNL     1       4.647  -2.136   0.000  0.00  0.00    +0.000 C 
ATOM     13  N   UNL     1       4.475  -2.943   0.000  0.00  0.00    +0.000 NA
ATOM     14  C   UNL     1       3.691  -3.198   0.000  0.00  0.00    +0.000 C 
ATOM     15  C   UNL     1       3.078  -2.646   0.000  0.00  0.00    +0.000 C 
ENDROOT
BRANCH   5  16
ATOM     16  C   UNL     1       1.736  -0.444   0.000  0.00  0.00    +0.000 A 
ATOM     17  C   UNL     1       1.481   0.341   0.000  0.00  0.00    +0.000 A 
ATOM     18  C   UNL     1       2.033   0.954   0.000  0.00  0.00    +0.000 A 
ATOM     19  C   UNL     1       2.840   0.782   0.000  0.00  0.00    +0.000 A 
ATOM     20 CL   UNL     1       3.392   1.395   0.000  0.00  0.00    +0.000 Cl
ATOM     21  C   UNL     1       3.095  -0.003   0.000  0.00  0.00    +0.000 A 
ATOM     22  C   UNL     1       2.543  -0.616   0.000  0.00  0.00    +0.000 A 
ENDBRANCH   5  16
BRANCH   3  23
ATOM     23  C   UNL     1      -0.237  -1.878   0.000  0.00  0.00    +0.000 A 
ATOM     24  C   UNL     1      -0.323  -2.698   0.000  0.00  0.00    +0.000 A 
ATOM     25  C   UNL     1      -1.077  -3.034   0.000  0.00  0.00    +0.000 A 
ATOM     26  C   UNL     1      -1.744  -2.549   0.000  0.00  0.00    +0.000 A 
ATOM     27 CL   UNL     1      -2.498  -2.884   0.000  0.00  0.00    +0.000 Cl
ATOM     28  C   UNL     1      -1.658  -1.728   0.000  0.00  0.00    +0.000 A 
ATOM     29  C   UNL     1      -0.904  -1.393   0.000  0.00  0.00    +0.000 A 
ENDBRANCH   3  23
BRANCH   1  31
ATOM     30  C   UNL     1       2.311  -3.564   0.000  0.00  0.00    +0.000 A 
ATOM     31  C   UNL     1       1.597  -3.152   0.000  0.00  0.00    +0.000 A 
ATOM     32  C   UNL     1       0.882  -3.564   0.000  0.00  0.00    +0.000 A 
ATOM     33  C   UNL     1       0.882  -4.389   0.000  0.00  0.00    +0.000 A 
ATOM     34  C   UNL     1       1.597  -4.802   0.000  0.00  0.00    +0.000 A 
ATOM     35  C   UNL     1       2.311  -4.389   0.000  0.00  0.00    +0.000 A 
BRANCH  34  36
ATOM     36  C   UNL     1       1.597  -5.627   0.000  0.00  0.00    +0.000 C 
ATOM     37  C   UNL     1       1.597  -6.452   0.000  0.00  0.00    +0.000 C 
ATOM     38  C   UNL     1       2.422  -5.627   0.000  0.00  0.00    +0.000 C 
ATOM     39  C   UNL     1       0.772  -5.627   0.000  0.00  0.00    +0.000 C 
ENDBRANCH  34  36
BRANCH  30  40
ATOM     40  O   UNL     1       3.026  -3.152   0.000  0.00  0.00    +0.000 OA
BRANCH  40  42
ATOM     41  C   UNL     1       3.740  -4.389   0.000  0.00  0.00    +0.000 C 
ATOM     42  C   UNL     1       3.740  -3.564   0.000  0.00  0.00    +0.000 C 
ENDBRANCH  40  42
ENDBRANCH  30  40
ENDBRANCH   1  31
BRANCH  13  43
ATOM     43  C   UNL     1       5.088  -3.495   0.000  0.00  0.00    +0.000 C 
BRANCH  43  44
ATOM     44  C   UNL     1       4.917  -4.302   0.000  0.00  0.00    +0.000 C 
BRANCH  44  45
ATOM     45  C   UNL     1       4.132  -4.557   0.000  0.00  0.00    +0.000 C 
BRANCH  45  46
ATOM     46  S   UNL     1       3.961  -5.364   0.000  0.00  0.00    +0.000 S 
ATOM     47  C   UNL     1       3.789  -6.171   0.000  0.00  0.00    +0.000 C 
ATOM     48  O   UNL     1       3.154  -5.193   0.000  0.00  0.00    +0.000 OA
ATOM     49  O   UNL     1       4.768  -5.536   0.000  0.00  0.00    +0.000 OA
ENDBRANCH  45  46
ENDBRANCH  44  45
ENDBRANCH  43  44
ENDBRANCH  13  43
TORSDOF 10
