REMARK  Name = 
REMARK  3 active torsions:
REMARK  status: ('A' for Active; 'I' for Inactive)
REMARK    1  A    between atoms: C_3  and  O_11
REMARK    2  A    between atoms: O_11  and  C_12
REMARK    3  A    between atoms: C_12  and  C_14
REMARK                            x       y       z     vdW  Elec       q    Type
REMARK                         _______ _______ _______ _____ _____    ______ ____
ROOT
ATOM      1  C   UNL     1      -1.429  -0.206   0.000  0.00  0.00    +0.000 A 
ATOM      2  C   UNL     1      -2.143   0.206   0.000  0.00  0.00    +0.000 A 
ATOM      3  C   UNL     1       0.000  -0.206   0.000  0.00  0.00    +0.000 A 
ATOM      4  C   UNL     1       0.714   0.206   0.000  0.00  0.00    +0.000 A 
ATOM      5  C   UNL     1       0.714   1.031   0.000  0.00  0.00    +0.000 A 
ATOM      6  C   UNL     1       0.000   1.444   0.000  0.00  0.00    +0.000 A 
ATOM      7  C   UNL     1      -0.714   1.031   0.000  0.00  0.00    +0.000 A 
ATOM      8  C   UNL     1      -1.429   1.444   0.000  0.00  0.00    +0.000 A 
ATOM      9  C   UNL     1      -2.143   1.031   0.000  0.00  0.00    +0.000 A 
ATOM     10  C   UNL     1      -0.714   0.206   0.000  0.00  0.00    +0.000 A 
ENDROOT
BRANCH   3  11
ATOM     11  O   UNL     1       0.000  -1.031   0.000  0.00  0.00    +0.000 OA
BRANCH  11  12
ATOM     12  C   UNL     1       0.714  -1.444   0.000  0.00  0.00    +0.000 C 
BRANCH  12  14
ATOM     13  O   UNL     1       1.429  -0.206   0.000  0.00  0.00    +0.000 OA
ATOM     14  C   UNL     1       1.429  -1.031   0.000  0.00  0.00    +0.000 C 
ATOM     15  O   UNL     1       2.143  -1.444   0.000  0.00  0.00    +0.000 OA
ENDBRANCH  12  14
ENDBRANCH  11  12
ENDBRANCH   3  11
TORSDOF 3
