REMARK  Name = 
REMARK  8 active torsions:
REMARK  status: ('A' for Active; 'I' for Inactive)
REMARK    1  A    between atoms: C_2  and  O_3
REMARK    2  A    between atoms: O_3  and  C_4
REMARK    3  A    between atoms: N_6  and  C_7
REMARK    4  A    between atoms: C_8  and  N_9
REMARK    5  A    between atoms: C_14  and  N_15
REMARK    6  A    between atoms: C_16  and  O_18
REMARK    7  A    between atoms: O_18  and  C_19
REMARK    8  A    between atoms: C_21  and  N_22
REMARK                            x       y       z     vdW  Elec       q    Type
REMARK                         _______ _______ _______ _____ _____    ______ ____
ROOT
ATOM      1  C   UNL     1      -1.429   1.650   0.000  0.00  0.00    +0.000 C 
ATOM      2  C   UNL     1      -1.429   2.475   0.000  0.00  0.00    +0.000 C 
ATOM      3  C   UNL     1      -0.715   2.888   0.000  0.00  0.00    +0.000 C 
ATOM      4  O   UNL     1      -0.715   3.712   0.000  0.00  0.00    +0.000 OA
ATOM      5  C   UNL     1       0.000   2.475   0.000  0.00  0.00    +0.000 C 
ATOM      6  C   UNL     1       0.000   1.650   0.000  0.00  0.00    +0.000 C 
ATOM      7  C   UNL     1      -0.715   1.238   0.000  0.00  0.00    +0.000 C 
ATOM      8  O   UNL     1      -0.715   0.412   0.000  0.00  0.00    +0.000 OA
ENDROOT
BRANCH   6   9
ATOM      9  N   UNL     1       0.715   1.238   0.000  0.00  0.00    +0.000 N 
ATOM     10  C   UNL     1       1.540   1.238   0.000  0.00  0.00    +0.000 C 
ATOM     11  C   UNL     1       1.127   0.523   0.000  0.00  0.00    +0.000 C 
ENDBRANCH   6   9
BRANCH   1  14
ATOM     12  C   UNL     1      -2.143   0.412   0.000  0.00  0.00    +0.000 C 
ATOM     13  O   UNL     1      -1.429   0.000   0.000  0.00  0.00    +0.000 OA
ATOM     14  N   UNL     1      -2.143   1.238   0.000  0.00  0.00    +0.000 NA
BRANCH  12  15
ATOM     15  O   UNL     1      -2.858   0.000   0.000  0.00  0.00    +0.000 OA
BRANCH  15  17
ATOM     16  C   UNL     1      -3.572  -1.238   0.000  0.00  0.00    +0.000 C 
ATOM     17  C   UNL     1      -2.858  -0.825   0.000  0.00  0.00    +0.000 C 
ENDBRANCH  15  17
ENDBRANCH  12  15
ENDBRANCH   1  14
BRANCH   2  18
ATOM     18  N   UNL     1      -2.143   2.888   0.000  0.00  0.00    +0.000 N 
ATOM     19  C   UNL     1      -2.968   2.888   0.000  0.00  0.00    +0.000 C 
ATOM     20  C   UNL     1      -2.556   3.602   0.000  0.00  0.00    +0.000 C 
ENDBRANCH   2  18
BRANCH   5  21
ATOM     21  N   UNL     1       0.715   2.888   0.000  0.00  0.00    +0.000 NA
ATOM     22  C   UNL     1       1.429   2.475   0.000  0.00  0.00    +0.000 C 
ATOM     23  O   UNL     1       1.429   1.650   0.000  0.00  0.00    +0.000 OA
BRANCH  22  24
ATOM     24  O   UNL     1       2.143   2.888   0.000  0.00  0.00    +0.000 OA
BRANCH  24  25
ATOM     25  C   UNL     1       2.858   2.475   0.000  0.00  0.00    +0.000 C 
ATOM     26  C   UNL     1       3.572   2.888   0.000  0.00  0.00    +0.000 C 
ENDBRANCH  24  25
ENDBRANCH  22  24
ENDBRANCH   5  21
TORSDOF 8
