REMARK  Name = 
REMARK  5 active torsions:
REMARK  status: ('A' for Active; 'I' for Inactive)
REMARK    1  A    between atoms: C_1  and  O_30
REMARK    2  A    between atoms: C_4  and  O_7
REMARK    3  A    between atoms: C_11  and  C_15
REMARK    4  A    between atoms: C_26  and  O_30
REMARK    5  A    between atoms: C_31  and  C_34
REMARK                            x       y       z     vdW  Elec       q    Type
REMARK                         _______ _______ _______ _____ _____    ______ ____
ROOT
ATOM      1  C   UNL     1       0.149   0.201   0.000  0.00  0.00    +0.000 C 
ATOM      2  C   UNL     1       0.872   0.613   0.000  0.00  0.00    +0.000 C 
ATOM      3  C   UNL     1       0.146  -0.627   0.000  0.00  0.00    +0.000 C 
ATOM      4  C   UNL     1      -0.563   0.617   0.000  0.00  0.00    +0.000 C 
ATOM      5  C   UNL     1       1.582   0.194   0.000  0.00  0.00    +0.000 C 
ATOM      6  C   UNL     1       0.879   1.438   0.000  0.00  0.00    +0.000 C 
ATOM      7  C   UNL     1      -0.563  -1.039   0.000  0.00  0.00    +0.000 C 
ATOM      8  C   UNL     1       0.865  -1.043   0.000  0.00  0.00    +0.000 C 
ATOM      9  O   UNL     1       0.139  -1.448   0.000  0.00  0.00    +0.000 OA
ATOM     10  C   UNL     1      -1.280   0.201   0.000  0.00  0.00    +0.000 C 
ATOM     11  C   UNL     1       2.294   0.603   0.000  0.00  0.00    +0.000 C 
ATOM     12  C   UNL     1       1.582  -0.630   0.000  0.00  0.00    +0.000 C 
ATOM     13  C   UNL     1       1.595   1.843   0.000  0.00  0.00    +0.000 C 
ATOM     14  C   UNL     1      -1.280  -0.627   0.000  0.00  0.00    +0.000 C 
ATOM     15  C   UNL     1       2.305   1.427   0.000  0.00  0.00    +0.000 C 
ATOM     16  C   UNL     1       3.723   0.585   0.000  0.00  0.00    +0.000 C 
ATOM     17  O   UNL     1       2.287  -0.222   0.000  0.00  0.00    +0.000 OA
ATOM     18  C   UNL     1       3.025   1.829   0.000  0.00  0.00    +0.000 C 
ATOM     19  C   UNL     1       2.298   2.252   0.000  0.00  0.00    +0.000 C 
ATOM     20  C   UNL     1       3.730   1.406   0.000  0.00  0.00    +0.000 C 
ENDROOT
BRANCH  18  21
ATOM     21  C   UNL     1       3.021   2.657   0.000  0.00  0.00    +0.000 C 
ATOM     22  C   UNL     1       2.766   3.440   0.000  0.00  0.00    +0.000 C 
ATOM     23  C   UNL     1       3.845   2.660   0.000  0.00  0.00    +0.000 C 
ATOM     24  O   UNL     1       3.433   3.925   0.000  0.00  0.00    +0.000 OA
ATOM     25  C   UNL     1       4.097   3.443   0.000  0.00  0.00    +0.000 C 
ATOM     26  O   UNL     1       4.883   3.702   0.000  0.00  0.00    +0.000 OA
ENDBRANCH  18  21
BRANCH   1  27
ATOM     27  C   UNL     1       0.142   1.029   0.000  0.00  0.00    +0.000 C 
ATOM     28  O   UNL     1      -0.574   1.441   0.000  0.00  0.00    +0.000 OA
ENDBRANCH   1  27
BRANCH  14  29
ATOM     29  O   UNL     1      -1.996  -1.039   0.000  0.00  0.00    +0.000 OA
BRANCH  29  30
ATOM     30  C   UNL     1      -2.725  -1.452   0.000  0.00  0.00    +0.000 C 
ATOM     31  C   UNL     1      -2.731  -2.279   0.000  0.00  0.00    +0.000 C 
ATOM     32  O   UNL     1      -3.438  -1.032   0.000  0.00  0.00    +0.000 OA
ATOM     33  C   UNL     1      -3.449  -2.688   0.000  0.00  0.00    +0.000 C 
ATOM     34  C   UNL     1      -4.159  -1.440   0.000  0.00  0.00    +0.000 C 
ATOM     35  C   UNL     1      -4.162  -2.268   0.000  0.00  0.00    +0.000 C 
ATOM     36  C   UNL     1      -4.869  -1.021   0.000  0.00  0.00    +0.000 C 
ATOM     37  O   UNL     1      -4.883  -2.676   0.000  0.00  0.00    +0.000 OA
BRANCH  33  38
ATOM     38  O   UNL     1      -3.460  -3.516   0.000  0.00  0.00    +0.000 OA
ATOM     39  C   UNL     1      -4.186  -3.925   0.000  0.00  0.00    +0.000 C 
ENDBRANCH  33  38
ENDBRANCH  29  30
ENDBRANCH  14  29
TORSDOF 5
