REMARK  Name = 
REMARK  1 active torsions:
REMARK  status: ('A' for Active; 'I' for Inactive)
REMARK    1  A    between atoms: C_3  and  N_6
REMARK                            x       y       z     vdW  Elec       q    Type
REMARK                         _______ _______ _______ _____ _____    ______ ____
ROOT
ATOM      1  N   UNL     1       0.715  -0.412   0.000  0.00  0.00    +0.000 N 
ATOM      2  C   UNL     1       0.000   0.000   0.000  0.00  0.00    +0.000 A 
ATOM      3  C   UNL     1       0.000   0.825   0.000  0.00  0.00    +0.000 A 
ATOM      4  C   UNL     1       0.715   1.238   0.000  0.00  0.00    +0.000 A 
ATOM      5  O   UNL     1       0.715   2.062   0.000  0.00  0.00    +0.000 OA
ATOM      6  N   UNL     1       1.429   0.825   0.000  0.00  0.00    +0.000 NA
ATOM      7  C   UNL     1       1.429   0.000   0.000  0.00  0.00    +0.000 A 
ATOM      8  O   UNL     1       2.143  -0.412   0.000  0.00  0.00    +0.000 OA
ATOM      9  F   UNL     1      -0.715   1.238   0.000  0.00  0.00    +0.000 F 
ENDROOT
BRANCH   1  12
ATOM     10  C   UNL     1       0.302  -2.507   0.000  0.00  0.00    +0.000 C 
ATOM     11  C   UNL     1       0.047  -1.722   0.000  0.00  0.00    +0.000 C 
ATOM     12  C   UNL     1       0.715  -1.238   0.000  0.00  0.00    +0.000 C 
ATOM     13  O   UNL     1       1.382  -1.722   0.000  0.00  0.00    +0.000 OA
ATOM     14  C   UNL     1       1.127  -2.507   0.000  0.00  0.00    +0.000 C 
ENDBRANCH   1  12
TORSDOF 1
