REMARK  Name = 
REMARK  8 active torsions:
REMARK  status: ('A' for Active; 'I' for Inactive)
REMARK    1  A    between atoms: C_2  and  C_3
REMARK    2  A    between atoms: C_4  and  C_5
REMARK    3  A    between atoms: C_4  and  C_11
REMARK    4  A    between atoms: N_13  and  CA_14
REMARK    5  A    between atoms: CA_19  and  C_28
REMARK    6  A    between atoms: C_20  and  C_23
REMARK    7  A    between atoms: C_23  and  O_24
REMARK    8  A    between atoms: O_24  and  C_25
REMARK                            x       y       z     vdW  Elec       q    Type
REMARK                         _______ _______ _______ _____ _____    ______ ____
ROOT
ATOM      1  CA  UNL     1      -0.262  -0.976   0.000  0.00  0.00    +0.000 C 
ATOM      2  C   UNL     1       0.564  -0.976   0.000  0.00  0.00    +0.000 C 
ATOM      3  N   UNL     1       0.564  -0.151   0.000  0.00  0.00    +0.000 N 
ATOM      4  C   UNL     1      -0.262  -0.151   0.000  0.00  0.00    +0.000 C 
ATOM      5  O   UNL     1      -0.845   0.432   0.000  0.00  0.00    +0.000 OA
ATOM      6  CA  UNL     1       1.278   0.262   0.000  0.00  0.00    +0.000 C 
ATOM      7  C   UNL     1       1.992  -0.151   0.000  0.00  0.00    +0.000 C 
ATOM      8  C   UNL     1       1.992  -0.976   0.000  0.00  0.00    +0.000 C 
ATOM      9  S   UNL     1       1.278  -1.389   0.000  0.00  0.00    +0.000 S 
ENDROOT
BRANCH   6  10
ATOM     10  C   UNL     1       1.278   1.087   0.000  0.00  0.00    +0.000 C 
ATOM     11  O   UNL     1       1.992   1.499   0.000  0.00  0.00    +0.000 OA
ATOM     12  OXT UNL     1       0.564   1.499   0.000  0.00  0.00    +0.000 OA
ENDBRANCH   6  10
BRANCH   1  15
ATOM     13  C   UNL     1      -1.642  -1.346   0.000  0.00  0.00    +0.000 C 
ATOM     14  O   UNL     1      -1.855  -0.549   0.000  0.00  0.00    +0.000 OA
ATOM     15  N   UNL     1      -0.845  -1.559   0.000  0.00  0.00    +0.000 NA
BRANCH  13  17
ATOM     16  C   UNL     1      -3.022  -1.716   0.000  0.00  0.00    +0.000 C 
ATOM     17  C   UNL     1      -2.225  -1.929   0.000  0.00  0.00    +0.000 C 
BRANCH  17  18
ATOM     18  C   UNL     1      -2.012  -2.726   0.000  0.00  0.00    +0.000 A 
ATOM     19  C   UNL     1      -1.241  -3.022   0.000  0.00  0.00    +0.000 A 
ATOM     20  S   UNL     1      -1.285  -3.846   0.000  0.00  0.00    +0.000 S 
ATOM     21  C   UNL     1      -2.082  -4.059   0.000  0.00  0.00    +0.000 A 
ATOM     22  N   UNL     1      -2.531  -3.367   0.000  0.00  0.00    +0.000 NA
ATOM     23  N   UNL     1      -2.377  -4.829   0.000  0.00  0.00    +0.000 NA
ENDBRANCH  17  18
BRANCH  16  25
ATOM     24  C   UNL     1      -4.032  -0.705   0.000  0.00  0.00    +0.000 C 
ATOM     25  C   UNL     1      -3.236  -0.919   0.000  0.00  0.00    +0.000 C 
ENDBRANCH  16  25
ENDBRANCH  13  17
ENDBRANCH   1  15
BRANCH   7  26
ATOM     26  C   UNL     1       2.707   0.262   0.000  0.00  0.00    +0.000 C 
BRANCH  26  27
ATOM     27  O   UNL     1       2.707   1.087   0.000  0.00  0.00    +0.000 OA
BRANCH  27  28
ATOM     28  C   UNL     1       3.421   1.499   0.000  0.00  0.00    +0.000 C 
ATOM     29  O   UNL     1       3.421   2.324   0.000  0.00  0.00    +0.000 OA
ATOM     30  N   UNL     1       4.136   1.087   0.000  0.00  0.00    +0.000 NA
ENDBRANCH  27  28
ENDBRANCH  26  27
ENDBRANCH   7  26
TORSDOF 8
