REMARK  Name = 
REMARK  3 active torsions:
REMARK  status: ('A' for Active; 'I' for Inactive)
REMARK    1  A    between atoms: C_4  and  S_6
REMARK    2  A    between atoms: S_6  and  C_7
REMARK    3  A    between atoms: C_11  and  N_13
REMARK                            x       y       z     vdW  Elec       q    Type
REMARK                         _______ _______ _______ _____ _____    ______ ____
ROOT
ATOM      1  C   UNL     1       0.472   0.215   0.000  0.00  0.00    +0.000 A 
ATOM      2  S   UNL     1       1.226   0.550   0.000  0.00  0.00    +0.000 S 
ATOM      3  N   UNL     1       0.558  -0.606   0.000  0.00  0.00    +0.000 NA
ATOM      4  C   UNL     1       1.778  -0.063   0.000  0.00  0.00    +0.000 A 
ATOM      5  C   UNL     1       1.365  -0.777   0.000  0.00  0.00    +0.000 A 
ENDROOT
BRANCH   4   6
ATOM      6  N   UNL     1       2.598   0.024   0.000  0.00  0.00    +0.000 N 
ATOM      7  O   UNL     1       3.083  -0.644   0.000  0.00  0.00    +0.000 OA
ATOM      8  O   UNL     1       2.934   0.777   0.000  0.00  0.00    +0.000 OA
ENDBRANCH   4   6
BRANCH   1   9
ATOM      9  S   UNL     1      -0.242   0.627   0.000  0.00  0.00    +0.000 S 
BRANCH   9  13
ATOM     10  C   UNL     1      -2.263  -0.063   0.000  0.00  0.00    +0.000 A 
ATOM     11  S   UNL     1      -1.711   0.550   0.000  0.00  0.00    +0.000 S 
ATOM     12  N   UNL     1      -1.850  -0.777   0.000  0.00  0.00    +0.000 NA
ATOM     13  C   UNL     1      -0.957   0.215   0.000  0.00  0.00    +0.000 A 
ATOM     14  N   UNL     1      -1.043  -0.606   0.000  0.00  0.00    +0.000 NA
ATOM     15  N   UNL     1      -3.083   0.024   0.000  0.00  0.00    +0.000 NA
ENDBRANCH   9  13
ENDBRANCH   1   9
TORSDOF 3
