REMARK  Name = 
REMARK  13 active torsions:
REMARK  status: ('A' for Active; 'I' for Inactive)
REMARK    1  A    between atoms: C_3  and  C_9
REMARK    2  A    between atoms: C_6  and  C_29
REMARK    3  A    between atoms: C_9  and  C_41
REMARK    4  A    between atoms: C_11  and  C_74
REMARK    5  A    between atoms: C_14  and  C_32
REMARK    6  A    between atoms: C_17  and  C_37
REMARK    7  A    between atoms: C_20  and  C_62
REMARK    8  A    between atoms: C_22  and  C_25
REMARK    9  A    between atoms: C_29  and  C_49
REMARK   10  A    between atoms: C_37  and  C_38
REMARK   11  A    between atoms: C_66  and  C_69
REMARK   12  A    between atoms: C_69  and  C_70
REMARK   13  A    between atoms: C_74  and  C_76
REMARK                            x       y       z     vdW  Elec       q    Type
REMARK                         _______ _______ _______ _____ _____    ______ ____
ROOT
ATOM      1  C   UNL     1       2.160   4.166   0.000  0.00  0.00    +0.000 C 
ATOM      2  N   UNL     1       2.633   3.233   0.000  0.00  0.00    +0.000 NA
ATOM      3  C   UNL     1       2.220   2.519   0.000  0.00  0.00    +0.000 C 
ATOM      4  C   UNL     1       2.633   1.804   0.000  0.00  0.00    +0.000 C 
ATOM      5  N   UNL     1       2.220   1.090   0.000  0.00  0.00    +0.000 N 
ATOM      6  C   UNL     1       2.633   0.375   0.000  0.00  0.00    +0.000 C 
ATOM      7  C   UNL     1       2.220  -0.339   0.000  0.00  0.00    +0.000 C 
ATOM      8  N   UNL     1       2.633  -1.054   0.000  0.00  0.00    +0.000 N 
ATOM      9  N   UNL     1      -0.429   3.946   0.000  0.00  0.00    +0.000 NA
ATOM     10  C   UNL     1      -2.849   4.233   0.000  0.00  0.00    +0.000 C 
ATOM     11  O   UNL     1      -3.351   3.270   0.000  0.00  0.00    +0.000 OA
ATOM     12  C   UNL     1      -2.938   2.556   0.000  0.00  0.00    +0.000 C 
ATOM     13  C   UNL     1      -3.351   1.841   0.000  0.00  0.00    +0.000 C 
ATOM     14  N   UNL     1      -2.938   1.127   0.000  0.00  0.00    +0.000 N 
ATOM     15  C   UNL     1      -3.351   0.412   0.000  0.00  0.00    +0.000 C 
ATOM     16  C   UNL     1      -2.938  -0.302   0.000  0.00  0.00    +0.000 C 
ATOM     17  N   UNL     1      -3.351  -1.017   0.000  0.00  0.00    +0.000 NA
ATOM     18  C   UNL     1      -2.938  -1.731   0.000  0.00  0.00    +0.000 C 
ATOM     19  C   UNL     1      -3.351  -2.446   0.000  0.00  0.00    +0.000 C 
ATOM     20  C   UNL     1      -1.612   4.602   0.000  0.00  0.00    +0.000 C 
ATOM     21  C   UNL     1       0.714   4.502   0.000  0.00  0.00    +0.000 C 
ATOM     22  O   UNL     1       2.712   4.751   0.000  0.00  0.00    +0.000 OA
ATOM     23  O   UNL     1      -1.612   5.496   0.000  0.00  0.00    +0.000 OA
ATOM     24  O   UNL     1       3.458   1.804   0.000  0.00  0.00    +0.000 OA
ATOM     25  O   UNL     1       1.395  -0.339   0.000  0.00  0.00    +0.000 OA
ATOM     26  O   UNL     1      -2.113   2.556   0.000  0.00  0.00    +0.000 OA
ATOM     27  C   UNL     1      -2.113   1.127   0.000  0.00  0.00    +0.000 C 
ATOM     28  O   UNL     1      -4.176   0.412   0.000  0.00  0.00    +0.000 OA
ATOM     29  O   UNL     1      -2.113  -1.731   0.000  0.00  0.00    +0.000 OA
ATOM     30  N   UNL     1      -2.938  -3.160   0.000  0.00  0.00    +0.000 N 
ATOM     31  C   UNL     1       3.417  -0.799   0.000  0.00  0.00    +0.000 C 
ATOM     32  C   UNL     1       2.633  -1.879   0.000  0.00  0.00    +0.000 C 
ATOM     33  C   UNL     1       3.902  -1.466   0.000  0.00  0.00    +0.000 C 
ATOM     34  C   UNL     1       3.417  -2.134   0.000  0.00  0.00    +0.000 C 
ATOM     35  C   UNL     1       1.965  -2.364   0.000  0.00  0.00    +0.000 C 
ATOM     36  O   UNL     1       1.212  -2.028   0.000  0.00  0.00    +0.000 OA
ATOM     37  N   UNL     1       1.952  -3.214   0.000  0.00  0.00    +0.000 NA
ATOM     38  C   UNL     1      -1.264  -3.171   0.000  0.00  0.00    +0.000 C 
ATOM     39  C   UNL     1       0.376  -3.758   0.000  0.00  0.00    +0.000 C 
ATOM     40  C   UNL     1      -3.570  -4.036   0.000  0.00  0.00    +0.000 C 
ATOM     41  O   UNL     1      -0.926  -2.147   0.000  0.00  0.00    +0.000 OA
ATOM     42  C   UNL     1       1.599   1.928   0.000  0.00  0.00    +0.000 C 
ENDROOT
BRANCH  21  43
ATOM     43  C   UNL     1       0.716   5.385   0.000  0.00  0.00    +0.000 C 
ATOM     44  C   UNL     1       1.281   5.816   0.000  0.00  0.00    +0.000 C 
ATOM     45  C   UNL     1      -0.144   5.717   0.000  0.00  0.00    +0.000 C 
ENDBRANCH  21  43
BRANCH  13  46
ATOM     46  C   UNL     1      -4.176   1.841   0.000  0.00  0.00    +0.000 C 
ATOM     47  C   UNL     1      -4.588   2.556   0.000  0.00  0.00    +0.000 C 
ATOM     48  C   UNL     1      -4.588   1.127   0.000  0.00  0.00    +0.000 C 
ENDBRANCH  13  46
BRANCH  19  49
ATOM     49  C   UNL     1      -4.176  -2.446   0.000  0.00  0.00    +0.000 C 
ATOM     50  C   UNL     1      -4.588  -1.731   0.000  0.00  0.00    +0.000 C 
ATOM     51  C   UNL     1      -4.588  -3.160   0.000  0.00  0.00    +0.000 C 
ENDBRANCH  19  49
BRANCH  39  52
ATOM     52  C   UNL     1       0.371  -4.583   0.000  0.00  0.00    +0.000 C 
ATOM     53  C   UNL     1       1.083  -4.999   0.000  0.00  0.00    +0.000 C 
BRANCH  52  54
ATOM     54  C   UNL     1      -0.345  -4.991   0.000  0.00  0.00    +0.000 C 
ATOM     55  C   UNL     1      -1.058  -4.574   0.000  0.00  0.00    +0.000 C 
ATOM     56  C   UNL     1      -0.350  -5.816   0.000  0.00  0.00    +0.000 C 
ENDBRANCH  52  54
ENDBRANCH  39  52
BRANCH  10  57
ATOM     57  C   UNL     1      -4.000   4.561   0.000  0.00  0.00    +0.000 C 
ATOM     58  C   UNL     1      -4.012   5.461   0.000  0.00  0.00    +0.000 C 
BRANCH  57  59
ATOM     59  C   UNL     1      -4.811   4.206   0.000  0.00  0.00    +0.000 C 
ATOM     60  C   UNL     1      -5.734   4.621   0.000  0.00  0.00    +0.000 C 
ENDBRANCH  57  59
ENDBRANCH  10  57
BRANCH   6  61
ATOM     61  C   UNL     1       4.084   0.375   0.000  0.00  0.00    +0.000 C 
BRANCH  61  62
ATOM     62  C   UNL     1       4.496   1.090   0.000  0.00  0.00    +0.000 A 
ATOM     63  C   UNL     1       4.084   1.804   0.000  0.00  0.00    +0.000 A 
ATOM     64  C   UNL     1       5.321   1.090   0.000  0.00  0.00    +0.000 A 
ATOM     65  C   UNL     1       4.496   2.519   0.000  0.00  0.00    +0.000 A 
ATOM     66  C   UNL     1       5.734   1.804   0.000  0.00  0.00    +0.000 A 
ATOM     67  C   UNL     1       5.321   2.519   0.000  0.00  0.00    +0.000 A 
ENDBRANCH  61  62
ENDBRANCH   6  61
BRANCH   3  68
ATOM     68  C   UNL     1       1.017   2.519   0.000  0.00  0.00    +0.000 C 
BRANCH  68  69
ATOM     69  C   UNL     1       0.605   1.804   0.000  0.00  0.00    +0.000 A 
ATOM     70  C   UNL     1       1.017   1.090   0.000  0.00  0.00    +0.000 A 
ATOM     71  C   UNL     1      -0.220   1.804   0.000  0.00  0.00    +0.000 A 
ATOM     72  C   UNL     1       0.605   0.375   0.000  0.00  0.00    +0.000 A 
ATOM     73  C   UNL     1      -0.632   1.090   0.000  0.00  0.00    +0.000 A 
ATOM     74  C   UNL     1      -0.220   0.375   0.000  0.00  0.00    +0.000 A 
ENDBRANCH  68  69
ENDBRANCH   3  68
BRANCH  16  75
ATOM     75  C   UNL     1      -2.054  -0.054   0.000  0.00  0.00    +0.000 C 
BRANCH  75  76
ATOM     76  C   UNL     1      -1.393  -0.679   0.000  0.00  0.00    +0.000 C 
ATOM     77  C   UNL     1      -0.448  -0.679   0.000  0.00  0.00    +0.000 C 
ATOM     78  C   UNL     1      -1.397  -1.483   0.000  0.00  0.00    +0.000 C 
ENDBRANCH  75  76
ENDBRANCH  16  75
TORSDOF 13
