REMARK  Name = 
REMARK  30 active torsions:
REMARK  status: ('A' for Active; 'I' for Inactive)
REMARK    1  A    between atoms: C_2  and  C_116
REMARK    2  A    between atoms: C_6  and  C_7
REMARK    3  A    between atoms: C_7  and  C_8
REMARK    4  A    between atoms: C_8  and  C_9
REMARK    5  A    between atoms: C_9  and  C_10
REMARK    6  A    between atoms: C_15  and  C_16
REMARK    7  A    between atoms: C_16  and  C_17
REMARK    8  A    between atoms: C_20  and  N_21
REMARK    9  A    between atoms: C_30  and  C_31
REMARK   10  A    between atoms: C_31  and  C_32
REMARK   11  A    between atoms: C_35  and  N_36
REMARK   12  A    between atoms: C_37  and  C_39
REMARK   13  A    between atoms: C_52  and  N_76
REMARK   14  A    between atoms: C_57  and  C_61
REMARK   15  A    between atoms: N_63  and  C_64
REMARK   16  A    between atoms: C_64  and  C_65
REMARK   17  A    between atoms: C_64  and  C_73
REMARK   18  A    between atoms: C_65  and  C_66
REMARK   19  A    between atoms: C_77  and  C_79
REMARK   20  A    between atoms: C_79  and  C_80
REMARK   21  A    between atoms: C_79  and  N_88
REMARK   22  A    between atoms: C_80  and  C_81
REMARK   23  A    between atoms: C_89  and  C_91
REMARK   24  A    between atoms: C_91  and  N_92
REMARK   25  A    between atoms: N_95  and  C_96
REMARK   26  A    between atoms: C_96  and  C_97
REMARK   27  A    between atoms: N_102  and  C_103
REMARK   28  A    between atoms: C_103  and  C_104
REMARK   29  A    between atoms: N_109  and  C_110
REMARK   30  A    between atoms: C_110  and  C_111
REMARK                            x       y       z     vdW  Elec       q    Type
REMARK                         _______ _______ _______ _____ _____    ______ ____
ROOT
ATOM      1  C   UNL     1       3.757   7.252   0.000  0.00  0.00    +0.000 C 
ATOM      2  N   UNL     1       4.564   7.424   0.000  0.00  0.00    +0.000 NA
ATOM      3  C   UNL     1       5.116   6.811   0.000  0.00  0.00    +0.000 C 
ATOM      4  O   UNL     1       5.923   6.982   0.000  0.00  0.00    +0.000 OA
ATOM      5  C   UNL     1       4.861   6.026   0.000  0.00  0.00    +0.000 C 
ATOM      6  N   UNL     1       4.054   5.854   0.000  0.00  0.00    +0.000 NA
ATOM      7  C   UNL     1       3.800   5.070   0.000  0.00  0.00    +0.000 C 
ATOM      8  O   UNL     1       4.351   4.457   0.000  0.00  0.00    +0.000 OA
ATOM      9  C   UNL     1       2.993   4.898   0.000  0.00  0.00    +0.000 C 
ATOM     10  N   UNL     1       2.738   4.114   0.000  0.00  0.00    +0.000 NA
ATOM     11  C   UNL     1       1.931   3.942   0.000  0.00  0.00    +0.000 C 
ATOM     12  O   UNL     1       1.379   4.555   0.000  0.00  0.00    +0.000 OA
ATOM     13  C   UNL     1       1.676   3.158   0.000  0.00  0.00    +0.000 C 
ATOM     14  N   UNL     1       0.869   2.986   0.000  0.00  0.00    +0.000 NA
ATOM     15  C   UNL     1       0.317   3.599   0.000  0.00  0.00    +0.000 C 
ATOM     16  O   UNL     1      -0.490   3.428   0.000  0.00  0.00    +0.000 OA
ATOM     17  C   UNL     1       0.572   4.384   0.000  0.00  0.00    +0.000 C 
ATOM     18  C   UNL     1       0.020   4.997   0.000  0.00  0.00    +0.000 C 
ATOM     19  S   UNL     1       0.275   5.781   0.000  0.00  0.00    +0.000 S 
ATOM     20  S   UNL     1       1.081   5.953   0.000  0.00  0.00    +0.000 S 
ATOM     21  C   UNL     1       1.336   6.738   0.000  0.00  0.00    +0.000 C 
ATOM     22  C   UNL     1       2.143   6.909   0.000  0.00  0.00    +0.000 C 
ATOM     23  N   UNL     1       2.398   7.694   0.000  0.00  0.00    +0.000 NA
ATOM     24  C   UNL     1       3.205   7.865   0.000  0.00  0.00    +0.000 C 
ATOM     25  O   UNL     1       3.460   8.650   0.000  0.00  0.00    +0.000 OA
ENDROOT
BRANCH   1  26
ATOM     26  C   UNL     1       4.012   8.037   0.000  0.00  0.00    +0.000 C 
ATOM     27  C   UNL     1       3.926   8.857   0.000  0.00  0.00    +0.000 C 
ATOM     28  O   UNL     1       4.819   8.208   0.000  0.00  0.00    +0.000 OA
ENDBRANCH   1  26
BRANCH  17  29
ATOM     29  N   UNL     1      -0.235   4.212   0.000  0.00  0.00    +0.000 NA
ATOM     30  C   UNL     1      -0.787   4.825   0.000  0.00  0.00    +0.000 C 
ATOM     31  O   UNL     1      -0.532   5.610   0.000  0.00  0.00    +0.000 OA
BRANCH  30  32
ATOM     32  C   UNL     1      -1.594   4.654   0.000  0.00  0.00    +0.000 C 
BRANCH  32  33
ATOM     33  N   UNL     1      -2.146   5.267   0.000  0.00  0.00    +0.000 NA
ATOM     34  C   UNL     1      -2.953   5.095   0.000  0.00  0.00    +0.000 C 
ATOM     35  O   UNL     1      -3.621   4.610   0.000  0.00  0.00    +0.000 OA
BRANCH  34  36
ATOM     36  C   UNL     1      -3.505   5.708   0.000  0.00  0.00    +0.000 C 
BRANCH  36  37
ATOM     37  N   UNL     1      -4.312   5.537   0.000  0.00  0.00    +0.000 NA
ATOM     38  C   UNL     1      -4.269   6.361   0.000  0.00  0.00    +0.000 C 
ATOM     39  C   UNL     1      -4.961   6.810   0.000  0.00  0.00    +0.000 C 
ATOM     40  N   UNL     1      -5.696   6.436   0.000  0.00  0.00    +0.000 NA
ATOM     41  C   UNL     1      -6.520   6.479   0.000  0.00  0.00    +0.000 C 
ATOM     42  C   UNL     1      -6.969   5.787   0.000  0.00  0.00    +0.000 C 
ATOM     43  N   UNL     1      -6.595   5.052   0.000  0.00  0.00    +0.000 NA
ATOM     44  C   UNL     1      -6.638   4.228   0.000  0.00  0.00    +0.000 C 
ATOM     45  C   UNL     1      -5.946   3.779   0.000  0.00  0.00    +0.000 C 
ATOM     46  N   UNL     1      -5.211   4.153   0.000  0.00  0.00    +0.000 NA
ATOM     47  C   UNL     1      -4.387   4.110   0.000  0.00  0.00    +0.000 C 
ATOM     48  C   UNL     1      -3.938   4.802   0.000  0.00  0.00    +0.000 C 
BRANCH  40  49
ATOM     49  C   UNL     1      -5.868   7.242   0.000  0.00  0.00    +0.000 C 
BRANCH  49  50
ATOM     50  C   UNL     1      -6.652   7.497   0.000  0.00  0.00    +0.000 C 
ATOM     51  O   UNL     1      -7.265   6.945   0.000  0.00  0.00    +0.000 OA
ATOM     52  O   UNL     1      -6.824   8.304   0.000  0.00  0.00    +0.000 OA
ENDBRANCH  49  50
ENDBRANCH  40  49
BRANCH  43  53
ATOM     53  C   UNL     1      -7.402   4.880   0.000  0.00  0.00    +0.000 C 
BRANCH  53  54
ATOM     54  C   UNL     1      -7.954   5.493   0.000  0.00  0.00    +0.000 C 
ATOM     55  O   UNL     1      -8.761   5.322   0.000  0.00  0.00    +0.000 OA
ATOM     56  O   UNL     1      -7.699   6.278   0.000  0.00  0.00    +0.000 OA
ENDBRANCH  53  54
ENDBRANCH  43  53
BRANCH  46  57
ATOM     57  C   UNL     1      -5.040   3.346   0.000  0.00  0.00    +0.000 C 
BRANCH  57  58
ATOM     58  C   UNL     1      -5.653   2.794   0.000  0.00  0.00    +0.000 C 
ATOM     59  O   UNL     1      -5.481   1.987   0.000  0.00  0.00    +0.000 OA
ATOM     60  O   UNL     1      -6.437   3.049   0.000  0.00  0.00    +0.000 OA
ENDBRANCH  57  58
ENDBRANCH  46  57
ENDBRANCH  36  37
ENDBRANCH  34  36
ENDBRANCH  32  33
BRANCH  32  61
ATOM     61  C   UNL     1      -1.849   3.869   0.000  0.00  0.00    +0.000 C 
BRANCH  61  62
ATOM     62  C   UNL     1      -2.656   3.698   0.000  0.00  0.00    +0.000 A 
ATOM     63  C   UNL     1      -2.911   2.913   0.000  0.00  0.00    +0.000 A 
ATOM     64  C   UNL     1      -3.718   2.741   0.000  0.00  0.00    +0.000 A 
ATOM     65  C   UNL     1      -4.270   3.355   0.000  0.00  0.00    +0.000 A 
ATOM     66 CL   UNL     1      -4.883   3.907   0.000  0.00  0.00    +0.000 Cl
ATOM     67  C   UNL     1      -4.015   4.139   0.000  0.00  0.00    +0.000 A 
ATOM     68  C   UNL     1      -3.208   4.311   0.000  0.00  0.00    +0.000 A 
ENDBRANCH  61  62
ENDBRANCH  32  61
ENDBRANCH  30  32
ENDBRANCH  17  29
BRANCH  22  69
ATOM     69  C   UNL     1       1.591   7.522   0.000  0.00  0.00    +0.000 C 
ATOM     70  O   UNL     1       1.846   8.307   0.000  0.00  0.00    +0.000 OA
ATOM     71  N   UNL     1       0.784   7.351   0.000  0.00  0.00    +0.000 NA
BRANCH  71  72
ATOM     72  C   UNL     1       0.232   7.964   0.000  0.00  0.00    +0.000 C 
BRANCH  72  73
ATOM     73  C   UNL     1      -0.575   7.792   0.000  0.00  0.00    +0.000 C 
ATOM     74  N   UNL     1      -0.830   7.008   0.000  0.00  0.00    +0.000 NA
ATOM     75  O   UNL     1      -1.127   8.405   0.000  0.00  0.00    +0.000 OA
ENDBRANCH  72  73
BRANCH  72  76
ATOM     76  C   UNL     1       0.487   8.748   0.000  0.00  0.00    +0.000 C 
BRANCH  76  77
ATOM     77  C   UNL     1      -0.065   9.361   0.000  0.00  0.00    +0.000 A 
ATOM     78  C   UNL     1      -0.872   9.190   0.000  0.00  0.00    +0.000 A 
ATOM     79  C   UNL     1      -1.424   9.803   0.000  0.00  0.00    +0.000 A 
ATOM     80  C   UNL     1      -1.169  10.588   0.000  0.00  0.00    +0.000 A 
ATOM     81  O   UNL     1      -1.721  11.201   0.000  0.00  0.00    +0.000 OA
ATOM     82  C   UNL     1      -0.362  10.759   0.000  0.00  0.00    +0.000 A 
ATOM     83  C   UNL     1       0.190  10.146   0.000  0.00  0.00    +0.000 A 
ENDBRANCH  76  77
ENDBRANCH  72  76
ENDBRANCH  71  72
ENDBRANCH  22  69
BRANCH  13  84
ATOM     84  C   UNL     1       2.228   2.544   0.000  0.00  0.00    +0.000 C 
BRANCH  84  85
ATOM     85  C   UNL     1       1.973   1.760   0.000  0.00  0.00    +0.000 A 
ATOM     86  C   UNL     1       2.525   1.147   0.000  0.00  0.00    +0.000 A 
ATOM     87  C   UNL     1       2.270   0.362   0.000  0.00  0.00    +0.000 A 
ATOM     88  C   UNL     1       1.463   0.191   0.000  0.00  0.00    +0.000 A 
ATOM     89  C   UNL     1       0.911   0.804   0.000  0.00  0.00    +0.000 A 
ATOM     90  C   UNL     1       1.166   1.588   0.000  0.00  0.00    +0.000 A 
BRANCH  88  91
ATOM     91  N   UNL     1       1.208  -0.594   0.000  0.00  0.00    +0.000 NA
ATOM     92  C   UNL     1       1.760  -1.207   0.000  0.00  0.00    +0.000 C 
ATOM     93  O   UNL     1       2.567  -1.036   0.000  0.00  0.00    +0.000 OA
BRANCH  92  94
ATOM     94  C   UNL     1       1.505  -1.992   0.000  0.00  0.00    +0.000 C 
ATOM     95  C   UNL     1       2.057  -2.605   0.000  0.00  0.00    +0.000 C 
ATOM     96  C   UNL     1       1.802  -3.389   0.000  0.00  0.00    +0.000 C 
ATOM     97  O   UNL     1       2.354  -4.003   0.000  0.00  0.00    +0.000 OA
ATOM     98  N   UNL     1       0.995  -3.561   0.000  0.00  0.00    +0.000 NA
ATOM     99  C   UNL     1       0.443  -2.948   0.000  0.00  0.00    +0.000 C 
ATOM    100  O   UNL     1      -0.364  -3.119   0.000  0.00  0.00    +0.000 OA
ATOM    101  N   UNL     1       0.698  -2.163   0.000  0.00  0.00    +0.000 NA
ENDBRANCH  92  94
ENDBRANCH  88  91
ENDBRANCH  84  85
ENDBRANCH  13  84
BRANCH   5 102
ATOM    102  C   UNL     1       5.413   5.413   0.000  0.00  0.00    +0.000 C 
BRANCH 102 103
ATOM    103  C   UNL     1       6.220   5.584   0.000  0.00  0.00    +0.000 C 
BRANCH 103 104
ATOM    104  C   UNL     1       6.772   4.971   0.000  0.00  0.00    +0.000 C 
BRANCH 104 105
ATOM    105  C   UNL     1       7.579   5.143   0.000  0.00  0.00    +0.000 C 
ATOM    106  N   UNL     1       8.132   4.530   0.000  0.00  0.00    +0.000 NA
ENDBRANCH 104 105
ENDBRANCH 103 104
ENDBRANCH 102 103
ENDBRANCH   5 102
BRANCH   9 107
ATOM    107  C   UNL     1       3.707   4.486   0.000  0.00  0.00    +0.000 C 
BRANCH 107 108
ATOM    108  C   UNL     1       3.707   3.661   0.000  0.00  0.00    +0.000 A 
ATOM    109  C   UNL     1       4.421   3.248   0.000  0.00  0.00    +0.000 A 
ATOM    110  C   UNL     1       4.421   2.423   0.000  0.00  0.00    +0.000 A 
ATOM    111  C   UNL     1       3.707   2.011   0.000  0.00  0.00    +0.000 A 
ATOM    112  C   UNL     1       2.993   2.423   0.000  0.00  0.00    +0.000 A 
ATOM    113  C   UNL     1       2.993   3.248   0.000  0.00  0.00    +0.000 A 
BRANCH 111 114
ATOM    114  N   UNL     1       3.707   1.186   0.000  0.00  0.00    +0.000 NA
ATOM    115  C   UNL     1       4.421   0.773   0.000  0.00  0.00    +0.000 C 
ATOM    116  N   UNL     1       5.136   1.186   0.000  0.00  0.00    +0.000 NA
ATOM    117  O   UNL     1       4.421  -0.052   0.000  0.00  0.00    +0.000 OA
ENDBRANCH 111 114
ENDBRANCH 107 108
ENDBRANCH   9 107
TORSDOF 30
