REMARK  Name = 
REMARK  5 active torsions:
REMARK  status: ('A' for Active; 'I' for Inactive)
REMARK    1  A    between atoms: C_2  and  C_13
REMARK    2  A    between atoms: C_4  and  N_14
REMARK    3  A    between atoms: C_6  and  C_20
REMARK    4  A    between atoms: C_20  and  C_27
REMARK    5  A    between atoms: C_21  and  C_27
REMARK                            x       y       z     vdW  Elec       q    Type
REMARK                         _______ _______ _______ _____ _____    ______ ____
ROOT
ATOM      1  C   UNL     1       3.297  -0.531   0.000  0.00  0.00    +0.000 C 
ATOM      2  C   UNL     1       2.076  -0.930   0.000  0.00  0.00    +0.000 C 
ATOM      3  C   UNL     1       2.502   0.255   0.000  0.00  0.00    +0.000 C 
ATOM      4  C   UNL     1       2.502  -0.745   0.000  0.00  0.00    +0.000 C 
ATOM      5  O   UNL     1       1.289  -1.169   0.000  0.00  0.00    +0.000 OA
ATOM      6  C   UNL     1       1.702  -0.465   0.000  0.00  0.00    +0.000 C 
ATOM      7  C   UNL     1       2.068  -0.149   0.000  0.00  0.00    +0.000 C 
ATOM      8  C   UNL     1       3.935  -0.745   0.000  0.00  0.00    +0.000 C 
ATOM      9  C   UNL     1       2.834  -1.310   0.000  0.00  0.00    +0.000 C 
ATOM     10  C   UNL     1       3.223   0.490   0.000  0.00  0.00    +0.000 C 
ATOM     11  C   UNL     1       3.057   0.083   0.000  0.00  0.00    +0.000 C 
ATOM     12  C   UNL     1       3.935   0.081   0.000  0.00  0.00    +0.000 C 
ATOM     13  C   UNL     1       1.574   0.166   0.000  0.00  0.00    +0.000 C 
ATOM     14  O   UNL     1       3.223   1.316   0.000  0.00  0.00    +0.000 OA
ATOM     15  C   UNL     1       2.286  -1.732   0.000  0.00  0.00    +0.000 C 
ATOM     16  C   UNL     1       2.500   1.011   0.000  0.00  0.00    +0.000 C 
ENDROOT
BRANCH   3  17
ATOM     17  C   UNL     1       1.788   0.488   0.000  0.00  0.00    +0.000 C 
BRANCH  17  18
ATOM     18  C   UNL     1       1.075   0.075   0.000  0.00  0.00    +0.000 C 
BRANCH  18  20
ATOM     19  N   UNL     1      -0.359   0.075   0.000  0.00  0.00    +0.000 NA
ATOM     20  C   UNL     1       0.355   0.482   0.000  0.00  0.00    +0.000 C 
ATOM     21  O   UNL     1       0.355   1.310   0.000  0.00  0.00    +0.000 OA
BRANCH  19  23
ATOM     22  C   UNL     1      -2.506   0.482   0.000  0.00  0.00    +0.000 A 
ATOM     23  C   UNL     1      -1.071   0.482   0.000  0.00  0.00    +0.000 A 
ATOM     24  C   UNL     1      -1.788   0.072   0.000  0.00  0.00    +0.000 A 
ATOM     25  C   UNL     1      -2.506   1.310   0.000  0.00  0.00    +0.000 A 
ATOM     26  C   UNL     1      -1.073   1.310   0.000  0.00  0.00    +0.000 A 
ATOM     27  C   UNL     1      -1.794   1.723   0.000  0.00  0.00    +0.000 A 
ATOM     28  O   UNL     1      -1.788  -0.756   0.000  0.00  0.00    +0.000 OA
ATOM     29  O   UNL     1      -0.359   1.732   0.000  0.00  0.00    +0.000 OA
BRANCH  22  30
ATOM     30  C   UNL     1      -3.220   0.072   0.000  0.00  0.00    +0.000 C 
ATOM     31  O   UNL     1      -3.220  -0.756   0.000  0.00  0.00    +0.000 OA
ATOM     32  O   UNL     1      -3.935   0.488   0.000  0.00  0.00    +0.000 OA
ENDBRANCH  22  30
ENDBRANCH  19  23
ENDBRANCH  18  20
ENDBRANCH  17  18
ENDBRANCH   3  17
TORSDOF 5
