REMARK  Name = 
REMARK  5 active torsions:
REMARK  status: ('A' for Active; 'I' for Inactive)
REMARK    1  A    between atoms: C_2  and  C_5
REMARK    2  A    between atoms: C_7  and  C_8
REMARK    3  A    between atoms: C_8  and  C_9
REMARK    4  A    between atoms: C_10  and  C_17
REMARK    5  A    between atoms: C_20  and  C_23
REMARK                            x       y       z     vdW  Elec       q    Type
REMARK                         _______ _______ _______ _____ _____    ______ ____
ROOT
ATOM      1  C   UNL     1      -0.715  -6.188   0.000  0.00  0.00    +0.000 A 
ATOM      2  C   UNL     1       0.000  -6.600   0.000  0.00  0.00    +0.000 A 
ATOM      3  N   UNL     1       0.000  -7.425   0.000  0.00  0.00    +0.000 NA
ATOM      4  C   UNL     1      -0.715  -7.838   0.000  0.00  0.00    +0.000 A 
ATOM      5  O   UNL     1      -0.715  -8.662   0.000  0.00  0.00    +0.000 OA
ATOM      6  N   UNL     1      -1.429  -7.425   0.000  0.00  0.00    +0.000 NA
ATOM      7  C   UNL     1      -1.429  -6.600   0.000  0.00  0.00    +0.000 A 
ATOM      8  O   UNL     1      -2.143  -6.188   0.000  0.00  0.00    +0.000 OA
ENDROOT
BRANCH   2   9
ATOM      9  C   UNL     1       0.715  -6.188   0.000  0.00  0.00    +0.000 C 
ATOM     10  C   UNL     1       0.715  -5.362   0.000  0.00  0.00    +0.000 C 
ATOM     11  C   UNL     1       1.429  -4.950   0.000  0.00  0.00    +0.000 C 
ATOM     12  C   UNL     1       2.143  -5.362   0.000  0.00  0.00    +0.000 C 
ATOM     13  C   UNL     1       2.143  -6.188   0.000  0.00  0.00    +0.000 C 
ATOM     14  C   UNL     1       1.429  -6.600   0.000  0.00  0.00    +0.000 C 
BRANCH  12  15
ATOM     15  C   UNL     1       2.858  -4.950   0.000  0.00  0.00    +0.000 A 
ATOM     16  C   UNL     1       2.858  -4.125   0.000  0.00  0.00    +0.000 A 
ATOM     17  C   UNL     1       3.572  -3.712   0.000  0.00  0.00    +0.000 A 
ATOM     18  C   UNL     1       4.287  -4.125   0.000  0.00  0.00    +0.000 A 
ATOM     19  C   UNL     1       4.287  -4.950   0.000  0.00  0.00    +0.000 A 
ATOM     20  C   UNL     1       3.572  -5.362   0.000  0.00  0.00    +0.000 A 
ENDBRANCH  12  15
ENDBRANCH   2   9
BRANCH   1  21
ATOM     21  C   UNL     1      -0.715  -5.362   0.000  0.00  0.00    +0.000 C 
BRANCH  21  24
ATOM     22  C   UNL     1      -2.143  -3.712   0.000  0.00  0.00    +0.000 A 
ATOM     23  C   UNL     1      -1.429  -4.125   0.000  0.00  0.00    +0.000 A 
ATOM     24  C   UNL     1      -1.429  -4.950   0.000  0.00  0.00    +0.000 A 
ATOM     25  C   UNL     1      -2.143  -5.362   0.000  0.00  0.00    +0.000 A 
ATOM     26  C   UNL     1      -2.858  -4.950   0.000  0.00  0.00    +0.000 A 
ATOM     27  C   UNL     1      -2.858  -4.125   0.000  0.00  0.00    +0.000 A 
BRANCH  22  29
ATOM     28  F   UNL     1      -2.143  -2.062   0.000  0.00  0.00    +0.000 F 
ATOM     29  C   UNL     1      -2.143  -2.888   0.000  0.00  0.00    +0.000 C 
ATOM     30  F   UNL     1      -2.968  -2.888   0.000  0.00  0.00    +0.000 F 
ATOM     31  F   UNL     1      -1.318  -2.888   0.000  0.00  0.00    +0.000 F 
ENDBRANCH  22  29
ENDBRANCH  21  24
ENDBRANCH   1  21
TORSDOF 5
