REMARK  Name = 
REMARK  2 active torsions:
REMARK  status: ('A' for Active; 'I' for Inactive)
REMARK    1  A    between atoms: N_5  and  C_13
REMARK    2  A    between atoms: C_13  and  C_16
REMARK                            x       y       z     vdW  Elec       q    Type
REMARK                         _______ _______ _______ _____ _____    ______ ____
ROOT
ATOM      1  O   UNL     1      -0.447  -1.563   0.000  0.00  0.00    +0.000 OA
ATOM      2  O   UNL     1      -2.984  -0.028   0.000  0.00  0.00    +0.000 OA
ATOM      3  O   UNL     1      -3.185  -2.157   0.000  0.00  0.00    +0.000 OA
ATOM      4  O   UNL     1      -3.185   2.010   0.000  0.00  0.00    +0.000 OA
ATOM      5  N   UNL     1       0.424  -0.898   0.000  0.00  0.00    +0.000 N 
ATOM      6  C   UNL     1      -1.719  -0.486   0.000  0.00  0.00    +0.000 C 
ATOM      7  C   UNL     1      -1.005  -0.898   0.000  0.00  0.00    +0.000 C 
ATOM      8  C   UNL     1      -0.290  -0.486   0.000  0.00  0.00    +0.000 C 
ATOM      9  C   UNL     1      -1.243   0.119   0.000  0.00  0.00    +0.000 C 
ATOM     10  C   UNL     1      -0.069   0.119   0.000  0.00  0.00    +0.000 C 
ATOM     11  C   UNL     1      -2.434  -0.898   0.000  0.00  0.00    +0.000 C 
ATOM     12  C   UNL     1      -1.719   0.339   0.000  0.00  0.00    +0.000 A 
ATOM     13  C   UNL     1      -0.290   0.339   0.000  0.00  0.00    +0.000 C 
ATOM     14  C   UNL     1      -1.005  -1.724   0.000  0.00  0.00    +0.000 C 
ATOM     15  C   UNL     1      -1.005   0.751   0.000  0.00  0.00    +0.000 A 
ATOM     16  C   UNL     1       0.618  -1.744   0.000  0.00  0.00    +0.000 C 
ATOM     17  C   UNL     1      -1.719  -2.136   0.000  0.00  0.00    +0.000 C 
ATOM     18  C   UNL     1      -2.434  -1.724   0.000  0.00  0.00    +0.000 C 
ATOM     19  C   UNL     1      -2.434   0.751   0.000  0.00  0.00    +0.000 A 
ATOM     20  C   UNL     1      -1.005   1.576   0.000  0.00  0.00    +0.000 A 
ATOM     21  C   UNL     1      -2.434   1.576   0.000  0.00  0.00    +0.000 A 
ATOM     22  C   UNL     1      -1.719   1.989   0.000  0.00  0.00    +0.000 A 
ENDROOT
BRANCH   5  23
ATOM     23  C   UNL     1       1.253  -1.153   0.000  0.00  0.00    +0.000 C 
BRANCH  23  24
ATOM     24  C   UNL     1       1.888  -0.562   0.000  0.00  0.00    +0.000 C 
ATOM     25  C   UNL     1       2.734  -0.368   0.000  0.00  0.00    +0.000 C 
ATOM     26  C   UNL     1       2.143   0.267   0.000  0.00  0.00    +0.000 C 
ENDBRANCH  23  24
ENDBRANCH   5  23
TORSDOF 2
