REMARK  Name = 
REMARK  0 active torsions:
REMARK  status: ('A' for Active; 'I' for Inactive)
REMARK                            x       y       z     vdW  Elec       q    Type
REMARK                         _______ _______ _______ _____ _____    ______ ____
ROOT
ATOM      1  C   UNL     1       0.980  -0.155   0.000  0.00  0.00    +0.000 C 
ATOM      2  C   UNL     1       0.155  -0.155   0.000  0.00  0.00    +0.000 C 
ATOM      3  O   UNL     1      -0.330  -0.823   0.000  0.00  0.00    +0.000 OA
ATOM      4  N   UNL     1      -0.100   0.629   0.000  0.00  0.00    +0.000 NA
ATOM      5  C   UNL     1       0.568   1.114   0.000  0.00  0.00    +0.000 C 
ATOM      6  O   UNL     1       0.568   1.939   0.000  0.00  0.00    +0.000 OA
ATOM      7  S   UNL     1       1.235   0.629   0.000  0.00  0.00    +0.000 S 
ENDROOT
TORSDOF 0
