REMARK  Name = 
REMARK  8 active torsions:
REMARK  status: ('A' for Active; 'I' for Inactive)
REMARK    1  A    between atoms: N_1  and  C_18
REMARK    2  A    between atoms: N_4  and  C_5
REMARK    3  A    between atoms: C_5  and  C_6
REMARK    4  A    between atoms: C_6  and  S_7
REMARK    5  A    between atoms: S_7  and  C_8
REMARK    6  A    between atoms: C_8  and  C_10
REMARK    7  A    between atoms: C_13  and  C_14
REMARK    8  A    between atoms: C_14  and  N_15
REMARK                            x       y       z     vdW  Elec       q    Type
REMARK                         _______ _______ _______ _____ _____    ______ ____
ROOT
ATOM      1  C   UNL     1       0.644  -0.600   0.000  0.00  0.00    +0.000 C 
ENDROOT
BRANCH   1   5
ATOM      2  N   UNL     1       2.788  -1.012   0.000  0.00  0.00    +0.000 NA
ATOM      3  C   UNL     1       2.073  -0.600   0.000  0.00  0.00    +0.000 C 
ATOM      4  O   UNL     1       2.073   0.225   0.000  0.00  0.00    +0.000 OA
ATOM      5  N   UNL     1       1.359  -1.012   0.000  0.00  0.00    +0.000 NA
BRANCH   2   6
ATOM      6  C   UNL     1       3.502  -0.600   0.000  0.00  0.00    +0.000 A 
ATOM      7  C   UNL     1       4.216  -1.012   0.000  0.00  0.00    +0.000 A 
ATOM      8  C   UNL     1       4.931  -0.600   0.000  0.00  0.00    +0.000 A 
ATOM      9  C   UNL     1       4.931   0.225   0.000  0.00  0.00    +0.000 A 
ATOM     10  C   UNL     1       4.216   0.637   0.000  0.00  0.00    +0.000 A 
ATOM     11  C   UNL     1       3.502   0.225   0.000  0.00  0.00    +0.000 A 
ATOM     12  C   UNL     1       5.645   0.637   0.000  0.00  0.00    +0.000 C 
ATOM     13 CL   UNL     1       5.645  -1.012   0.000  0.00  0.00    +0.000 Cl
ENDBRANCH   2   6
ENDBRANCH   1   5
BRANCH   1  14
ATOM     14  C   UNL     1      -0.070  -1.012   0.000  0.00  0.00    +0.000 C 
BRANCH  14  15
ATOM     15  S   UNL     1      -0.785  -0.600   0.000  0.00  0.00    +0.000 S 
BRANCH  15  16
ATOM     16  C   UNL     1      -1.499  -1.012   0.000  0.00  0.00    +0.000 C 
BRANCH  16  18
ATOM     17  O   UNL     1      -2.967  -0.935   0.000  0.00  0.00    +0.000 OA
ATOM     18  C   UNL     1      -2.214  -0.600   0.000  0.00  0.00    +0.000 A 
ATOM     19  C   UNL     1      -2.300   0.221   0.000  0.00  0.00    +0.000 A 
ATOM     20  C   UNL     1      -3.107   0.392   0.000  0.00  0.00    +0.000 A 
ATOM     21  C   UNL     1      -3.519  -0.322   0.000  0.00  0.00    +0.000 A 
BRANCH  21  22
ATOM     22  C   UNL     1      -4.340  -0.409   0.000  0.00  0.00    +0.000 C 
BRANCH  22  23
ATOM     23  N   UNL     1      -4.825   0.259   0.000  0.00  0.00    +0.000 NA
ATOM     24  C   UNL     1      -4.489   1.012   0.000  0.00  0.00    +0.000 C 
ATOM     25  C   UNL     1      -5.645   0.172   0.000  0.00  0.00    +0.000 C 
ENDBRANCH  22  23
ENDBRANCH  21  22
ENDBRANCH  16  18
ENDBRANCH  15  16
ENDBRANCH  14  15
ENDBRANCH   1  14
TORSDOF 8
