REMARK  Name = 
REMARK  2 active torsions:
REMARK  status: ('A' for Active; 'I' for Inactive)
REMARK    1  A    between atoms: CA_1  and  C_2
REMARK    2  A    between atoms: CA_6  and  C_7
REMARK                            x       y       z     vdW  Elec       q    Type
REMARK                         _______ _______ _______ _____ _____    ______ ____
ROOT
ATOM      1  C   GLY A   1       0.069   0.119   0.000  0.00  0.00    +0.000 C 
ATOM      2  O   GLY A   1       0.481   0.834   0.000  0.00  0.00    +0.000 OA
ATOM      3  OXT GLY A   1      -0.756   0.119   0.000  0.00  0.00    +0.000 OA
ENDROOT
BRANCH   1   4
ATOM      4  CA  GLY A   1       0.481  -0.595   0.000  0.00  0.00    +0.000 C 
ATOM      5  N   GLY A   1       1.306  -0.595   0.000  0.00  0.00    +0.000 NA
ENDBRANCH   1   4
TORSDOF 1
REMARK  Name = 
REMARK  2 active torsions:
REMARK  status: ('A' for Active; 'I' for Inactive)
REMARK    1  A    between atoms: CA_1  and  C_2
REMARK    2  A    between atoms: CA_6  and  C_7
REMARK                            x       y       z     vdW  Elec       q    Type
REMARK                         _______ _______ _______ _____ _____    ______ ____
ROOT
ATOM      1  C   GLY A   1       4.901  -0.143   0.000  0.00  0.00    +0.000 C 
ATOM      2  O   GLY A   1       5.726  -0.143   0.000  0.00  0.00    +0.000 OA
ATOM      3  OXT GLY A   1       4.488  -0.857   0.000  0.00  0.00    +0.000 OA
ENDROOT
BRANCH   1   4
ATOM      4  CA  GLY A   1       4.488   0.572   0.000  0.00  0.00    +0.000 C 
ATOM      5  N   GLY A   1       3.663   0.572   0.000  0.00  0.00    +0.000 NA
ENDBRANCH   1   4
TORSDOF 1
REMARK  Name = 
REMARK  2 active torsions:
REMARK  status: ('A' for Active; 'I' for Inactive)
REMARK    1  A    between atoms: CA_1  and  C_2
REMARK    2  A    between atoms: CA_6  and  C_7
REMARK                            x       y       z     vdW  Elec       q    Type
REMARK                         _______ _______ _______ _____ _____    ______ ____
ROOT
ATOM      1 MG   UNL     1      -1.581   0.119   0.000  0.00  0.00    +0.000 Mg
ENDROOT
TORSDOF 0
