REMARK  Name = 
REMARK  4 active torsions:
REMARK  status: ('A' for Active; 'I' for Inactive)
REMARK    1  A    between atoms: C_14  and  C_17
REMARK    2  A    between atoms: C_17  and  C_19
REMARK    3  A    between atoms: C_19  and  C_20
REMARK    4  A    between atoms: C_20  and  C_21
REMARK                            x       y       z     vdW  Elec       q    Type
REMARK                         _______ _______ _______ _____ _____    ______ ____
ROOT
ATOM      1  C   UNL     1      -1.266   1.026   0.000  0.00  0.00    +0.000 A 
ATOM      2  C   UNL     1      -1.521   0.241   0.000  0.00  0.00    +0.000 A 
ATOM      3  C   UNL     1      -0.969  -0.372   0.000  0.00  0.00    +0.000 A 
ATOM      4  C   UNL     1      -1.002  -1.357   0.000  0.00  0.00    +0.000 A 
ATOM      5  C   UNL     1      -0.335  -1.842   0.000  0.00  0.00    +0.000 A 
ATOM      6  C   UNL     1       0.419  -1.506   0.000  0.00  0.00    +0.000 A 
ATOM      7  C   UNL     1       0.505  -0.685   0.000  0.00  0.00    +0.000 A 
ATOM      8  C   UNL     1      -0.162  -0.201   0.000  0.00  0.00    +0.000 A 
ATOM      9  C   UNL     1       0.092   0.584   0.000  0.00  0.00    +0.000 A 
ATOM     10  C   UNL     1      -0.460   1.197   0.000  0.00  0.00    +0.000 A 
ATOM     11  C   UNL     1       0.917   0.584   0.000  0.00  0.00    +0.000 A 
ATOM     12  C   UNL     1       1.172  -0.201   0.000  0.00  0.00    +0.000 A 
ATOM     13  C   UNL     1       1.979  -0.372   0.000  0.00  0.00    +0.000 A 
ATOM     14  C   UNL     1       2.531   0.241   0.000  0.00  0.00    +0.000 A 
ATOM     15  C   UNL     1       2.276   1.026   0.000  0.00  0.00    +0.000 A 
ATOM     16  C   UNL     1       1.470   1.197   0.000  0.00  0.00    +0.000 A 
ENDROOT
BRANCH  14  17
ATOM     17  C   UNL     1       3.338   0.069   0.000  0.00  0.00    +0.000 C 
ATOM     18  O   UNL     1       3.890   0.682   0.000  0.00  0.00    +0.000 OA
BRANCH  17  19
ATOM     19  C   UNL     1       3.593  -0.715   0.000  0.00  0.00    +0.000 C 
BRANCH  19  20
ATOM     20  C   UNL     1       4.400  -0.887   0.000  0.00  0.00    +0.000 C 
BRANCH  20  21
ATOM     21  C   UNL     1       4.655  -1.671   0.000  0.00  0.00    +0.000 C 
ATOM     22  O   UNL     1       5.462  -1.843   0.000  0.00  0.00    +0.000 OA
ATOM     23  O   UNL     1       4.103  -2.284   0.000  0.00  0.00    +0.000 OA
ENDBRANCH  20  21
ENDBRANCH  19  20
ENDBRANCH  17  19
ENDBRANCH  14  17
TORSDOF 4
