REMARK  Name = 
REMARK  28 active torsions:
REMARK  status: ('A' for Active; 'I' for Inactive)
REMARK    1  A    between atoms: C_1  and  N_38
REMARK    2  A    between atoms: C_4  and  C_32
REMARK    3  A    between atoms: C_5  and  O_33
REMARK    4  A    between atoms: C_7  and  C_8
REMARK    5  A    between atoms: C_7  and  N_9
REMARK    6  A    between atoms: C_8  and  S_48
REMARK    7  A    between atoms: C_10  and  C_13
REMARK    8  A    between atoms: C_12  and  C_13
REMARK    9  A    between atoms: C_12  and  N_14
REMARK   10  A    between atoms: C_16  and  C_21
REMARK   11  A    between atoms: C_17  and  C_19
REMARK   12  A    between atoms: C_17  and  O_23
REMARK   13  A    between atoms: C_19  and  C_21
REMARK   14  A    between atoms: O_23  and  P_30
REMARK   15  A    between atoms: O_24  and  P_30
REMARK   16  A    between atoms: O_24  and  P_31
REMARK   17  A    between atoms: O_25  and  P_31
REMARK   18  A    between atoms: O_25  and  C_32
REMARK   19  A    between atoms: O_33  and  P_36
REMARK   20  A    between atoms: S_48  and  C_50
REMARK   21  A    between atoms: C_50  and  C_51
REMARK   22  A    between atoms: C_51  and  C_53
REMARK   23  A    between atoms: C_53  and  C_54
REMARK   24  A    between atoms: C_54  and  C_55
REMARK   25  A    between atoms: C_55  and  C_56
REMARK   26  A    between atoms: C_56  and  C_57
REMARK   27  A    between atoms: C_57  and  C_58
REMARK   28  A    between atoms: C_58  and  C_59
REMARK                            x       y       z     vdW  Elec       q    Type
REMARK                         _______ _______ _______ _____ _____    ______ ____
ROOT
ATOM      1  O   UNL     1      -3.329   1.806   0.000  0.00  0.00    +0.000 OA
ENDROOT
BRANCH   1   4
ATOM      2  O   UNL     1      -2.504   2.631   0.000  0.00  0.00    +0.000 OA
ATOM      3  O   UNL     1      -2.504   0.982   0.000  0.00  0.00    +0.000 OA
ATOM      4  P   UNL     1      -2.504   1.806   0.000  0.00  0.00    +0.000 P 
BRANCH   4   5
ATOM      5  O   UNL     1      -1.679   1.806   0.000  0.00  0.00    +0.000 OA
BRANCH   5   8
ATOM      6  O   UNL     1      -0.854   2.631   0.000  0.00  0.00    +0.000 OA
ATOM      7  O   UNL     1      -0.854   0.982   0.000  0.00  0.00    +0.000 OA
ATOM      8  P   UNL     1      -0.854   1.806   0.000  0.00  0.00    +0.000 P 
BRANCH   8   9
ATOM      9  O   UNL     1      -0.029   1.806   0.000  0.00  0.00    +0.000 OA
BRANCH   9  10
ATOM     10  C   UNL     1       0.554   2.390   0.000  0.00  0.00    +0.000 C 
BRANCH  10  14
ATOM     11  C   UNL     1       2.674   2.135   0.000  0.00  0.00    +0.000 C 
ATOM     12  O   UNL     1       2.007   2.620   0.000  0.00  0.00    +0.000 OA
ATOM     13  C   UNL     1       2.419   1.350   0.000  0.00  0.00    +0.000 C 
ATOM     14  C   UNL     1       1.339   2.135   0.000  0.00  0.00    +0.000 C 
ATOM     15  C   UNL     1       1.594   1.350   0.000  0.00  0.00    +0.000 C 
ATOM     16  O   UNL     1       2.904   0.683   0.000  0.00  0.00    +0.000 OA
BRANCH  11  17
ATOM     17  N   UNL     1       3.459   2.390   0.000  0.00  0.00    +0.000 N 
ATOM     18  C   UNL     1       4.072   1.838   0.000  0.00  0.00    +0.000 A 
ATOM     19  C   UNL     1       3.794   3.143   0.000  0.00  0.00    +0.000 A 
ATOM     20  C   UNL     1       4.786   2.250   0.000  0.00  0.00    +0.000 A 
ATOM     21  N   UNL     1       4.072   1.013   0.000  0.00  0.00    +0.000 NA
ATOM     22  N   UNL     1       4.615   3.057   0.000  0.00  0.00    +0.000 NA
ATOM     23  C   UNL     1       5.501   1.838   0.000  0.00  0.00    +0.000 A 
ATOM     24  C   UNL     1       4.786   0.600   0.000  0.00  0.00    +0.000 A 
ATOM     25  N   UNL     1       5.501   1.013   0.000  0.00  0.00    +0.000 NA
ATOM     26  N   UNL     1       6.215   2.250   0.000  0.00  0.00    +0.000 NA
ENDBRANCH  11  17
BRANCH  15  27
ATOM     27  O   UNL     1       1.109   0.683   0.000  0.00  0.00    +0.000 OA
BRANCH  27  30
ATOM     28  O   UNL     1       0.284  -0.142   0.000  0.00  0.00    +0.000 OA
ATOM     29  O   UNL     1       1.934  -0.142   0.000  0.00  0.00    +0.000 OA
ATOM     30  P   UNL     1       1.109  -0.142   0.000  0.00  0.00    +0.000 P 
ATOM     31  O   UNL     1       1.109  -0.967   0.000  0.00  0.00    +0.000 OA
ENDBRANCH  27  30
ENDBRANCH  15  27
ENDBRANCH  10  14
ENDBRANCH   9  10
ENDBRANCH   8   9
ENDBRANCH   5   8
ENDBRANCH   4   5
ENDBRANCH   1   4
BRANCH   1  32
ATOM     32  C   UNL     1      -4.043   1.394   0.000  0.00  0.00    +0.000 C 
BRANCH  32  34
ATOM     33  C   UNL     1      -5.170   2.521   0.000  0.00  0.00    +0.000 C 
ATOM     34  C   UNL     1      -4.758   1.806   0.000  0.00  0.00    +0.000 C 
ATOM     35  C   UNL     1      -4.345   2.521   0.000  0.00  0.00    +0.000 C 
BRANCH  34  36
ATOM     36  C   UNL     1      -5.472   1.394   0.000  0.00  0.00    +0.000 C 
ATOM     37  O   UNL     1      -6.187   1.806   0.000  0.00  0.00    +0.000 OA
BRANCH  36  40
ATOM     38  N   UNL     1      -4.758   0.156   0.000  0.00  0.00    +0.000 NA
ATOM     39  O   UNL     1      -6.187   0.156   0.000  0.00  0.00    +0.000 OA
ATOM     40  C   UNL     1      -5.472   0.569   0.000  0.00  0.00    +0.000 C 
BRANCH  38  41
ATOM     41  C   UNL     1      -4.758  -0.668   0.000  0.00  0.00    +0.000 C 
BRANCH  41  42
ATOM     42  C   UNL     1      -5.500  -1.081   0.000  0.00  0.00    +0.000 C 
BRANCH  42  44
ATOM     43  N   UNL     1      -4.786  -2.318   0.000  0.00  0.00    +0.000 NA
ATOM     44  C   UNL     1      -5.500  -1.906   0.000  0.00  0.00    +0.000 C 
ATOM     45  O   UNL     1      -6.215  -2.318   0.000  0.00  0.00    +0.000 OA
BRANCH  43  46
ATOM     46  C   UNL     1      -4.072  -1.906   0.000  0.00  0.00    +0.000 C 
BRANCH  46  47
ATOM     47  C   UNL     1      -3.329  -2.318   0.000  0.00  0.00    +0.000 C 
BRANCH  47  48
ATOM     48  S   UNL     1      -2.614  -1.906   0.000  0.00  0.00    +0.000 S 
BRANCH  48  50
ATOM     49  O   UNL     1      -1.900  -3.143   0.000  0.00  0.00    +0.000 OA
ATOM     50  C   UNL     1      -1.900  -2.318   0.000  0.00  0.00    +0.000 C 
BRANCH  50  51
ATOM     51  C   UNL     1      -1.185  -1.906   0.000  0.00  0.00    +0.000 C 
BRANCH  51  53
ATOM     52  O   UNL     1      -0.471  -3.143   0.000  0.00  0.00    +0.000 OA
ATOM     53  C   UNL     1      -0.471  -2.318   0.000  0.00  0.00    +0.000 C 
BRANCH  53  54
ATOM     54  C   UNL     1       0.243  -1.906   0.000  0.00  0.00    +0.000 C 
BRANCH  54  55
ATOM     55  C   UNL     1       0.958  -2.318   0.000  0.00  0.00    +0.000 C 
BRANCH  55  56
ATOM     56  C   UNL     1       1.672  -1.906   0.000  0.00  0.00    +0.000 C 
BRANCH  56  57
ATOM     57  C   UNL     1       2.387  -2.318   0.000  0.00  0.00    +0.000 C 
BRANCH  57  58
ATOM     58  C   UNL     1       3.101  -1.906   0.000  0.00  0.00    +0.000 C 
BRANCH  58  59
ATOM     59  C   UNL     1       3.816  -2.318   0.000  0.00  0.00    +0.000 C 
ATOM     60  C   UNL     1       4.530  -1.906   0.000  0.00  0.00    +0.000 C 
ENDBRANCH  58  59
ENDBRANCH  57  58
ENDBRANCH  56  57
ENDBRANCH  55  56
ENDBRANCH  54  55
ENDBRANCH  53  54
ENDBRANCH  51  53
ENDBRANCH  50  51
ENDBRANCH  48  50
ENDBRANCH  47  48
ENDBRANCH  46  47
ENDBRANCH  43  46
ENDBRANCH  42  44
ENDBRANCH  41  42
ENDBRANCH  38  41
ENDBRANCH  36  40
ENDBRANCH  34  36
ENDBRANCH  32  34
ENDBRANCH   1  32
TORSDOF 28
