REMARK  Name = 
REMARK  22 active torsions:
REMARK  status: ('A' for Active; 'I' for Inactive)
REMARK    1  A    between atoms: C_1  and  C_2
REMARK    2  A    between atoms: C_1  and  N_6
REMARK    3  A    between atoms: C_2  and  C_3
REMARK    4  A    between atoms: C_7  and  C_9
REMARK    5  A    between atoms: C_11  and  C_52
REMARK    6  A    between atoms: C_13  and  N_16
REMARK    7  A    between atoms: N_16  and  C_17
REMARK    8  A    between atoms: C_17  and  C_18
REMARK    9  A    between atoms: C_18  and  C_19
REMARK   10  A    between atoms: C_19  and  N_20
REMARK   11  A    between atoms: N_20  and  C_23
REMARK   12  A    between atoms: C_25  and  C_39
REMARK   13  A    between atoms: C_27  and  C_30
REMARK   14  A    between atoms: N_32  and  C_33
REMARK   15  A    between atoms: C_33  and  C_34
REMARK   16  A    between atoms: C_34  and  C_35
REMARK   17  A    between atoms: N_41  and  C_42
REMARK   18  A    between atoms: C_42  and  C_43
REMARK   19  A    between atoms: C_43  and  C_44
REMARK   20  A    between atoms: N_54  and  C_55
REMARK   21  A    between atoms: C_55  and  C_56
REMARK   22  A    between atoms: C_56  and  C_57
REMARK                            x       y       z     vdW  Elec       q    Type
REMARK                         _______ _______ _______ _____ _____    ______ ____
ROOT
ATOM      1  C   UNL     1       2.858  -2.475   0.000  0.00  0.00    +0.000 C 
ATOM      2  O   UNL     1       2.858  -1.650   0.000  0.00  0.00    +0.000 OA
ENDROOT
BRANCH   1   3
ATOM      3  C   UNL     1       2.143  -2.888   0.000  0.00  0.00    +0.000 C 
BRANCH   3   4
ATOM      4  N   UNL     1       1.429  -2.475   0.000  0.00  0.00    +0.000 N 
ATOM      5  C   UNL     1       1.429  -1.650   0.000  0.00  0.00    +0.000 C 
ATOM      6  O   UNL     1       0.715  -1.238   0.000  0.00  0.00    +0.000 OA
BRANCH   4   7
ATOM      7  C   UNL     1       0.715  -2.888   0.000  0.00  0.00    +0.000 A 
ATOM      8  C   UNL     1       0.715  -3.712   0.000  0.00  0.00    +0.000 A 
ATOM      9  C   UNL     1       0.000  -4.125   0.000  0.00  0.00    +0.000 A 
ATOM     10  C   UNL     1      -0.715  -3.712   0.000  0.00  0.00    +0.000 A 
ATOM     11  C   UNL     1      -0.715  -2.888   0.000  0.00  0.00    +0.000 A 
ATOM     12  C   UNL     1       0.000  -2.475   0.000  0.00  0.00    +0.000 A 
ATOM     13  I   UNL     1       0.000  -1.650   0.000  0.00  0.00    +0.000 I 
ATOM     14  I   UNL     1      -1.429  -4.125   0.000  0.00  0.00    +0.000 I 
ATOM     15  I   UNL     1       1.429  -4.125   0.000  0.00  0.00    +0.000 I 
BRANCH   9  16
ATOM     16  C   UNL     1       0.000  -4.950   0.000  0.00  0.00    +0.000 C 
ATOM     17  O   UNL     1       0.715  -5.362   0.000  0.00  0.00    +0.000 OA
ATOM     18  N   UNL     1      -0.715  -5.362   0.000  0.00  0.00    +0.000 NA
BRANCH  18  19
ATOM     19  C   UNL     1      -0.715  -6.188   0.000  0.00  0.00    +0.000 C 
BRANCH  19  20
ATOM     20  C   UNL     1      -1.429  -6.600   0.000  0.00  0.00    +0.000 C 
ATOM     21  O   UNL     1      -2.143  -6.188   0.000  0.00  0.00    +0.000 OA
BRANCH  20  22
ATOM     22  C   UNL     1      -1.429  -7.425   0.000  0.00  0.00    +0.000 C 
ATOM     23  O   UNL     1      -2.143  -7.838   0.000  0.00  0.00    +0.000 OA
ENDBRANCH  20  22
ENDBRANCH  19  20
ENDBRANCH  18  19
ENDBRANCH   9  16
BRANCH  11  24
ATOM     24  C   UNL     1      -1.429  -2.475   0.000  0.00  0.00    +0.000 C 
ATOM     25  O   UNL     1      -1.429  -1.650   0.000  0.00  0.00    +0.000 OA
ATOM     26  N   UNL     1      -2.143  -2.888   0.000  0.00  0.00    +0.000 NA
BRANCH  26  27
ATOM     27  C   UNL     1      -2.858  -2.475   0.000  0.00  0.00    +0.000 C 
BRANCH  27  28
ATOM     28  C   UNL     1      -3.572  -2.888   0.000  0.00  0.00    +0.000 C 
ATOM     29  O   UNL     1      -3.572  -3.712   0.000  0.00  0.00    +0.000 OA
BRANCH  28  30
ATOM     30  C   UNL     1      -4.287  -2.475   0.000  0.00  0.00    +0.000 C 
ATOM     31  O   UNL     1      -5.001  -2.888   0.000  0.00  0.00    +0.000 OA
ENDBRANCH  28  30
ENDBRANCH  27  28
ENDBRANCH  26  27
ENDBRANCH  11  24
ENDBRANCH   4   7
ENDBRANCH   3   4
ENDBRANCH   1   3
BRANCH   1  32
ATOM     32  C   UNL     1       3.572  -2.888   0.000  0.00  0.00    +0.000 C 
BRANCH  32  33
ATOM     33  N   UNL     1       4.287  -2.475   0.000  0.00  0.00    +0.000 N 
ATOM     34  C   UNL     1       4.287  -1.650   0.000  0.00  0.00    +0.000 C 
ATOM     35  O   UNL     1       5.001  -1.238   0.000  0.00  0.00    +0.000 OA
BRANCH  33  40
ATOM     36  C   UNL     1       6.430  -2.888   0.000  0.00  0.00    +0.000 A 
ATOM     37  C   UNL     1       6.430  -3.712   0.000  0.00  0.00    +0.000 A 
ATOM     38  C   UNL     1       5.716  -4.125   0.000  0.00  0.00    +0.000 A 
ATOM     39  C   UNL     1       5.001  -3.712   0.000  0.00  0.00    +0.000 A 
ATOM     40  C   UNL     1       5.001  -2.888   0.000  0.00  0.00    +0.000 A 
ATOM     41  C   UNL     1       5.716  -2.475   0.000  0.00  0.00    +0.000 A 
ATOM     42  I   UNL     1       5.716  -1.650   0.000  0.00  0.00    +0.000 I 
ATOM     43  I   UNL     1       4.287  -4.125   0.000  0.00  0.00    +0.000 I 
ATOM     44  I   UNL     1       7.145  -4.125   0.000  0.00  0.00    +0.000 I 
BRANCH  36  46
ATOM     45  N   UNL     1       7.859  -2.888   0.000  0.00  0.00    +0.000 NA
ATOM     46  C   UNL     1       7.145  -2.475   0.000  0.00  0.00    +0.000 C 
ATOM     47  O   UNL     1       7.145  -1.650   0.000  0.00  0.00    +0.000 OA
BRANCH  45  48
ATOM     48  C   UNL     1       8.574  -2.475   0.000  0.00  0.00    +0.000 C 
BRANCH  48  49
ATOM     49  C   UNL     1       9.288  -2.888   0.000  0.00  0.00    +0.000 C 
ATOM     50  O   UNL     1       9.288  -3.712   0.000  0.00  0.00    +0.000 OA
BRANCH  49  51
ATOM     51  C   UNL     1      10.003  -2.475   0.000  0.00  0.00    +0.000 C 
ATOM     52  O   UNL     1      10.717  -2.888   0.000  0.00  0.00    +0.000 OA
ENDBRANCH  49  51
ENDBRANCH  48  49
ENDBRANCH  45  48
ENDBRANCH  36  46
BRANCH  38  53
ATOM     53  C   UNL     1       5.716  -4.950   0.000  0.00  0.00    +0.000 C 
ATOM     54  O   UNL     1       6.430  -5.362   0.000  0.00  0.00    +0.000 OA
ATOM     55  N   UNL     1       5.001  -5.362   0.000  0.00  0.00    +0.000 NA
BRANCH  55  56
ATOM     56  C   UNL     1       5.001  -6.188   0.000  0.00  0.00    +0.000 C 
BRANCH  56  57
ATOM     57  C   UNL     1       4.287  -6.600   0.000  0.00  0.00    +0.000 C 
ATOM     58  O   UNL     1       3.572  -6.188   0.000  0.00  0.00    +0.000 OA
BRANCH  57  59
ATOM     59  C   UNL     1       4.287  -7.425   0.000  0.00  0.00    +0.000 C 
ATOM     60  O   UNL     1       3.572  -7.838   0.000  0.00  0.00    +0.000 OA
ENDBRANCH  57  59
ENDBRANCH  56  57
ENDBRANCH  55  56
ENDBRANCH  38  53
ENDBRANCH  33  40
ENDBRANCH  32  33
ENDBRANCH   1  32
TORSDOF 22
