REMARK  Name = 
REMARK  14 active torsions:
REMARK  status: ('A' for Active; 'I' for Inactive)
REMARK    1  A    between atoms: N9_1  and  C1*_11
REMARK    2  A    between atoms: C4*_13  and  C5*_14
REMARK    3  A    between atoms: C_20  and  N_29
REMARK    4  A    between atoms: C_23  and  C_24
REMARK    5  A    between atoms: C_33  and  N_34
REMARK    6  A    between atoms: C_33  and  C_37
REMARK    7  A    between atoms: C_40  and  N_49
REMARK    8  A    between atoms: C_43  and  C_44
REMARK    9  A    between atoms: C_53  and  N_62
REMARK   10  A    between atoms: C_56  and  C_57
REMARK   11  A    between atoms: C_66  and  C_67
REMARK   12  A    between atoms: C_66  and  N_70
REMARK   13  A    between atoms: C_73  and  C_74
REMARK   14  A    between atoms: C_73  and  N_77
REMARK                            x       y       z     vdW  Elec       q    Type
REMARK                         _______ _______ _______ _____ _____    ______ ____
ROOT
ATOM      1  N9    I A   1      -4.065   5.933   0.000  0.00  0.00    +0.000 N 
ATOM      2  C4    I A   1      -3.280   6.188   0.000  0.00  0.00    +0.000 A 
ATOM      3  C5    I A   1      -3.280   7.013   0.000  0.00  0.00    +0.000 A 
ATOM      4  N7    I A   1      -4.065   7.268   0.000  0.00  0.00    +0.000 NA
ATOM      5  C8    I A   1      -4.550   6.600   0.000  0.00  0.00    +0.000 A 
ATOM      6  C6    I A   1      -2.566   7.425   0.000  0.00  0.00    +0.000 A 
ATOM      7  N1    I A   1      -1.852   7.013   0.000  0.00  0.00    +0.000 NA
ATOM      8  C2    I A   1      -1.852   6.188   0.000  0.00  0.00    +0.000 A 
ATOM      9  N3    I A   1      -2.566   5.775   0.000  0.00  0.00    +0.000 NA
ATOM     10  O6    I A   1      -2.566   8.250   0.000  0.00  0.00    +0.000 OA
ENDROOT
BRANCH   1  11
ATOM     11  C1*   I A   1      -4.320   5.148   0.000  0.00  0.00    +0.000 C 
ATOM     12  O4*   I A   1      -3.835   4.481   0.000  0.00  0.00    +0.000 OA
ATOM     13  C4*   I A   1      -4.320   3.813   0.000  0.00  0.00    +0.000 C 
ATOM     14  C3*   I A   1      -5.105   4.068   0.000  0.00  0.00    +0.000 C 
ATOM     15  C2*   I A   1      -5.105   4.893   0.000  0.00  0.00    +0.000 C 
ATOM     16  O2*   I A   1      -5.772   5.378   0.000  0.00  0.00    +0.000 OA
ATOM     17  O3*   I A   1      -5.772   3.583   0.000  0.00  0.00    +0.000 OA
BRANCH  13  18
ATOM     18  C5*   I A   1      -4.065   3.029   0.000  0.00  0.00    +0.000 C 
ATOM     19  O5*   I A   1      -3.258   2.857   0.000  0.00  0.00    +0.000 OA
ENDBRANCH  13  18
ENDBRANCH   1  11
TORSDOF 2
REMARK  Name = 
REMARK  14 active torsions:
REMARK  status: ('A' for Active; 'I' for Inactive)
REMARK    1  A    between atoms: N9_1  and  C1*_11
REMARK    2  A    between atoms: C4*_13  and  C5*_14
REMARK    3  A    between atoms: C_20  and  N_29
REMARK    4  A    between atoms: C_23  and  C_24
REMARK    5  A    between atoms: C_33  and  N_34
REMARK    6  A    between atoms: C_33  and  C_37
REMARK    7  A    between atoms: C_40  and  N_49
REMARK    8  A    between atoms: C_43  and  C_44
REMARK    9  A    between atoms: C_53  and  N_62
REMARK   10  A    between atoms: C_56  and  C_57
REMARK   11  A    between atoms: C_66  and  C_67
REMARK   12  A    between atoms: C_66  and  N_70
REMARK   13  A    between atoms: C_73  and  C_74
REMARK   14  A    between atoms: C_73  and  N_77
REMARK                            x       y       z     vdW  Elec       q    Type
REMARK                         _______ _______ _______ _____ _____    ______ ____
ROOT
ATOM      1  C   UNL     1       0.749   6.156   0.000  0.00  0.00    +0.000 A 
ATOM      2  C   UNL     1       1.463   5.744   0.000  0.00  0.00    +0.000 A 
ATOM      3  C   UNL     1       1.463   4.918   0.000  0.00  0.00    +0.000 A 
ATOM      4  C   UNL     1       0.749   4.506   0.000  0.00  0.00    +0.000 A 
ATOM      5  C   UNL     1       0.034   4.918   0.000  0.00  0.00    +0.000 A 
ATOM      6  C   UNL     1       0.034   5.744   0.000  0.00  0.00    +0.000 A 
ENDROOT
BRANCH   1   7
ATOM      7  N   UNL     1       0.749   6.981   0.000  0.00  0.00    +0.000 NA
ATOM      8  C   UNL     1       1.463   7.394   0.000  0.00  0.00    +0.000 C 
ATOM      9  C   UNL     1       1.463   8.219   0.000  0.00  0.00    +0.000 C 
ATOM     10  O   UNL     1       2.178   6.981   0.000  0.00  0.00    +0.000 OA
ENDBRANCH   1   7
BRANCH   4  11
ATOM     11  C   UNL     1       0.749   3.681   0.000  0.00  0.00    +0.000 C 
ATOM     12  O   UNL     1       0.034   3.268   0.000  0.00  0.00    +0.000 OA
ATOM     13  O   UNL     1       1.463   3.268   0.000  0.00  0.00    +0.000 OA
ENDBRANCH   4  11
TORSDOF 2
REMARK  Name = 
REMARK  14 active torsions:
REMARK  status: ('A' for Active; 'I' for Inactive)
REMARK    1  A    between atoms: N9_1  and  C1*_11
REMARK    2  A    between atoms: C4*_13  and  C5*_14
REMARK    3  A    between atoms: C_20  and  N_29
REMARK    4  A    between atoms: C_23  and  C_24
REMARK    5  A    between atoms: C_33  and  N_34
REMARK    6  A    between atoms: C_33  and  C_37
REMARK    7  A    between atoms: C_40  and  N_49
REMARK    8  A    between atoms: C_43  and  C_44
REMARK    9  A    between atoms: C_53  and  N_62
REMARK   10  A    between atoms: C_56  and  C_57
REMARK   11  A    between atoms: C_66  and  C_67
REMARK   12  A    between atoms: C_66  and  N_70
REMARK   13  A    between atoms: C_73  and  C_74
REMARK   14  A    between atoms: C_73  and  N_77
REMARK                            x       y       z     vdW  Elec       q    Type
REMARK                         _______ _______ _______ _____ _____    ______ ____
ROOT
ATOM      1  C   UNL     1       5.772   5.521   0.000  0.00  0.00    +0.000 C 
ENDROOT
BRANCH   1   2
ATOM      2  N   UNL     1       5.360   6.236   0.000  0.00  0.00    +0.000 NA
ATOM      3  C   UNL     1       5.772   6.950   0.000  0.00  0.00    +0.000 C 
ATOM      4  C   UNL     1       4.535   6.236   0.000  0.00  0.00    +0.000 C 
ENDBRANCH   1   2
BRANCH   1   5
ATOM      5  C   UNL     1       5.360   4.807   0.000  0.00  0.00    +0.000 C 
ATOM      6  C   UNL     1       5.772   4.093   0.000  0.00  0.00    +0.000 C 
ATOM      7  O   UNL     1       4.535   4.807   0.000  0.00  0.00    +0.000 OA
ENDBRANCH   1   5
TORSDOF 2
REMARK  Name = 
REMARK  14 active torsions:
REMARK  status: ('A' for Active; 'I' for Inactive)
REMARK    1  A    between atoms: N9_1  and  C1*_11
REMARK    2  A    between atoms: C4*_13  and  C5*_14
REMARK    3  A    between atoms: C_20  and  N_29
REMARK    4  A    between atoms: C_23  and  C_24
REMARK    5  A    between atoms: C_33  and  N_34
REMARK    6  A    between atoms: C_33  and  C_37
REMARK    7  A    between atoms: C_40  and  N_49
REMARK    8  A    between atoms: C_43  and  C_44
REMARK    9  A    between atoms: C_53  and  N_62
REMARK   10  A    between atoms: C_56  and  C_57
REMARK   11  A    between atoms: C_66  and  C_67
REMARK   12  A    between atoms: C_66  and  N_70
REMARK   13  A    between atoms: C_73  and  C_74
REMARK   14  A    between atoms: C_73  and  N_77
REMARK                            x       y       z     vdW  Elec       q    Type
REMARK                         _______ _______ _______ _____ _____    ______ ____
ROOT
ATOM      1  C   UNL     1      -4.019  -0.855   0.000  0.00  0.00    +0.000 A 
ATOM      2  C   UNL     1      -3.305  -1.268   0.000  0.00  0.00    +0.000 A 
ATOM      3  C   UNL     1      -3.305  -2.093   0.000  0.00  0.00    +0.000 A 
ATOM      4  C   UNL     1      -4.019  -2.505   0.000  0.00  0.00    +0.000 A 
ATOM      5  C   UNL     1      -4.734  -2.093   0.000  0.00  0.00    +0.000 A 
ATOM      6  C   UNL     1      -4.734  -1.268   0.000  0.00  0.00    +0.000 A 
ENDROOT
BRANCH   1   7
ATOM      7  N   UNL     1      -4.019  -0.030   0.000  0.00  0.00    +0.000 NA
ATOM      8  C   UNL     1      -3.305   0.382   0.000  0.00  0.00    +0.000 C 
ATOM      9  C   UNL     1      -3.305   1.207   0.000  0.00  0.00    +0.000 C 
ATOM     10  O   UNL     1      -2.591  -0.030   0.000  0.00  0.00    +0.000 OA
ENDBRANCH   1   7
BRANCH   4  11
ATOM     11  C   UNL     1      -4.019  -3.330   0.000  0.00  0.00    +0.000 C 
ATOM     12  O   UNL     1      -4.734  -3.743   0.000  0.00  0.00    +0.000 OA
ATOM     13  O   UNL     1      -3.305  -3.743   0.000  0.00  0.00    +0.000 OA
ENDBRANCH   4  11
TORSDOF 2
REMARK  Name = 
REMARK  14 active torsions:
REMARK  status: ('A' for Active; 'I' for Inactive)
REMARK    1  A    between atoms: N9_1  and  C1*_11
REMARK    2  A    between atoms: C4*_13  and  C5*_14
REMARK    3  A    between atoms: C_20  and  N_29
REMARK    4  A    between atoms: C_23  and  C_24
REMARK    5  A    between atoms: C_33  and  N_34
REMARK    6  A    between atoms: C_33  and  C_37
REMARK    7  A    between atoms: C_40  and  N_49
REMARK    8  A    between atoms: C_43  and  C_44
REMARK    9  A    between atoms: C_53  and  N_62
REMARK   10  A    between atoms: C_56  and  C_57
REMARK   11  A    between atoms: C_66  and  C_67
REMARK   12  A    between atoms: C_66  and  N_70
REMARK   13  A    between atoms: C_73  and  C_74
REMARK   14  A    between atoms: C_73  and  N_77
REMARK                            x       y       z     vdW  Elec       q    Type
REMARK                         _______ _______ _______ _____ _____    ______ ____
ROOT
ATOM      1  C   UNL     1       0.009  -0.855   0.000  0.00  0.00    +0.000 A 
ATOM      2  C   UNL     1       0.724  -1.268   0.000  0.00  0.00    +0.000 A 
ATOM      3  C   UNL     1       0.724  -2.093   0.000  0.00  0.00    +0.000 A 
ATOM      4  C   UNL     1       0.009  -2.505   0.000  0.00  0.00    +0.000 A 
ATOM      5  C   UNL     1      -0.705  -2.093   0.000  0.00  0.00    +0.000 A 
ATOM      6  C   UNL     1      -0.705  -1.268   0.000  0.00  0.00    +0.000 A 
ENDROOT
BRANCH   1   7
ATOM      7  N   UNL     1       0.009  -0.030   0.000  0.00  0.00    +0.000 NA
ATOM      8  C   UNL     1       0.724   0.382   0.000  0.00  0.00    +0.000 C 
ATOM      9  C   UNL     1       0.724   1.207   0.000  0.00  0.00    +0.000 C 
ATOM     10  O   UNL     1       1.438  -0.030   0.000  0.00  0.00    +0.000 OA
ENDBRANCH   1   7
BRANCH   4  11
ATOM     11  C   UNL     1       0.009  -3.330   0.000  0.00  0.00    +0.000 C 
ATOM     12  O   UNL     1      -0.705  -3.743   0.000  0.00  0.00    +0.000 OA
ATOM     13  O   UNL     1       0.724  -3.743   0.000  0.00  0.00    +0.000 OA
ENDBRANCH   4  11
TORSDOF 2
REMARK  Name = 
REMARK  14 active torsions:
REMARK  status: ('A' for Active; 'I' for Inactive)
REMARK    1  A    between atoms: N9_1  and  C1*_11
REMARK    2  A    between atoms: C4*_13  and  C5*_14
REMARK    3  A    between atoms: C_20  and  N_29
REMARK    4  A    between atoms: C_23  and  C_24
REMARK    5  A    between atoms: C_33  and  N_34
REMARK    6  A    between atoms: C_33  and  C_37
REMARK    7  A    between atoms: C_40  and  N_49
REMARK    8  A    between atoms: C_43  and  C_44
REMARK    9  A    between atoms: C_53  and  N_62
REMARK   10  A    between atoms: C_56  and  C_57
REMARK   11  A    between atoms: C_66  and  C_67
REMARK   12  A    between atoms: C_66  and  N_70
REMARK   13  A    between atoms: C_73  and  C_74
REMARK   14  A    between atoms: C_73  and  N_77
REMARK                            x       y       z     vdW  Elec       q    Type
REMARK                         _______ _______ _______ _____ _____    ______ ____
ROOT
ATOM      1  C   UNL     1       5.033  -1.490   0.000  0.00  0.00    +0.000 C 
ENDROOT
BRANCH   1   2
ATOM      2  C   UNL     1       4.621  -0.775   0.000  0.00  0.00    +0.000 C 
ATOM      3  C   UNL     1       5.033  -0.061   0.000  0.00  0.00    +0.000 C 
ATOM      4  O   UNL     1       3.796  -0.775   0.000  0.00  0.00    +0.000 OA
ENDBRANCH   1   2
BRANCH   1   5
ATOM      5  N   UNL     1       4.621  -2.204   0.000  0.00  0.00    +0.000 NA
ATOM      6  C   UNL     1       5.033  -2.919   0.000  0.00  0.00    +0.000 C 
ATOM      7  C   UNL     1       3.796  -2.204   0.000  0.00  0.00    +0.000 C 
ENDBRANCH   1   5
TORSDOF 2
REMARK  Name = 
REMARK  14 active torsions:
REMARK  status: ('A' for Active; 'I' for Inactive)
REMARK    1  A    between atoms: N9_1  and  C1*_11
REMARK    2  A    between atoms: C4*_13  and  C5*_14
REMARK    3  A    between atoms: C_20  and  N_29
REMARK    4  A    between atoms: C_23  and  C_24
REMARK    5  A    between atoms: C_33  and  N_34
REMARK    6  A    between atoms: C_33  and  C_37
REMARK    7  A    between atoms: C_40  and  N_49
REMARK    8  A    between atoms: C_43  and  C_44
REMARK    9  A    between atoms: C_53  and  N_62
REMARK   10  A    between atoms: C_56  and  C_57
REMARK   11  A    between atoms: C_66  and  C_67
REMARK   12  A    between atoms: C_66  and  N_70
REMARK   13  A    between atoms: C_73  and  C_74
REMARK   14  A    between atoms: C_73  and  N_77
REMARK                            x       y       z     vdW  Elec       q    Type
REMARK                         _______ _______ _______ _____ _____    ______ ____
ROOT
ATOM      1  C   UNL     1      -3.328  -6.822   0.000  0.00  0.00    +0.000 C 
ENDROOT
BRANCH   1   2
ATOM      2  C   UNL     1      -3.741  -6.107   0.000  0.00  0.00    +0.000 C 
ATOM      3  C   UNL     1      -3.328  -5.393   0.000  0.00  0.00    +0.000 C 
ATOM      4  O   UNL     1      -4.566  -6.107   0.000  0.00  0.00    +0.000 OA
ENDBRANCH   1   2
BRANCH   1   5
ATOM      5  N   UNL     1      -3.741  -7.536   0.000  0.00  0.00    +0.000 NA
ATOM      6  C   UNL     1      -3.328  -8.250   0.000  0.00  0.00    +0.000 C 
ATOM      7  C   UNL     1      -4.566  -7.536   0.000  0.00  0.00    +0.000 C 
ENDBRANCH   1   5
TORSDOF 2
