REMARK  Name = 
REMARK  3 active torsions:
REMARK  status: ('A' for Active; 'I' for Inactive)
REMARK    1  A    between atoms: C_6  and  C_11
REMARK    2  A    between atoms: C_21  and  C_33
REMARK    3  A    between atoms: C_33  and  C_34
REMARK                            x       y       z     vdW  Elec       q    Type
REMARK                         _______ _______ _______ _____ _____    ______ ____
ROOT
ATOM      1  C   UNL     1       1.557   0.138   0.000  0.00  0.00    +0.000 C 
ATOM      2  C   UNL     1       0.734   0.079   0.000  0.00  0.00    +0.000 C 
ATOM      3  C   UNL     1       0.272   0.762   0.000  0.00  0.00    +0.000 C 
ATOM      4  C   UNL     1       0.633   1.504   0.000  0.00  0.00    +0.000 C 
ATOM      5  O   UNL     1      -0.190   1.446   0.000  0.00  0.00    +0.000 OA
ATOM      6  C   UNL     1       1.456   1.563   0.000  0.00  0.00    +0.000 C 
ATOM      7  C   UNL     1       1.816   2.305   0.000  0.00  0.00    +0.000 C 
ATOM      8  C   UNL     1       2.639   2.364   0.000  0.00  0.00    +0.000 C 
ATOM      9  C   UNL     1       3.000   3.106   0.000  0.00  0.00    +0.000 C 
ATOM     10  C   UNL     1       3.823   3.165   0.000  0.00  0.00    +0.000 C 
ATOM     11  C   UNL     1       4.285   2.481   0.000  0.00  0.00    +0.000 C 
ATOM     12  C   UNL     1       3.924   1.739   0.000  0.00  0.00    +0.000 C 
ATOM     13  O   UNL     1       3.101   1.681   0.000  0.00  0.00    +0.000 OA
ATOM     14  C   UNL     1       4.387   1.056   0.000  0.00  0.00    +0.000 C 
ATOM     15  C   UNL     1       4.026   0.314   0.000  0.00  0.00    +0.000 C 
ATOM     16  C   UNL     1       3.203   0.255   0.000  0.00  0.00    +0.000 C 
ATOM     17  C   UNL     1       2.842  -0.487   0.000  0.00  0.00    +0.000 C 
ATOM     18  O   UNL     1       3.305  -1.170   0.000  0.00  0.00    +0.000 OA
ATOM     19  O   UNL     1       2.020  -0.545   0.000  0.00  0.00    +0.000 OA
ATOM     20  O   UNL     1       4.488  -0.369   0.000  0.00  0.00    +0.000 OA
ATOM     21  C   UNL     1       5.086   1.494   0.000  0.00  0.00    +0.000 C 
ATOM     22  C   UNL     1       5.141   0.722   0.000  0.00  0.00    +0.000 C 
ATOM     23  O   UNL     1       4.183   3.907   0.000  0.00  0.00    +0.000 OA
ATOM     24  C   UNL     1       2.537   3.789   0.000  0.00  0.00    +0.000 C 
ATOM     25  C   UNL     1       0.574   2.327   0.000  0.00  0.00    +0.000 C 
ENDROOT
BRANCH   1  31
ATOM     26  C   UNL     1       1.036  -4.148   0.000  0.00  0.00    +0.000 C 
ATOM     27  C   UNL     1       0.977  -3.325   0.000  0.00  0.00    +0.000 A 
ATOM     28  N   UNL     1       1.609  -2.794   0.000  0.00  0.00    +0.000 NA
ATOM     29  C   UNL     1       1.298  -2.030   0.000  0.00  0.00    +0.000 A 
ATOM     30  C   UNL     1       1.659  -1.288   0.000  0.00  0.00    +0.000 A 
ATOM     31  C   UNL     1       1.197  -0.604   0.000  0.00  0.00    +0.000 A 
ATOM     32  C   UNL     1       0.374  -0.663   0.000  0.00  0.00    +0.000 A 
ATOM     33  C   UNL     1       0.013  -1.405   0.000  0.00  0.00    +0.000 A 
ATOM     34  C   UNL     1       0.475  -2.088   0.000  0.00  0.00    +0.000 A 
ATOM     35  S   UNL     1       0.277  -2.889   0.000  0.00  0.00    +0.000 S 
ENDBRANCH   1  31
BRANCH  11  36
ATOM     36  C   UNL     1       5.108   2.540   0.000  0.00  0.00    +0.000 C 
BRANCH  36  37
ATOM     37  C   UNL     1       5.570   1.857   0.000  0.00  0.00    +0.000 C 
ATOM     38  C   UNL     1       6.393   1.915   0.000  0.00  0.00    +0.000 C 
ENDBRANCH  36  37
ENDBRANCH  11  36
TORSDOF 3
