REMARK  Name = 
REMARK  15 active torsions:
REMARK  status: ('A' for Active; 'I' for Inactive)
REMARK    1  A    between atoms: C_1  and  C_2
REMARK    2  A    between atoms: C_2  and  P_3
REMARK    3  A    between atoms: P_3  and  O_4
REMARK    4  A    between atoms: P_3  and  C_14
REMARK    5  A    between atoms: O_4  and  C_5
REMARK    6  A    between atoms: C_5  and  O_6
REMARK    7  A    between atoms: C_5  and  C_11
REMARK    8  A    between atoms: O_6  and  C_7
REMARK    9  A    between atoms: C_7  and  C_8
REMARK   10  A    between atoms: C_14  and  C_15
REMARK   11  A    between atoms: C_15  and  C_16
REMARK   12  A    between atoms: C_16  and  C_17
REMARK   13  A    between atoms: C_17  and  C_18
REMARK   14  A    between atoms: C_28  and  C_29
REMARK   15  A    between atoms: C_36  and  C_37
REMARK                            x       y       z     vdW  Elec       q    Type
REMARK                         _______ _______ _______ _____ _____    ______ ____
ROOT
ATOM      1  P   UNL     1       0.660   0.888   0.000  0.00  0.00    +0.000 P 
ATOM      2  O   UNL     1       1.374   0.476   0.000  0.00  0.00    +0.000 OA
ENDROOT
BRANCH   1   3
ATOM      3  O   UNL     1       0.247   0.174   0.000  0.00  0.00    +0.000 OA
BRANCH   3   4
ATOM      4  C   UNL     1       1.426  -0.507   0.000  0.00  0.00    +0.000 C 
BRANCH   4   5
ATOM      5  C   UNL     1       2.141  -0.094   0.000  0.00  0.00    +0.000 C 
ATOM      6  C   UNL     1       2.855  -0.507   0.000  0.00  0.00    +0.000 C 
ATOM      7  C   UNL     1       2.141   0.731   0.000  0.00  0.00    +0.000 C 
ENDBRANCH   4   5
BRANCH   4   8
ATOM      8  O   UNL     1       1.426  -1.332   0.000  0.00  0.00    +0.000 OA
BRANCH   8   9
ATOM      9  C   UNL     1       2.202  -1.614   0.000  0.00  0.00    +0.000 C 
ATOM     10  O   UNL     1       2.834  -1.084   0.000  0.00  0.00    +0.000 OA
BRANCH   9  11
ATOM     11  C   UNL     1       2.345  -2.426   0.000  0.00  0.00    +0.000 C 
ATOM     12  C   UNL     1       3.120  -2.708   0.000  0.00  0.00    +0.000 C 
ENDBRANCH   9  11
ENDBRANCH   8   9
ENDBRANCH   4   8
ENDBRANCH   3   4
ENDBRANCH   1   3
BRANCH   1  13
ATOM     13  C   UNL     1       1.073   1.603   0.000  0.00  0.00    +0.000 C 
BRANCH  13  14
ATOM     14  C   UNL     1       0.660   2.317   0.000  0.00  0.00    +0.000 C 
BRANCH  14  15
ATOM     15  C   UNL     1      -0.152   2.174   0.000  0.00  0.00    +0.000 C 
BRANCH  15  16
ATOM     16  C   UNL     1      -0.683   2.806   0.000  0.00  0.00    +0.000 C 
BRANCH  16  17
ATOM     17  C   UNL     1      -1.495   2.663   0.000  0.00  0.00    +0.000 A 
ATOM     18  C   UNL     1      -1.777   1.887   0.000  0.00  0.00    +0.000 A 
ATOM     19  C   UNL     1      -2.590   1.744   0.000  0.00  0.00    +0.000 A 
ATOM     20  C   UNL     1      -3.120   2.376   0.000  0.00  0.00    +0.000 A 
ATOM     21  C   UNL     1      -2.838   3.152   0.000  0.00  0.00    +0.000 A 
ATOM     22  C   UNL     1      -2.026   3.295   0.000  0.00  0.00    +0.000 A 
ENDBRANCH  16  17
ENDBRANCH  15  16
ENDBRANCH  14  15
ENDBRANCH  13  14
ENDBRANCH   1  13
BRANCH   1  23
ATOM     23  C   UNL     1      -0.054   1.301   0.000  0.00  0.00    +0.000 C 
BRANCH  23  24
ATOM     24  C   UNL     1      -0.769   0.888   0.000  0.00  0.00    +0.000 C 
ATOM     25  O   UNL     1      -1.483   1.301   0.000  0.00  0.00    +0.000 OA
ATOM     26  N   UNL     1      -0.769   0.063   0.000  0.00  0.00    +0.000 N 
ATOM     27  C   UNL     1      -0.102  -0.422   0.000  0.00  0.00    +0.000 C 
ATOM     28  C   UNL     1      -0.356  -1.206   0.000  0.00  0.00    +0.000 C 
ATOM     29  C   UNL     1      -1.181  -1.206   0.000  0.00  0.00    +0.000 C 
ATOM     30  C   UNL     1      -1.436  -0.422   0.000  0.00  0.00    +0.000 C 
BRANCH  28  31
ATOM     31  C   UNL     1       0.129  -1.874   0.000  0.00  0.00    +0.000 C 
ATOM     32  C   UNL     1      -0.207  -2.627   0.000  0.00  0.00    +0.000 C 
ATOM     33  C   UNL     1       0.278  -3.295   0.000  0.00  0.00    +0.000 C 
ATOM     34  C   UNL     1       1.098  -3.208   0.000  0.00  0.00    +0.000 C 
ATOM     35  C   UNL     1       1.434  -2.455   0.000  0.00  0.00    +0.000 C 
ATOM     36  C   UNL     1       0.949  -1.787   0.000  0.00  0.00    +0.000 C 
ENDBRANCH  28  31
BRANCH  30  37
ATOM     37  C   UNL     1      -2.221  -0.167   0.000  0.00  0.00    +0.000 C 
ATOM     38  O   UNL     1      -2.834  -0.719   0.000  0.00  0.00    +0.000 OA
ATOM     39  O   UNL     1      -2.393   0.640   0.000  0.00  0.00    +0.000 OA
ENDBRANCH  30  37
ENDBRANCH  23  24
ENDBRANCH   1  23
TORSDOF 15
