REMARK  Name = 
REMARK  6 active torsions:
REMARK  status: ('A' for Active; 'I' for Inactive)
REMARK    1  A    between atoms: C_3  and  C_24
REMARK    2  A    between atoms: C_7  and  N_10
REMARK    3  A    between atoms: C_7  and  O_22
REMARK    4  A    between atoms: C_11  and  C_13
REMARK    5  A    between atoms: C_13  and  C_14
REMARK    6  A    between atoms: C_13  and  C_19
REMARK                            x       y       z     vdW  Elec       q    Type
REMARK                         _______ _______ _______ _____ _____    ______ ____
ROOT
ATOM      1  C   UNL     1      -0.519   1.079   0.000  0.00  0.00    +0.000 C 
ATOM      2  C   UNL     1      -0.497   1.904   0.000  0.00  0.00    +0.000 C 
ATOM      3  C   UNL     1      -0.648   2.715   0.000  0.00  0.00    +0.000 C 
ATOM      4  N   UNL     1       0.077   3.109   0.000  0.00  0.00    +0.000 N 
ATOM      5  C   UNL     1       0.676   2.541   0.000  0.00  0.00    +0.000 C 
ATOM      6  S   UNL     1       0.321   1.796   0.000  0.00  0.00    +0.000 S 
ATOM      7  C   UNL     1       1.244   3.139   0.000  0.00  0.00    +0.000 C 
ATOM      8  C   UNL     1       0.645   3.707   0.000  0.00  0.00    +0.000 C 
ATOM      9  O   UNL     1       0.624   4.532   0.000  0.00  0.00    +0.000 OA
ATOM     10  C   UNL     1      -1.320   1.839   0.000  0.00  0.00    +0.000 C 
ENDROOT
BRANCH   7  11
ATOM     11  N   UNL     1       1.958   2.727   0.000  0.00  0.00    +0.000 NA
ATOM     12  C   UNL     1       1.958   1.902   0.000  0.00  0.00    +0.000 C 
ATOM     13  O   UNL     1       1.244   1.490   0.000  0.00  0.00    +0.000 OA
BRANCH  12  14
ATOM     14  C   UNL     1       2.673   1.490   0.000  0.00  0.00    +0.000 C 
BRANCH  14  15
ATOM     15  C   UNL     1       2.673   0.664   0.000  0.00  0.00    +0.000 A 
ATOM     16  C   UNL     1       3.340   0.179   0.000  0.00  0.00    +0.000 A 
ATOM     17  C   UNL     1       3.085  -0.605   0.000  0.00  0.00    +0.000 A 
ATOM     18  S   UNL     1       2.260  -0.605   0.000  0.00  0.00    +0.000 S 
ATOM     19  C   UNL     1       2.005   0.179   0.000  0.00  0.00    +0.000 A 
ENDBRANCH  14  15
BRANCH  14  20
ATOM     20  C   UNL     1       3.387   1.902   0.000  0.00  0.00    +0.000 C 
ATOM     21  O   UNL     1       3.387   2.727   0.000  0.00  0.00    +0.000 OA
ATOM     22  O   UNL     1       4.101   1.490   0.000  0.00  0.00    +0.000 OA
ENDBRANCH  14  20
ENDBRANCH  12  14
ENDBRANCH   7  11
BRANCH   3  23
ATOM     23  C   UNL     1      -1.392   3.070   0.000  0.00  0.00    +0.000 C 
ATOM     24  O   UNL     1      -2.072   2.603   0.000  0.00  0.00    +0.000 OA
ATOM     25  O   UNL     1      -1.457   3.893   0.000  0.00  0.00    +0.000 OA
ENDBRANCH   3  23
BRANCH   7  26
ATOM     26  O   UNL     1       1.936   3.589   0.000  0.00  0.00    +0.000 OA
ATOM     27  C   UNL     1       1.892   4.413   0.000  0.00  0.00    +0.000 C 
ENDBRANCH   7  26
TORSDOF 6
