REMARK  Name = 
REMARK  7 active torsions:
REMARK  status: ('A' for Active; 'I' for Inactive)
REMARK    1  A    between atoms: C_4  and  S_6
REMARK    2  A    between atoms: S_6  and  C_7
REMARK    3  A    between atoms: C_7  and  C_8
REMARK    4  A    between atoms: CA_9  and  C_14
REMARK    5  A    between atoms: CA_18  and  N_20
REMARK    6  A    between atoms: C_21  and  CA_22
REMARK    7  A    between atoms: CA_22  and  C_25
REMARK                            x       y       z     vdW  Elec       q    Type
REMARK                         _______ _______ _______ _____ _____    ______ ____
ROOT
ATOM      1  C   UNL     1       1.160  -2.060   0.000  0.00  0.00    +0.000 C 
ATOM      2  CA  UNL     1       0.446  -2.473   0.000  0.00  0.00    +0.000 C 
ATOM      3  N   UNL     1      -0.269  -2.060   0.000  0.00  0.00    +0.000 N 
ATOM      4  C   UNL     1      -0.269  -1.235   0.000  0.00  0.00    +0.000 C 
ATOM      5  S   UNL     1       0.446  -0.823   0.000  0.00  0.00    +0.000 S 
ATOM      6  C   UNL     1       1.160  -1.235   0.000  0.00  0.00    +0.000 C 
ATOM      7  C   UNL     1      -1.093  -2.060   0.000  0.00  0.00    +0.000 C 
ATOM      8  CA  UNL     1      -1.094  -1.235   0.000  0.00  0.00    +0.000 C 
ATOM      9  O   UNL     1      -1.677  -2.643   0.000  0.00  0.00    +0.000 OA
ENDROOT
BRANCH   8  10
ATOM     10  N   UNL     1      -1.809  -0.824   0.000  0.00  0.00    +0.000 NA
ATOM     11  C   UNL     1      -1.813   0.001   0.000  0.00  0.00    +0.000 C 
ATOM     12  O   UNL     1      -1.100   0.416   0.000  0.00  0.00    +0.000 OA
BRANCH  11  13
ATOM     13  CA  UNL     1      -2.529   0.410   0.000  0.00  0.00    +0.000 C 
ATOM     14  N   UNL     1      -3.242  -0.006   0.000  0.00  0.00    +0.000 NA
BRANCH  13  15
ATOM     15  C   UNL     1      -2.533   1.235   0.000  0.00  0.00    +0.000 A 
ATOM     16  C   UNL     1      -1.820   1.651   0.000  0.00  0.00    +0.000 A 
ATOM     17  C   UNL     1      -1.824   2.476   0.000  0.00  0.00    +0.000 A 
ATOM     18  C   UNL     1      -2.541   2.885   0.000  0.00  0.00    +0.000 A 
ATOM     19  C   UNL     1      -3.253   2.469   0.000  0.00  0.00    +0.000 A 
ATOM     20  C   UNL     1      -3.249   1.644   0.000  0.00  0.00    +0.000 A 
ATOM     21  O   UNL     1      -2.544   3.710   0.000  0.00  0.00    +0.000 OA
ENDBRANCH  13  15
ENDBRANCH  11  13
ENDBRANCH   8  10
BRANCH   2  22
ATOM     22  C   UNL     1       0.446  -3.297   0.000  0.00  0.00    +0.000 C 
ATOM     23  O   UNL     1      -0.269  -3.710   0.000  0.00  0.00    +0.000 OA
ATOM     24  OXT UNL     1       1.160  -3.710   0.000  0.00  0.00    +0.000 OA
ENDBRANCH   2  22
BRANCH   1  25
ATOM     25  C   UNL     1       1.828  -2.545   0.000  0.00  0.00    +0.000 C 
BRANCH  25  26
ATOM     26  S   UNL     1       2.582  -2.210   0.000  0.00  0.00    +0.000 S 
BRANCH  26  30
ATOM     27  N   UNL     1       2.175  -0.114   0.000  0.00  0.00    +0.000 NA
ATOM     28  N   UNL     1       3.000  -0.116   0.000  0.00  0.00    +0.000 NA
ATOM     29  C   UNL     1       3.253  -0.902   0.000  0.00  0.00    +0.000 A 
ATOM     30  C   UNL     1       2.584  -1.385   0.000  0.00  0.00    +0.000 A 
ATOM     31  N   UNL     1       1.918  -0.898   0.000  0.00  0.00    +0.000 NA
ENDBRANCH  26  30
ENDBRANCH  25  26
ENDBRANCH   1  25
TORSDOF 7
