REMARK  Name = 
REMARK  0 active torsions:
REMARK  status: ('A' for Active; 'I' for Inactive)
REMARK                            x       y       z     vdW  Elec       q    Type
REMARK                         _______ _______ _______ _____ _____    ______ ____
ROOT
ATOM      1  O   UNL     1       7.240   2.508   0.000  0.00  0.00    +0.000 OA
ATOM      2  C   UNL     1       6.455   2.255   0.000  0.00  0.00    +0.000 C 
ATOM      3  N   UNL     1       5.788   2.742   0.000  0.00  0.00    +0.000 NA
ATOM      4  C   UNL     1       5.120   2.258   0.000  0.00  0.00    +0.000 C 
ATOM      5  O   UNL     1       4.336   2.515   0.000  0.00  0.00    +0.000 OA
ATOM      6  C   UNL     1       5.373   1.473   0.000  0.00  0.00    +0.000 A 
ATOM      7  C   UNL     1       6.198   1.471   0.000  0.00  0.00    +0.000 A 
ATOM      8  C   UNL     1       6.635   0.750   0.000  0.00  0.00    +0.000 A 
ATOM      9  C   UNL     1       6.205   0.036   0.000  0.00  0.00    +0.000 A 
ATOM     10  N   UNL     1       6.731  -0.645   0.000  0.00  0.00    +0.000 N 
ATOM     11  C   UNL     1       6.511  -1.506   0.000  0.00  0.00    +0.000 C 
ATOM     12  C   UNL     1       6.217  -2.335   0.000  0.00  0.00    +0.000 C 
ATOM     13  C   UNL     1       5.348  -2.332   0.000  0.00  0.00    +0.000 C 
ATOM     14  C   UNL     1       5.055  -1.508   0.000  0.00  0.00    +0.000 C 
ATOM     15  O   UNL     1       5.781  -1.426   0.000  0.00  0.00    +0.000 OA
ATOM     16  N   UNL     1       4.832  -0.648   0.000  0.00  0.00    +0.000 N 
ATOM     17  C   UNL     1       4.061  -0.298   0.000  0.00  0.00    +0.000 A 
ATOM     18  C   UNL     1       4.122   0.524   0.000  0.00  0.00    +0.000 A 
ATOM     19  C   UNL     1       3.440   0.989   0.000  0.00  0.00    +0.000 A 
ATOM     20  C   UNL     1       2.697   0.630   0.000  0.00  0.00    +0.000 A 
ATOM     21  C   UNL     1       2.636  -0.193   0.000  0.00  0.00    +0.000 A 
ATOM     22  C   UNL     1       3.318  -0.657   0.000  0.00  0.00    +0.000 A 
ATOM     23  C   UNL     1       4.931   0.756   0.000  0.00  0.00    +0.000 A 
ATOM     24  C   UNL     1       5.354   0.036   0.000  0.00  0.00    +0.000 A 
ATOM     25  C   UNL     1       7.512  -0.302   0.000  0.00  0.00    +0.000 A 
ATOM     26  C   UNL     1       7.447   0.521   0.000  0.00  0.00    +0.000 A 
ATOM     27  C   UNL     1       8.126   0.988   0.000  0.00  0.00    +0.000 A 
ATOM     28  C   UNL     1       8.871   0.633   0.000  0.00  0.00    +0.000 A 
ATOM     29  C   UNL     1       8.936  -0.189   0.000  0.00  0.00    +0.000 A 
ATOM     30  C   UNL     1       8.256  -0.656   0.000  0.00  0.00    +0.000 A 
ENDROOT
TORSDOF 0
