REMARK  Name = 
REMARK  2 active torsions:
REMARK  status: ('A' for Active; 'I' for Inactive)
REMARK    1  A    between atoms: C_8  and  C_10
REMARK    2  A    between atoms: C_10  and  C_11
REMARK                            x       y       z     vdW  Elec       q    Type
REMARK                         _______ _______ _______ _____ _____    ______ ____
ROOT
ATOM      1  C   UNL     1      -1.199   0.033   0.000  0.00  0.00    +0.000 A 
ATOM      2  C   UNL     1      -1.914  -0.379   0.000  0.00  0.00    +0.000 A 
ATOM      3  C   UNL     1      -1.914  -1.204   0.000  0.00  0.00    +0.000 A 
ATOM      4  C   UNL     1      -1.199  -1.617   0.000  0.00  0.00    +0.000 A 
ATOM      5  C   UNL     1      -0.485  -1.204   0.000  0.00  0.00    +0.000 A 
ATOM      6  N   UNL     1       0.300  -1.459   0.000  0.00  0.00    +0.000 NA
ATOM      7  C   UNL     1       0.785  -0.792   0.000  0.00  0.00    +0.000 A 
ATOM      8  C   UNL     1       0.300  -0.124   0.000  0.00  0.00    +0.000 A 
ATOM      9  C   UNL     1      -0.485  -0.379   0.000  0.00  0.00    +0.000 A 
ENDROOT
BRANCH   8  10
ATOM     10  C   UNL     1       0.555   0.660   0.000  0.00  0.00    +0.000 C 
BRANCH  10  11
ATOM     11  C   UNL     1       1.362   0.832   0.000  0.00  0.00    +0.000 C 
ATOM     12  O   UNL     1       1.914   0.219   0.000  0.00  0.00    +0.000 OA
ATOM     13  O   UNL     1       1.617   1.617   0.000  0.00  0.00    +0.000 OA
ENDBRANCH  10  11
ENDBRANCH   8  10
TORSDOF 2
