REMARK  Name = 
REMARK  1 active torsions:
REMARK  status: ('A' for Active; 'I' for Inactive)
REMARK    1  A    between atoms: N_10  and  C_11
REMARK                            x       y       z     vdW  Elec       q    Type
REMARK                         _______ _______ _______ _____ _____    ______ ____
ROOT
ATOM      1  C   UNL     1       0.157   0.591   0.000  0.00  0.00    +0.000 A 
ATOM      2  N   UNL     1       0.911   0.255   0.000  0.00  0.00    +0.000 NA
ATOM      3  C   UNL     1       1.463   0.868   0.000  0.00  0.00    +0.000 A 
ATOM      4  C   UNL     1       1.050   1.583   0.000  0.00  0.00    +0.000 A 
ATOM      5  N   UNL     1       0.244   1.411   0.000  0.00  0.00    +0.000 NA
ATOM      6  C   UNL     1       2.288   0.868   0.000  0.00  0.00    +0.000 A 
ATOM      7  C   UNL     1       2.700   1.583   0.000  0.00  0.00    +0.000 A 
ATOM      8  C   UNL     1       2.288   2.297   0.000  0.00  0.00    +0.000 A 
ATOM      9  C   UNL     1       1.463   2.297   0.000  0.00  0.00    +0.000 A 
ATOM     10  N   UNL     1      -0.557   0.178   0.000  0.00  0.00    +0.000 NA
ENDROOT
BRANCH  10  11
ATOM     11  C   UNL     1      -0.557  -0.647   0.000  0.00  0.00    +0.000 C 
ATOM     12  C   UNL     1       0.157  -1.059   0.000  0.00  0.00    +0.000 C 
ATOM     13  C   UNL     1       0.157  -1.885   0.000  0.00  0.00    +0.000 C 
ATOM     14  C   UNL     1      -0.557  -2.297   0.000  0.00  0.00    +0.000 C 
ATOM     15  C   UNL     1      -1.272  -1.885   0.000  0.00  0.00    +0.000 A 
ATOM     16  C   UNL     1      -1.986  -2.297   0.000  0.00  0.00    +0.000 A 
ATOM     17  C   UNL     1      -2.700  -1.885   0.000  0.00  0.00    +0.000 A 
ATOM     18  C   UNL     1      -2.700  -1.059   0.000  0.00  0.00    +0.000 A 
ATOM     19  C   UNL     1      -1.986  -0.647   0.000  0.00  0.00    +0.000 A 
ATOM     20  C   UNL     1      -1.272  -1.059   0.000  0.00  0.00    +0.000 A 
ENDBRANCH  10  11
TORSDOF 1
