REMARK  Name = 
REMARK  2 active torsions:
REMARK  status: ('A' for Active; 'I' for Inactive)
REMARK    1  A    between atoms: C_5  and  N_12
REMARK    2  A    between atoms: C_6  and  S_8
REMARK                            x       y       z     vdW  Elec       q    Type
REMARK                         _______ _______ _______ _____ _____    ______ ____
ROOT
ATOM      1  C   UNL     1       0.715  -0.412   0.000  0.00  0.00    +0.000 C 
ATOM      2  C   UNL     1       0.715  -1.238   0.000  0.00  0.00    +0.000 A 
ATOM      3  C   UNL     1       1.429  -1.650   0.000  0.00  0.00    +0.000 A 
ATOM      4  C   UNL     1       1.429  -2.475   0.000  0.00  0.00    +0.000 A 
ATOM      5  C   UNL     1       0.715  -2.888   0.000  0.00  0.00    +0.000 A 
ATOM      6  C   UNL     1       0.000  -2.475   0.000  0.00  0.00    +0.000 A 
ATOM      7  C   UNL     1       0.000  -1.650   0.000  0.00  0.00    +0.000 A 
ENDROOT
BRANCH   5   8
ATOM      8  N   UNL     1       0.715  -3.712   0.000  0.00  0.00    +0.000 N 
ATOM      9  C   UNL     1       1.429  -4.125   0.000  0.00  0.00    +0.000 C 
ATOM     10  C   UNL     1       1.429  -4.950   0.000  0.00  0.00    +0.000 C 
ATOM     11  N   UNL     1       0.715  -5.362   0.000  0.00  0.00    +0.000 NA
ATOM     12  C   UNL     1       0.000  -4.950   0.000  0.00  0.00    +0.000 C 
ATOM     13  C   UNL     1       0.000  -4.125   0.000  0.00  0.00    +0.000 C 
ENDBRANCH   5   8
BRANCH   6  14
ATOM     14  S   UNL     1      -0.715  -2.888   0.000  0.00  0.00    +0.000 S 
ATOM     15  O   UNL     1      -1.429  -3.300   0.000  0.00  0.00    +0.000 OA
ATOM     16  O   UNL     1      -1.127  -2.173   0.000  0.00  0.00    +0.000 OA
ATOM     17  O   UNL     1      -0.302  -3.602   0.000  0.00  0.00    +0.000 OA
ENDBRANCH   6  14
TORSDOF 2
