REMARK  Name = 
REMARK  5 active torsions:
REMARK  status: ('A' for Active; 'I' for Inactive)
REMARK    1  A    between atoms: C_4  and  C_5
REMARK    2  A    between atoms: C_5  and  N_6
REMARK    3  A    between atoms: C_9  and  N_12
REMARK    4  A    between atoms: N_12  and  C_13
REMARK    5  A    between atoms: C_13  and  C_14
REMARK                            x       y       z     vdW  Elec       q    Type
REMARK                         _______ _______ _______ _____ _____    ______ ____
ROOT
ATOM      1  N   UNL     1       1.797   2.685   0.000  0.00  0.00    +0.000 NA
ATOM      2  C   UNL     1       1.312   3.353   0.000  0.00  0.00    +0.000 C 
ATOM      3  C   UNL     1       1.647   4.106   0.000  0.00  0.00    +0.000 C 
ATOM      4  C   UNL     1       2.468   4.192   0.000  0.00  0.00    +0.000 C 
ATOM      5  C   UNL     1       2.953   3.525   0.000  0.00  0.00    +0.000 C 
ATOM      6  C   UNL     1       2.617   2.771   0.000  0.00  0.00    +0.000 C 
ENDROOT
BRANCH   1   7
ATOM      7  C   UNL     1       1.461   1.931   0.000  0.00  0.00    +0.000 C 
BRANCH   7  11
ATOM      8  F   UNL     1       0.270   0.629   0.000  0.00  0.00    +0.000 F 
ATOM      9  C   UNL     1       0.938   0.144   0.000  0.00  0.00    +0.000 A 
ATOM     10  C   UNL     1       1.691   0.479   0.000  0.00  0.00    +0.000 A 
ATOM     11  C   UNL     1       1.946   1.264   0.000  0.00  0.00    +0.000 C 
ATOM     12  C   UNL     1       2.771   1.264   0.000  0.00  0.00    +0.000 C 
ATOM     13  N   UNL     1       3.026   0.479   0.000  0.00  0.00    +0.000 N 
ATOM     14  C   UNL     1       2.359  -0.006   0.000  0.00  0.00    +0.000 A 
ATOM     15  C   UNL     1       2.272  -0.826   0.000  0.00  0.00    +0.000 A 
ATOM     16  C   UNL     1       3.199  -1.162   0.000  0.00  0.00    +0.000 A 
ATOM     17  C   UNL     1       3.866  -0.677   0.000  0.00  0.00    +0.000 A 
ATOM     18  C   UNL     1       3.780   0.144   0.000  0.00  0.00    +0.000 A 
ATOM     19  O   UNL     1       4.447   0.629   0.000  0.00  0.00    +0.000 OA
ATOM     20  C   UNL     1       1.519  -1.162   0.000  0.00  0.00    +0.000 A 
ATOM     21  C   UNL     1       0.851  -0.677   0.000  0.00  0.00    +0.000 A 
ENDBRANCH   7  11
ENDBRANCH   1   7
BRANCH   4  22
ATOM     22  N   UNL     1       2.804   4.946   0.000  0.00  0.00    +0.000 NA
BRANCH  22  23
ATOM     23  C   UNL     1       3.624   5.032   0.000  0.00  0.00    +0.000 C 
BRANCH  23  24
ATOM     24  C   UNL     1       3.960   5.786   0.000  0.00  0.00    +0.000 A 
ATOM     25  N   UNL     1       3.475   6.453   0.000  0.00  0.00    +0.000 NA
ATOM     26  N   UNL     1       3.810   7.207   0.000  0.00  0.00    +0.000 NA
ATOM     27  C   UNL     1       4.631   7.293   0.000  0.00  0.00    +0.000 A 
ATOM     28  O   UNL     1       4.966   8.047   0.000  0.00  0.00    +0.000 OA
ATOM     29  C   UNL     1       5.787   8.133   0.000  0.00  0.00    +0.000 C 
ATOM     30  C   UNL     1       6.272   7.466   0.000  0.00  0.00    +0.000 C 
ATOM     31  O   UNL     1       5.936   6.712   0.000  0.00  0.00    +0.000 OA
ATOM     32  C   UNL     1       5.116   6.626   0.000  0.00  0.00    +0.000 A 
ATOM     33  C   UNL     1       4.780   5.872   0.000  0.00  0.00    +0.000 A 
ENDBRANCH  23  24
ENDBRANCH  22  23
ENDBRANCH   4  22
TORSDOF 5
