REMARK  Name = 
REMARK  5 active torsions:
REMARK  status: ('A' for Active; 'I' for Inactive)
REMARK    1  A    between atoms: C_5  and  C_8
REMARK    2  A    between atoms: C_9  and  N_24
REMARK    3  A    between atoms: C_12  and  C_14
REMARK    4  A    between atoms: C_25  and  C_27
REMARK    5  A    between atoms: C_29  and  C_32
REMARK                            x       y       z     vdW  Elec       q    Type
REMARK                         _______ _______ _______ _____ _____    ______ ____
ROOT
ATOM      1  C   UNL     1      -3.466  -1.422   0.000  0.00  0.00    +0.000 A 
ATOM      2  C   UNL     1      -2.751  -1.835   0.000  0.00  0.00    +0.000 A 
ATOM      3  C   UNL     1      -2.751  -2.660   0.000  0.00  0.00    +0.000 A 
ATOM      4  C   UNL     1      -3.466  -3.072   0.000  0.00  0.00    +0.000 A 
ATOM      5  C   UNL     1      -4.180  -2.660   0.000  0.00  0.00    +0.000 A 
ATOM      6  N   UNL     1      -4.180  -1.835   0.000  0.00  0.00    +0.000 NA
ENDROOT
BRANCH   5   7
ATOM      7  C   UNL     1      -4.895  -3.072   0.000  0.00  0.00    +0.000 C 
ATOM      8  C   UNL     1      -4.895  -3.897   0.000  0.00  0.00    +0.000 C 
ATOM      9  C   UNL     1      -5.609  -4.310   0.000  0.00  0.00    +0.000 C 
ATOM     10  O   UNL     1      -6.324  -3.897   0.000  0.00  0.00    +0.000 OA
ATOM     11  C   UNL     1      -6.324  -3.072   0.000  0.00  0.00    +0.000 C 
ATOM     12  C   UNL     1      -5.609  -2.660   0.000  0.00  0.00    +0.000 C 
ATOM     13  C   UNL     1      -7.148  -3.043   0.000  0.00  0.00    +0.000 C 
ATOM     14  C   UNL     1      -6.761  -2.373   0.000  0.00  0.00    +0.000 C 
ATOM     15  C   UNL     1      -5.222  -5.038   0.000  0.00  0.00    +0.000 C 
ATOM     16  C   UNL     1      -5.996  -5.038   0.000  0.00  0.00    +0.000 C 
ENDBRANCH   5   7
BRANCH   1  21
ATOM     17  C   UNL     1      -2.935   1.685   0.000  0.00  0.00    +0.000 C 
ATOM     18  C   UNL     1      -3.466   1.053   0.000  0.00  0.00    +0.000 C 
ATOM     19  C   UNL     1      -4.180   0.640   0.000  0.00  0.00    +0.000 C 
ATOM     20  C   UNL     1      -4.180  -0.185   0.000  0.00  0.00    +0.000 C 
ATOM     21  C   UNL     1      -3.466  -0.597   0.000  0.00  0.00    +0.000 C 
ATOM     22  C   UNL     1      -2.751  -0.185   0.000  0.00  0.00    +0.000 C 
ATOM     23  C   UNL     1      -2.751   0.640   0.000  0.00  0.00    +0.000 C 
ATOM     24  C   UNL     1      -3.996   1.685   0.000  0.00  0.00    +0.000 C 
ENDBRANCH   1  21
BRANCH   2  25
ATOM     25  N   UNL     1      -2.037  -1.422   0.000  0.00  0.00    +0.000 NA
ATOM     26  C   UNL     1      -1.322  -1.835   0.000  0.00  0.00    +0.000 C 
ATOM     27  O   UNL     1      -0.608  -1.422   0.000  0.00  0.00    +0.000 OA
BRANCH  26  28
ATOM     28  C   UNL     1      -1.322  -2.660   0.000  0.00  0.00    +0.000 A 
ATOM     29  N   UNL     1      -0.655  -3.145   0.000  0.00  0.00    +0.000 NA
ATOM     30  C   UNL     1      -0.910  -3.929   0.000  0.00  0.00    +0.000 A 
ATOM     31  C   UNL     1      -1.735  -3.929   0.000  0.00  0.00    +0.000 A 
ATOM     32  N   UNL     1      -1.990  -3.145   0.000  0.00  0.00    +0.000 NA
BRANCH  30  33
ATOM     33  C   UNL     1      -0.425  -4.597   0.000  0.00  0.00    +0.000 C 
ATOM     34  N   UNL     1       0.060  -5.264   0.000  0.00  0.00    +0.000 NA
ENDBRANCH  30  33
ENDBRANCH  26  28
ENDBRANCH   2  25
TORSDOF 5
