REMARK  Name = 
REMARK  5 active torsions:
REMARK  status: ('A' for Active; 'I' for Inactive)
REMARK    1  A    between atoms: C_4  and  O_5
REMARK    2  A    between atoms: O_5  and  C_6
REMARK    3  A    between atoms: C_6  and  C_7
REMARK    4  A    between atoms: C_20  and  C_24
REMARK    5  A    between atoms: C_25  and  C_26
REMARK                            x       y       z     vdW  Elec       q    Type
REMARK                         _______ _______ _______ _____ _____    ______ ____
ROOT
ATOM      1  O   UNL     1       4.014  -1.016   0.000  0.00  0.00    +0.000 OA
ATOM      2  C   UNL     1       3.602  -0.302   0.000  0.00  0.00    +0.000 A 
ATOM      3  N   UNL     1       4.014   0.412   0.000  0.00  0.00    +0.000 NA
ATOM      4  C   UNL     1       3.602   1.127   0.000  0.00  0.00    +0.000 A 
ATOM      5  C   UNL     1       2.777   1.127   0.000  0.00  0.00    +0.000 A 
ATOM      6  C   UNL     1       2.365   0.412   0.000  0.00  0.00    +0.000 A 
ATOM      7  N   UNL     1       2.777  -0.302   0.000  0.00  0.00    +0.000 N 
ATOM      8  C   UNL     1       2.365  -1.016   0.000  0.00  0.00    +0.000 C 
ATOM      9  C   UNL     1       1.540  -1.016   0.000  0.00  0.00    +0.000 C 
ATOM     10  C   UNL     1       1.127  -0.302   0.000  0.00  0.00    +0.000 A 
ATOM     11  C   UNL     1       0.302  -0.302   0.000  0.00  0.00    +0.000 A 
ATOM     12  C   UNL     1      -0.111   0.412   0.000  0.00  0.00    +0.000 A 
ATOM     13  C   UNL     1       0.302   1.127   0.000  0.00  0.00    +0.000 A 
ATOM     14  C   UNL     1       1.127   1.127   0.000  0.00  0.00    +0.000 A 
ATOM     15  C   UNL     1       1.540   0.412   0.000  0.00  0.00    +0.000 A 
ENDROOT
BRANCH  12  16
ATOM     16  C   UNL     1      -0.935   0.412   0.000  0.00  0.00    +0.000 C 
ATOM     17  C   UNL     1      -1.760   0.412   0.000  0.00  0.00    +0.000 C 
BRANCH  17  18
ATOM     18  C   UNL     1      -2.586   0.412   0.000  0.00  0.00    +0.000 C 
ATOM     19  C   UNL     1      -3.300   0.000   0.000  0.00  0.00    +0.000 C 
ATOM     20  C   UNL     1      -3.300   0.825   0.000  0.00  0.00    +0.000 C 
ENDBRANCH  17  18
ENDBRANCH  12  16
BRANCH   4  21
ATOM     21  O   UNL     1       4.014   1.841   0.000  0.00  0.00    +0.000 OA
BRANCH  21  22
ATOM     22  C   UNL     1       4.840   1.841   0.000  0.00  0.00    +0.000 C 
BRANCH  22  23
ATOM     23  C   UNL     1       5.252   2.556   0.000  0.00  0.00    +0.000 C 
ATOM     24  C   UNL     1       4.840   3.270   0.000  0.00  0.00    +0.000 C 
ATOM     25  O   UNL     1       5.252   3.985   0.000  0.00  0.00    +0.000 OA
ATOM     26  C   UNL     1       6.077   3.985   0.000  0.00  0.00    +0.000 C 
ATOM     27  C   UNL     1       6.489   3.270   0.000  0.00  0.00    +0.000 C 
ATOM     28  O   UNL     1       6.077   2.556   0.000  0.00  0.00    +0.000 OA
ENDBRANCH  22  23
ENDBRANCH  21  22
ENDBRANCH   4  21
TORSDOF 5
