REMARK  Name = 
REMARK  0 active torsions:
REMARK  status: ('A' for Active; 'I' for Inactive)
REMARK                            x       y       z     vdW  Elec       q    Type
REMARK                         _______ _______ _______ _____ _____    ______ ____
ROOT
ATOM      1  N   UNL     1      -0.988  -0.128   0.000  0.00  0.00    +0.000 N 
ATOM      2  N   UNL     1       1.222   0.123   0.000  0.00  0.00    +0.000 N 
ATOM      3  N   UNL     1      -0.274  -1.365   0.000  0.00  0.00    +0.000 NA
ATOM      4  N   UNL     1       1.222  -1.204   0.000  0.00  0.00    +0.000 NA
ATOM      5  N   UNL     1      -0.274   1.110   0.000  0.00  0.00    +0.000 N 
ATOM      6  C   UNL     1       0.441  -0.128   0.000  0.00  0.00    +0.000 A 
ATOM      7  C   UNL     1      -0.274   0.285   0.000  0.00  0.00    +0.000 A 
ATOM      8  C   UNL     1       0.441  -0.953   0.000  0.00  0.00    +0.000 A 
ATOM      9  C   UNL     1      -0.988  -0.953   0.000  0.00  0.00    +0.000 A 
ATOM     10  C   UNL     1      -1.703   0.285   0.000  0.00  0.00    +0.000 C 
ATOM     11  C   UNL     1       1.703  -0.540   0.000  0.00  0.00    +0.000 A 
ATOM     12  H   UNL     1       1.380   0.610   0.000  0.00  0.00    +0.000 HD
ATOM     13  H   UNL     1      -0.717   1.365   0.000  0.00  0.00    +0.000 HD
ATOM     14  H   UNL     1       0.169   1.365   0.000  0.00  0.00    +0.000 HD
ENDROOT
TORSDOF 0
