REMARK  Name = 
REMARK  13 active torsions:
REMARK  status: ('A' for Active; 'I' for Inactive)
REMARK    1  A    between atoms: P_1  and  O_9
REMARK    2  A    between atoms: P_1  and  O_12
REMARK    3  A    between atoms: P_2  and  O_10
REMARK    4  A    between atoms: P_2  and  O_12
REMARK    5  A    between atoms: O_9  and  C_34
REMARK    6  A    between atoms: O_10  and  C_37
REMARK    7  A    between atoms: N_18  and  C_25
REMARK    8  A    between atoms: N_19  and  C_32
REMARK    9  A    between atoms: N_24  and  C_50
REMARK   10  A    between atoms: C_28  and  C_34
REMARK   11  A    between atoms: C_31  and  C_37
REMARK   12  A    between atoms: C_33  and  C_36
REMARK   13  A    between atoms: C_43  and  C_49
REMARK                            x       y       z     vdW  Elec       q    Type
REMARK                         _______ _______ _______ _____ _____    ______ ____
ROOT
ATOM      1  P   UNL     1      -0.791   1.732   0.000  0.00  0.00    +0.000 P 
ATOM      2  O   UNL     1      -0.454   2.485   0.000  0.00  0.00    +0.000 OA
ATOM      3  O   UNL     1      -1.128   0.979   0.000  0.00  0.00    +0.000 OA
ENDROOT
BRANCH   1   4
ATOM      4  O   UNL     1      -1.544   2.068   0.000  0.00  0.00    +0.000 OA
BRANCH   4   5
ATOM      5  P   UNL     1      -2.212   1.585   0.000  0.00  0.00    +0.000 P 
ATOM      6  O   UNL     1      -1.729   0.916   0.000  0.00  0.00    +0.000 OA
ATOM      7  O   UNL     1      -2.696   2.253   0.000  0.00  0.00    +0.000 OA
BRANCH   5   8
ATOM      8  O   UNL     1      -2.881   1.101   0.000  0.00  0.00    +0.000 OA
BRANCH   8   9
ATOM      9  C   UNL     1      -3.634   1.438   0.000  0.00  0.00    +0.000 C 
BRANCH   9  15
ATOM     10  O   UNL     1      -4.303   0.129   0.000  0.00  0.00    +0.000 OA
ATOM     11  O   UNL     1      -5.340   1.995   0.000  0.00  0.00    +0.000 OA
ATOM     12  O   UNL     1      -6.397   0.545   0.000  0.00  0.00    +0.000 OA
ATOM     13  C   UNL     1      -5.086   1.210   0.000  0.00  0.00    +0.000 C 
ATOM     14  C   UNL     1      -5.572   0.543   0.000  0.00  0.00    +0.000 C 
ATOM     15  C   UNL     1      -4.302   0.954   0.000  0.00  0.00    +0.000 C 
ATOM     16  C   UNL     1      -5.089  -0.125   0.000  0.00  0.00    +0.000 C 
BRANCH  16  17
ATOM     17  N   UNL     1      -5.345  -0.909   0.000  0.00  0.00    +0.000 N 
ATOM     18  N   UNL     1      -5.345  -2.237   0.000  0.00  0.00    +0.000 NA
ATOM     19  N   UNL     1      -6.840  -0.748   0.000  0.00  0.00    +0.000 NA
ATOM     20  N   UNL     1      -7.554  -1.985   0.000  0.00  0.00    +0.000 NA
ATOM     21  C   UNL     1      -6.125  -1.160   0.000  0.00  0.00    +0.000 A 
ATOM     22  C   UNL     1      -4.863  -1.573   0.000  0.00  0.00    +0.000 A 
ATOM     23  C   UNL     1      -6.125  -1.985   0.000  0.00  0.00    +0.000 A 
ATOM     24  C   UNL     1      -6.840  -2.398   0.000  0.00  0.00    +0.000 A 
ATOM     25  C   UNL     1      -7.554  -1.160   0.000  0.00  0.00    +0.000 A 
BRANCH  24  26
ATOM     26  N   UNL     1      -6.840  -3.223   0.000  0.00  0.00    +0.000 N 
ATOM     27  H   UNL     1      -6.397  -3.478   0.000  0.00  0.00    +0.000 HD
ATOM     28  H   UNL     1      -7.283  -3.478   0.000  0.00  0.00    +0.000 HD
ENDBRANCH  24  26
ENDBRANCH  16  17
ENDBRANCH   9  15
ENDBRANCH   8   9
ENDBRANCH   5   8
ENDBRANCH   4   5
ENDBRANCH   1   4
BRANCH   1  29
ATOM     29  O   UNL     1      -0.038   1.395   0.000  0.00  0.00    +0.000 OA
BRANCH  29  30
ATOM     30  C   UNL     1       0.630   1.878   0.000  0.00  0.00    +0.000 C 
BRANCH  30  37
ATOM     31  O   UNL     1       2.099   1.953   0.000  0.00  0.00    +0.000 OA
ATOM     32  O   UNL     1       2.785  -0.069   0.000  0.00  0.00    +0.000 OA
ATOM     33  O   UNL     1       1.000   0.122   0.000  0.00  0.00    +0.000 OA
ATOM     34  C   UNL     1       2.711   1.400   0.000  0.00  0.00    +0.000 C 
ATOM     35  C   UNL     1       2.374   0.647   0.000  0.00  0.00    +0.000 C 
ATOM     36  C   UNL     1       1.554   0.734   0.000  0.00  0.00    +0.000 C 
ATOM     37  C   UNL     1       1.383   1.542   0.000  0.00  0.00    +0.000 C 
BRANCH  34  38
ATOM     38  N   UNL     1       3.518   1.570   0.000  0.00  0.00    +0.000 N 
ATOM     39  C   UNL     1       5.133   1.910   0.000  0.00  0.00    +0.000 A 
ATOM     40  C   UNL     1       4.069   0.956   0.000  0.00  0.00    +0.000 A 
ATOM     41  C   UNL     1       4.876   1.126   0.000  0.00  0.00    +0.000 A 
ATOM     42  C   UNL     1       3.774   2.354   0.000  0.00  0.00    +0.000 A 
ATOM     43  C   UNL     1       4.582   2.524   0.000  0.00  0.00    +0.000 A 
BRANCH  39  45
ATOM     44  O   UNL     1       5.645   3.478   0.000  0.00  0.00    +0.000 OA
ATOM     45  C   UNL     1       5.940   2.080   0.000  0.00  0.00    +0.000 C 
ATOM     46  C   UNL     1       6.491   1.466   0.000  0.00  0.00    +0.000 C 
ATOM     47  C   UNL     1       7.298   1.636   0.000  0.00  0.00    +0.000 C 
ATOM     48  C   UNL     1       7.554   2.421   0.000  0.00  0.00    +0.000 C 
ATOM     49  C   UNL     1       6.196   2.864   0.000  0.00  0.00    +0.000 C 
ATOM     50  C   UNL     1       7.003   3.035   0.000  0.00  0.00    +0.000 C 
ENDBRANCH  39  45
BRANCH  41  53
ATOM     51  O   UNL     1       6.234   0.682   0.000  0.00  0.00    +0.000 OA
ATOM     52  N   UNL     1       5.171  -0.272   0.000  0.00  0.00    +0.000 N 
ATOM     53  C   UNL     1       5.427   0.512   0.000  0.00  0.00    +0.000 C 
ATOM     54  H   UNL     1       4.670  -0.378   0.000  0.00  0.00    +0.000 HD
ATOM     55  H   UNL     1       5.513  -0.653   0.000  0.00  0.00    +0.000 HD
ENDBRANCH  41  53
ENDBRANCH  34  38
ENDBRANCH  30  37
ENDBRANCH  29  30
ENDBRANCH   1  29
TORSDOF 13
