REMARK  Name = 
REMARK  1 active torsions:
REMARK  status: ('A' for Active; 'I' for Inactive)
REMARK    1  A    between atoms: C_12  and  C_13
REMARK                            x       y       z     vdW  Elec       q    Type
REMARK                         _______ _______ _______ _____ _____    ______ ____
ROOT
ATOM      1  O   UNL     1       1.267  -2.612   0.000  0.00  0.00    +0.000 OA
ATOM      2  C   UNL     1      -1.050   0.336   0.000  0.00  0.00    +0.000 C 
ATOM      3  C   UNL     1      -0.656  -1.271   0.000  0.00  0.00    +0.000 C 
ATOM      4  C   UNL     1      -0.443  -0.474   0.000  0.00  0.00    +0.000 C 
ATOM      5  C   UNL     1      -2.085  -2.096   0.000  0.00  0.00    +0.000 C 
ATOM      6  C   UNL     1      -2.497  -1.382   0.000  0.00  0.00    +0.000 C 
ATOM      7  C   UNL     1       1.069  -1.100   0.000  0.00  0.00    +0.000 C 
ATOM      8  C   UNL     1       0.855  -1.897   0.000  0.00  0.00    +0.000 C 
ATOM      9  C   UNL     1      -0.964   1.156   0.000  0.00  0.00    +0.000 C 
ATOM     10  C   UNL     1      -1.804   0.671   0.000  0.00  0.00    +0.000 C 
ATOM     11  C   UNL     1      -0.870  -2.068   0.000  0.00  0.00    +0.000 C 
ATOM     12  C   UNL     1       1.783  -0.688   0.000  0.00  0.00    +0.000 C 
ENDROOT
BRANCH  12  13
ATOM     13  C   UNL     1       1.783   0.137   0.000  0.00  0.00    +0.000 A 
ATOM     14  C   UNL     1       2.497   0.549   0.000  0.00  0.00    +0.000 A 
ATOM     15  C   UNL     1       1.069   0.549   0.000  0.00  0.00    +0.000 A 
ATOM     16  C   UNL     1       2.497   1.374   0.000  0.00  0.00    +0.000 A 
ATOM     17  C   UNL     1       1.069   1.374   0.000  0.00  0.00    +0.000 A 
ATOM     18  C   UNL     1       1.783   1.787   0.000  0.00  0.00    +0.000 A 
ATOM     19  C   UNL     1       1.783   2.612   0.000  0.00  0.00    +0.000 C 
ENDBRANCH  12  13
TORSDOF 1
