REMARK  Name = 
REMARK  9 active torsions:
REMARK  status: ('A' for Active; 'I' for Inactive)
REMARK    1  A    between atoms: C_2  and  C_3
REMARK    2  A    between atoms: C_3  and  C_4
REMARK    3  A    between atoms: C_4  and  C_5
REMARK    4  A    between atoms: C_5  and  C_6
REMARK    5  A    between atoms: C_6  and  C_7
REMARK    6  A    between atoms: C_7  and  C_8
REMARK    7  A    between atoms: C_8  and  N_9
REMARK    8  A    between atoms: C_8  and  C_14
REMARK    9  A    between atoms: C_14  and  C_16
REMARK                            x       y       z     vdW  Elec       q    Type
REMARK                         _______ _______ _______ _____ _____    ______ ____
ROOT
ATOM      1  C   UNL     1       1.072   0.428   0.000  0.00  0.00    +0.000 C 
ENDROOT
BRANCH   1   2
ATOM      2  N   UNL     1       1.072  -0.396   0.000  0.00  0.00    +0.000 NA
ATOM      3  C   UNL     1       1.739  -0.881   0.000  0.00  0.00    +0.000 C 
ATOM      4  C   UNL     1       1.484  -1.666   0.000  0.00  0.00    +0.000 C 
ATOM      5  C   UNL     1       0.659  -1.666   0.000  0.00  0.00    +0.000 C 
ATOM      6  C   UNL     1       0.404  -0.881   0.000  0.00  0.00    +0.000 C 
ENDBRANCH   1   2
BRANCH   1   7
ATOM      7  C   UNL     1       1.786   0.841   0.000  0.00  0.00    +0.000 C 
ATOM      8  O   UNL     1       1.786   1.666   0.000  0.00  0.00    +0.000 OA
BRANCH   7   9
ATOM      9  C   UNL     1       2.501   0.428   0.000  0.00  0.00    +0.000 A 
ATOM     10  C   UNL     1       3.215   0.841   0.000  0.00  0.00    +0.000 A 
ATOM     11  C   UNL     1       3.929   0.428   0.000  0.00  0.00    +0.000 A 
ATOM     12  C   UNL     1       3.929  -0.396   0.000  0.00  0.00    +0.000 A 
ATOM     13  C   UNL     1       3.215  -0.809   0.000  0.00  0.00    +0.000 A 
ATOM     14  C   UNL     1       2.501  -0.396   0.000  0.00  0.00    +0.000 A 
ENDBRANCH   7   9
ENDBRANCH   1   7
BRANCH   1  15
ATOM     15  C   UNL     1       0.357   0.841   0.000  0.00  0.00    +0.000 C 
BRANCH  15  16
ATOM     16  C   UNL     1      -0.357   0.428   0.000  0.00  0.00    +0.000 C 
BRANCH  16  17
ATOM     17  C   UNL     1      -1.072   0.841   0.000  0.00  0.00    +0.000 C 
BRANCH  17  18
ATOM     18  C   UNL     1      -1.786   0.428   0.000  0.00  0.00    +0.000 C 
BRANCH  18  19
ATOM     19  C   UNL     1      -2.501   0.841   0.000  0.00  0.00    +0.000 C 
BRANCH  19  21
ATOM     20  C   UNL     1      -3.929   0.841   0.000  0.00  0.00    +0.000 C 
ATOM     21  C   UNL     1      -3.215   0.428   0.000  0.00  0.00    +0.000 C 
ENDBRANCH  19  21
ENDBRANCH  18  19
ENDBRANCH  17  18
ENDBRANCH  16  17
ENDBRANCH  15  16
ENDBRANCH   1  15
TORSDOF 9
