REMARK  Name = 
REMARK  14 active torsions:
REMARK  status: ('A' for Active; 'I' for Inactive)
REMARK    1  A    between atoms: O_7  and  C_8
REMARK    2  A    between atoms: C_10  and  O_20
REMARK    3  A    between atoms: C_14  and  O_30
REMARK    4  A    between atoms: C_15  and  C_24
REMARK    5  A    between atoms: O_20  and  C_27
REMARK    6  A    between atoms: C_24  and  C_25
REMARK    7  A    between atoms: O_30  and  C_31
REMARK    8  A    between atoms: C_35  and  N_39
REMARK    9  A    between atoms: C_36  and  O_38
REMARK   10  A    between atoms: O_38  and  C_43
REMARK   11  A    between atoms: C_48  and  O_51
REMARK   12  A    between atoms: O_51  and  C_52
REMARK   13  A    between atoms: C_52  and  C_54
REMARK   14  A    between atoms: C_54  and  C_55
REMARK                            x       y       z     vdW  Elec       q    Type
REMARK                         _______ _______ _______ _____ _____    ______ ____
ROOT
ATOM      1  O   UNL     1       2.503  -1.851   0.000  0.00  0.00    +0.000 OA
ATOM      2  C   UNL     1       2.503  -2.676   0.000  0.00  0.00    +0.000 C 
ATOM      3  C   UNL     1       3.218  -1.439   0.000  0.00  0.00    +0.000 C 
ATOM      4  O   UNL     1       3.218  -3.089   0.000  0.00  0.00    +0.000 OA
ATOM      5  C   UNL     1       3.932  -1.851   0.000  0.00  0.00    +0.000 C 
ATOM      6  C   UNL     1       3.932  -2.676   0.000  0.00  0.00    +0.000 C 
ATOM      7  C   UNL     1       1.074  -1.851   0.000  0.00  0.00    +0.000 C 
ATOM      8  C   UNL     1       1.789  -3.089   0.000  0.00  0.00    +0.000 C 
ATOM      9  C   UNL     1       1.075  -2.676   0.000  0.00  0.00    +0.000 C 
ATOM     10  C   UNL     1       3.218  -0.614   0.000  0.00  0.00    +0.000 C 
ATOM     11  C   UNL     1       2.503  -0.201   0.000  0.00  0.00    +0.000 C 
ATOM     12  C   UNL     1       1.074  -0.201   0.000  0.00  0.00    +0.000 C 
ATOM     13  C   UNL     1       0.360  -1.439   0.000  0.00  0.00    +0.000 C 
ATOM     14  C   UNL     1       0.360  -0.614   0.000  0.00  0.00    +0.000 C 
ATOM     15  C   UNL     1       2.503   0.624   0.000  0.00  0.00    +0.000 C 
ATOM     16  C   UNL     1       1.074   0.623   0.000  0.00  0.00    +0.000 C 
ATOM     17  C   UNL     1       1.788   1.036   0.000  0.00  0.00    +0.000 C 
ATOM     18  C   UNL     1       4.649  -3.089   0.000  0.00  0.00    +0.000 C 
ATOM     19  C   UNL     1       0.355   1.036   0.000  0.00  0.00    +0.000 C 
ATOM     20  O   UNL     1       1.786   1.861   0.000  0.00  0.00    +0.000 OA
ENDROOT
BRANCH   7  21
ATOM     21  O   UNL     1       1.789  -1.439   0.000  0.00  0.00    +0.000 OA
ATOM     22  C   UNL     1       1.786  -0.614   0.000  0.00  0.00    +0.000 C 
ENDBRANCH   7  21
BRANCH  13  23
ATOM     23  O   UNL     1      -0.360  -1.856   0.000  0.00  0.00    +0.000 OA
BRANCH  23  24
ATOM     24  C   UNL     1      -1.075  -1.445   0.000  0.00  0.00    +0.000 C 
ATOM     25  O   UNL     1      -1.077  -0.620   0.000  0.00  0.00    +0.000 OA
ATOM     26  C   UNL     1      -1.789  -1.858   0.000  0.00  0.00    +0.000 C 
ATOM     27  C   UNL     1      -1.792  -0.208   0.000  0.00  0.00    +0.000 C 
ATOM     28  C   UNL     1      -2.504  -1.447   0.000  0.00  0.00    +0.000 C 
ATOM     29  C   UNL     1      -2.506  -0.622   0.000  0.00  0.00    +0.000 C 
ATOM     30  C   UNL     1      -1.792   0.619   0.000  0.00  0.00    +0.000 C 
ATOM     31  O   UNL     1      -1.792  -2.681   0.000  0.00  0.00    +0.000 OA
BRANCH  28  32
ATOM     32  N   UNL     1      -3.223  -1.866   0.000  0.00  0.00    +0.000 NA
ATOM     33  C   UNL     1      -3.219  -2.691   0.000  0.00  0.00    +0.000 C 
ATOM     34  C   UNL     1      -3.939  -1.457   0.000  0.00  0.00    +0.000 C 
ENDBRANCH  28  32
BRANCH  29  35
ATOM     35  O   UNL     1      -3.223  -0.206   0.000  0.00  0.00    +0.000 OA
BRANCH  35  36
ATOM     36  C   UNL     1      -3.222   0.619   0.000  0.00  0.00    +0.000 C 
ATOM     37  C   UNL     1      -2.507   1.030   0.000  0.00  0.00    +0.000 C 
ATOM     38  O   UNL     1      -3.936   1.032   0.000  0.00  0.00    +0.000 OA
ATOM     39  C   UNL     1      -2.506   1.855   0.000  0.00  0.00    +0.000 C 
ATOM     40  C   UNL     1      -3.935   1.857   0.000  0.00  0.00    +0.000 C 
ATOM     41  C   UNL     1      -3.220   2.269   0.000  0.00  0.00    +0.000 C 
ATOM     42  C   UNL     1      -1.681   1.854   0.000  0.00  0.00    +0.000 C 
ATOM     43  O   UNL     1      -2.093   2.569   0.000  0.00  0.00    +0.000 OA
ATOM     44  C   UNL     1      -4.649   2.270   0.000  0.00  0.00    +0.000 C 
BRANCH  41  45
ATOM     45  O   UNL     1      -3.223   3.094   0.000  0.00  0.00    +0.000 OA
BRANCH  45  46
ATOM     46  C   UNL     1      -2.507   3.511   0.000  0.00  0.00    +0.000 C 
ATOM     47  O   UNL     1      -2.507   4.336   0.000  0.00  0.00    +0.000 OA
BRANCH  46  48
ATOM     48  C   UNL     1      -1.792   3.100   0.000  0.00  0.00    +0.000 C 
BRANCH  48  49
ATOM     49  C   UNL     1      -1.076   3.511   0.000  0.00  0.00    +0.000 C 
ATOM     50  C   UNL     1      -0.363   3.097   0.000  0.00  0.00    +0.000 C 
ATOM     51  C   UNL     1      -1.074   4.336   0.000  0.00  0.00    +0.000 C 
ENDBRANCH  48  49
ENDBRANCH  46  48
ENDBRANCH  45  46
ENDBRANCH  41  45
ENDBRANCH  35  36
ENDBRANCH  29  35
ENDBRANCH  23  24
ENDBRANCH  13  23
BRANCH   9  52
ATOM     52  O   UNL     1       0.355  -3.099   0.000  0.00  0.00    +0.000 OA
BRANCH  52  53
ATOM     53  C   UNL     1       0.355  -3.924   0.000  0.00  0.00    +0.000 C 
ATOM     54  O   UNL     1      -0.359  -4.336   0.000  0.00  0.00    +0.000 OA
ATOM     55  C   UNL     1       1.070  -4.336   0.000  0.00  0.00    +0.000 C 
ENDBRANCH  52  53
ENDBRANCH   9  52
BRANCH  14  56
ATOM     56  C   UNL     1      -0.360  -0.206   0.000  0.00  0.00    +0.000 C 
BRANCH  56  57
ATOM     57  C   UNL     1      -0.360   0.619   0.000  0.00  0.00    +0.000 C 
ATOM     58  O   UNL     1      -1.076   1.036   0.000  0.00  0.00    +0.000 OA
ENDBRANCH  56  57
ENDBRANCH  14  56
TORSDOF 14
