REMARK  Name = 
REMARK  7 active torsions:
REMARK  status: ('A' for Active; 'I' for Inactive)
REMARK    1  A    between atoms: O_2  and  C_3
REMARK    2  A    between atoms: C_6  and  C_23
REMARK    3  A    between atoms: C_8  and  C_9
REMARK    4  A    between atoms: N_11  and  C_12
REMARK    5  A    between atoms: C_12  and  C_13
REMARK    6  A    between atoms: C_16  and  C_19
REMARK    7  A    between atoms: C_23  and  C_24
REMARK                            x       y       z     vdW  Elec       q    Type
REMARK                         _______ _______ _______ _____ _____    ______ ____
ROOT
ATOM      1  C   UNL     1       6.324  -2.949   0.000  0.00  0.00    +0.000 A 
ATOM      2  C   UNL     1       6.324  -3.774   0.000  0.00  0.00    +0.000 A 
ATOM      3  C   UNL     1       5.609  -4.187   0.000  0.00  0.00    +0.000 A 
ATOM      4  C   UNL     1       4.895  -3.774   0.000  0.00  0.00    +0.000 A 
ATOM      5  C   UNL     1       4.895  -2.949   0.000  0.00  0.00    +0.000 A 
ATOM      6  C   UNL     1       5.609  -2.537   0.000  0.00  0.00    +0.000 A 
ENDROOT
BRANCH   6   7
ATOM      7  C   UNL     1       5.609  -1.712   0.000  0.00  0.00    +0.000 C 
ATOM      8  O   UNL     1       4.895  -1.299   0.000  0.00  0.00    +0.000 OA
ATOM      9  N   UNL     1       6.324  -1.299   0.000  0.00  0.00    +0.000 NA
BRANCH   9  10
ATOM     10  C   UNL     1       6.324  -0.474   0.000  0.00  0.00    +0.000 C 
BRANCH  10  11
ATOM     11  C   UNL     1       7.038  -0.062   0.000  0.00  0.00    +0.000 A 
ATOM     12  C   UNL     1       7.038   0.763   0.000  0.00  0.00    +0.000 A 
ATOM     13  C   UNL     1       7.753   1.176   0.000  0.00  0.00    +0.000 A 
ATOM     14  C   UNL     1       8.467   0.763   0.000  0.00  0.00    +0.000 A 
ATOM     15  C   UNL     1       8.467  -0.062   0.000  0.00  0.00    +0.000 A 
ATOM     16  C   UNL     1       7.753  -0.474   0.000  0.00  0.00    +0.000 A 
BRANCH  14  17
ATOM     17  C   UNL     1       9.181   1.176   0.000  0.00  0.00    +0.000 C 
ATOM     18  F   UNL     1       9.896   1.588   0.000  0.00  0.00    +0.000 F 
ATOM     19  F   UNL     1       8.769   1.890   0.000  0.00  0.00    +0.000 F 
ATOM     20  F   UNL     1       9.594   0.461   0.000  0.00  0.00    +0.000 F 
ENDBRANCH  14  17
ENDBRANCH  10  11
ENDBRANCH   9  10
ENDBRANCH   6   7
BRANCH   1  22
ATOM     21  C   UNL     1       7.038  -1.712   0.000  0.00  0.00    +0.000 C 
ATOM     22  O   UNL     1       7.038  -2.537   0.000  0.00  0.00    +0.000 OA
ENDBRANCH   1  22
BRANCH   4  23
ATOM     23  C   UNL     1       4.180  -4.187   0.000  0.00  0.00    +0.000 C 
BRANCH  23  24
ATOM     24  C   UNL     1       4.180  -5.012   0.000  0.00  0.00    +0.000 C 
ATOM     25  C   UNL     1       4.848  -5.497   0.000  0.00  0.00    +0.000 C 
ATOM     26  O   UNL     1       5.632  -5.242   0.000  0.00  0.00    +0.000 OA
ATOM     27  N   UNL     1       4.593  -6.281   0.000  0.00  0.00    +0.000 NA
ATOM     28  C   UNL     1       3.768  -6.281   0.000  0.00  0.00    +0.000 C 
ATOM     29  O   UNL     1       3.283  -6.949   0.000  0.00  0.00    +0.000 OA
ATOM     30  O   UNL     1       3.513  -5.497   0.000  0.00  0.00    +0.000 OA
ENDBRANCH  23  24
ENDBRANCH   4  23
TORSDOF 7
