REMARK  Name = 
REMARK  3 active torsions:
REMARK  status: ('A' for Active; 'I' for Inactive)
REMARK    1  A    between atoms: C_9  and  N_13
REMARK    2  A    between atoms: C_11  and  C_14
REMARK    3  A    between atoms: C_15  and  C_20
REMARK                            x       y       z     vdW  Elec       q    Type
REMARK                         _______ _______ _______ _____ _____    ______ ____
ROOT
ATOM      1  C   UNL     1      -1.072   2.626   0.000  0.00  0.00    +0.000 C 
ATOM      2  C   UNL     1      -1.072   1.801   0.000  0.00  0.00    +0.000 C 
ATOM      3  N   UNL     1      -0.357   1.388   0.000  0.00  0.00    +0.000 N 
ATOM      4  C   UNL     1       0.357   1.801   0.000  0.00  0.00    +0.000 C 
ATOM      5  C   UNL     1       0.357   2.626   0.000  0.00  0.00    +0.000 C 
ATOM      6  O   UNL     1      -0.357   3.038   0.000  0.00  0.00    +0.000 OA
ATOM      7  C   UNL     1      -0.357   0.563   0.000  0.00  0.00    +0.000 A 
ATOM      8  N   UNL     1      -1.072   0.151   0.000  0.00  0.00    +0.000 NA
ATOM      9  C   UNL     1      -1.072  -0.674   0.000  0.00  0.00    +0.000 A 
ATOM     10  C   UNL     1      -0.357  -1.087   0.000  0.00  0.00    +0.000 A 
ATOM     11  C   UNL     1       0.357  -0.674   0.000  0.00  0.00    +0.000 A 
ATOM     12  N   UNL     1       0.357   0.151   0.000  0.00  0.00    +0.000 NA
ENDROOT
BRANCH  11  13
ATOM     13  C   UNL     1       1.072  -1.087   0.000  0.00  0.00    +0.000 A 
ATOM     14  C   UNL     1       1.072  -1.911   0.000  0.00  0.00    +0.000 A 
ATOM     15  C   UNL     1       1.786  -2.324   0.000  0.00  0.00    +0.000 A 
ATOM     16  C   UNL     1       2.501  -1.911   0.000  0.00  0.00    +0.000 A 
ATOM     17  N   UNL     1       2.501  -1.087   0.000  0.00  0.00    +0.000 NA
ATOM     18  C   UNL     1       1.786  -0.674   0.000  0.00  0.00    +0.000 A 
ATOM     19  N   UNL     1       3.215  -2.324   0.000  0.00  0.00    +0.000 NA
BRANCH  14  20
ATOM     20  C   UNL     1       0.357  -2.324   0.000  0.00  0.00    +0.000 C 
ATOM     21  F   UNL     1       0.770  -3.038   0.000  0.00  0.00    +0.000 F 
ATOM     22  F   UNL     1      -0.357  -2.736   0.000  0.00  0.00    +0.000 F 
ATOM     23  F   UNL     1      -0.055  -1.609   0.000  0.00  0.00    +0.000 F 
ENDBRANCH  14  20
ENDBRANCH  11  13
BRANCH   9  24
ATOM     24  N   UNL     1      -1.786  -1.087   0.000  0.00  0.00    +0.000 N 
ATOM     25  C   UNL     1      -2.501  -0.674   0.000  0.00  0.00    +0.000 C 
ATOM     26  C   UNL     1      -3.215  -1.087   0.000  0.00  0.00    +0.000 C 
ATOM     27  O   UNL     1      -3.215  -1.911   0.000  0.00  0.00    +0.000 OA
ATOM     28  C   UNL     1      -2.501  -2.324   0.000  0.00  0.00    +0.000 C 
ATOM     29  C   UNL     1      -1.786  -1.911   0.000  0.00  0.00    +0.000 C 
ENDBRANCH   9  24
TORSDOF 3
