REMARK  Name = 
REMARK  12 active torsions:
REMARK  status: ('A' for Active; 'I' for Inactive)
REMARK    1  A    between atoms: C_1  and  C_9
REMARK    2  A    between atoms: N_2  and  C_4
REMARK    3  A    between atoms: C_4  and  C_5
REMARK    4  A    between atoms: C_5  and  C_6
REMARK    5  A    between atoms: C_11  and  N_26
REMARK    6  A    between atoms: C_13  and  C_18
REMARK    7  A    between atoms: N_19  and  C_20
REMARK    8  A    between atoms: C_20  and  C_21
REMARK    9  A    between atoms: C_21  and  C_22
REMARK   10  A    between atoms: N_26  and  C_27
REMARK   11  A    between atoms: C_27  and  C_28
REMARK   12  A    between atoms: C_29  and  C_31
REMARK                            x       y       z     vdW  Elec       q    Type
REMARK                         _______ _______ _______ _____ _____    ______ ____
ROOT
ATOM      1  C   UNL     1       0.711   0.415   0.000  0.00  0.00    +0.000 A 
ATOM      2  C   UNL     1       1.429   0.002   0.000  0.00  0.00    +0.000 A 
ATOM      3  C   UNL     1       1.429  -0.825   0.000  0.00  0.00    +0.000 A 
ATOM      4  C   UNL     1       0.711  -1.238   0.000  0.00  0.00    +0.000 A 
ATOM      5  C   UNL     1      -0.002  -0.825   0.000  0.00  0.00    +0.000 A 
ATOM      6  C   UNL     1      -0.002   0.002   0.000  0.00  0.00    +0.000 A 
ATOM      7  I   UNL     1       0.710  -2.065   0.000  0.00  0.00    +0.000 I 
ATOM      8  I   UNL     1      -0.719   0.415   0.000  0.00  0.00    +0.000 I 
ATOM      9  I   UNL     1       2.144   0.415   0.000  0.00  0.00    +0.000 I 
ENDROOT
BRANCH   1  10
ATOM     10  C   UNL     1       0.711   1.238   0.000  0.00  0.00    +0.000 C 
ATOM     11  N   UNL     1       1.427   1.650   0.000  0.00  0.00    +0.000 NA
ATOM     12  O   UNL     1      -0.004   1.652   0.000  0.00  0.00    +0.000 OA
BRANCH  11  13
ATOM     13  C   UNL     1       2.139   1.238   0.000  0.00  0.00    +0.000 C 
BRANCH  13  14
ATOM     14  C   UNL     1       2.852   1.651   0.000  0.00  0.00    +0.000 C 
ATOM     15  O   UNL     1       2.852   2.478   0.000  0.00  0.00    +0.000 OA
BRANCH  14  16
ATOM     16  C   UNL     1       3.566   1.238   0.000  0.00  0.00    +0.000 C 
ATOM     17  O   UNL     1       4.280   1.651   0.000  0.00  0.00    +0.000 OA
ENDBRANCH  14  16
ENDBRANCH  13  14
ENDBRANCH  11  13
ENDBRANCH   1  10
BRANCH   3  18
ATOM     18  N   UNL     1       2.143  -1.238   0.000  0.00  0.00    +0.000 N 
ATOM     19  C   UNL     1       2.138  -2.061   0.000  0.00  0.00    +0.000 C 
ATOM     20  O   UNL     1       1.421  -2.470   0.000  0.00  0.00    +0.000 OA
BRANCH  19  21
ATOM     21  C   UNL     1       2.852  -2.478   0.000  0.00  0.00    +0.000 C 
ATOM     22  O   UNL     1       3.576  -2.064   0.000  0.00  0.00    +0.000 OA
ENDBRANCH  19  21
BRANCH  18  23
ATOM     23  C   UNL     1       2.857  -0.829   0.000  0.00  0.00    +0.000 C 
BRANCH  23  24
ATOM     24  C   UNL     1       3.571  -1.242   0.000  0.00  0.00    +0.000 C 
ATOM     25  O   UNL     1       4.287  -0.830   0.000  0.00  0.00    +0.000 OA
ENDBRANCH  23  24
ENDBRANCH  18  23
ENDBRANCH   3  18
BRANCH   5  26
ATOM     26  C   UNL     1      -0.719  -1.238   0.000  0.00  0.00    +0.000 C 
ATOM     27  N   UNL     1      -1.431  -0.821   0.000  0.00  0.00    +0.000 NA
ATOM     28  O   UNL     1      -0.680  -2.064   0.000  0.00  0.00    +0.000 OA
BRANCH  27  29
ATOM     29  C   UNL     1      -2.145  -1.234   0.000  0.00  0.00    +0.000 C 
BRANCH  29  30
ATOM     30  C   UNL     1      -2.859  -0.821   0.000  0.00  0.00    +0.000 C 
ATOM     31  O   UNL     1      -2.859   0.006   0.000  0.00  0.00    +0.000 OA
BRANCH  30  32
ATOM     32  C   UNL     1      -3.573  -1.234   0.000  0.00  0.00    +0.000 C 
ATOM     33  O   UNL     1      -4.287  -0.821   0.000  0.00  0.00    +0.000 OA
ENDBRANCH  30  32
ENDBRANCH  29  30
ENDBRANCH  27  29
ENDBRANCH   5  26
TORSDOF 12
