REMARK  Name = 
REMARK  6 active torsions:
REMARK  status: ('A' for Active; 'I' for Inactive)
REMARK    1  A    between atoms: C_2  and  C_3
REMARK    2  A    between atoms: C_5  and  C_12
REMARK    3  A    between atoms: C_14  and  C_15
REMARK    4  A    between atoms: C_15  and  C_16
REMARK    5  A    between atoms: C_19  and  O_20
REMARK    6  A    between atoms: O_20  and  C_21
REMARK                            x       y       z     vdW  Elec       q    Type
REMARK                         _______ _______ _______ _____ _____    ______ ____
ROOT
ATOM      1  C   UNL     1       3.889   6.180   0.000  0.00  0.00    +0.000 A 
ATOM      2  C   UNL     1       4.301   5.466   0.000  0.00  0.00    +0.000 A 
ATOM      3  C   UNL     1       3.889   4.751   0.000  0.00  0.00    +0.000 A 
ATOM      4  C   UNL     1       3.064   4.751   0.000  0.00  0.00    +0.000 A 
ATOM      5 CL   UNL     1       2.651   4.037   0.000  0.00  0.00    +0.000 Cl
ATOM      6  C   UNL     1       2.651   5.466   0.000  0.00  0.00    +0.000 A 
ATOM      7  C   UNL     1       3.064   6.180   0.000  0.00  0.00    +0.000 A 
ENDROOT
BRANCH   1  10
ATOM      8  C   UNL     1       5.539   7.609   0.000  0.00  0.00    +0.000 C 
ATOM      9  O   UNL     1       5.126   6.895   0.000  0.00  0.00    +0.000 OA
ATOM     10  C   UNL     1       4.301   6.895   0.000  0.00  0.00    +0.000 C 
ATOM     11  C   UNL     1       3.889   7.609   0.000  0.00  0.00    +0.000 C 
ATOM     12  O   UNL     1       3.064   7.609   0.000  0.00  0.00    +0.000 OA
ATOM     13  C   UNL     1       4.301   8.324   0.000  0.00  0.00    +0.000 C 
ATOM     14  O   UNL     1       3.889   9.038   0.000  0.00  0.00    +0.000 OA
ATOM     15  C   UNL     1       5.126   8.324   0.000  0.00  0.00    +0.000 C 
ATOM     16  O   UNL     1       5.539   9.038   0.000  0.00  0.00    +0.000 OA
BRANCH   8  18
ATOM     17  O   UNL     1       6.776   8.324   0.000  0.00  0.00    +0.000 OA
ATOM     18  C   UNL     1       6.364   7.609   0.000  0.00  0.00    +0.000 C 
ENDBRANCH   8  18
ENDBRANCH   1  10
BRANCH   3  19
ATOM     19  C   UNL     1       4.301   4.037   0.000  0.00  0.00    +0.000 C 
BRANCH  19  20
ATOM     20  C   UNL     1       3.889   3.322   0.000  0.00  0.00    +0.000 A 
ATOM     21  C   UNL     1       4.301   2.608   0.000  0.00  0.00    +0.000 A 
ATOM     22  C   UNL     1       3.889   1.893   0.000  0.00  0.00    +0.000 A 
ATOM     23  C   UNL     1       3.064   1.893   0.000  0.00  0.00    +0.000 A 
ATOM     24  C   UNL     1       2.651   2.608   0.000  0.00  0.00    +0.000 A 
ATOM     25  C   UNL     1       3.064   3.322   0.000  0.00  0.00    +0.000 A 
BRANCH  23  26
ATOM     26  O   UNL     1       2.651   1.179   0.000  0.00  0.00    +0.000 OA
BRANCH  26  27
ATOM     27  C   UNL     1       1.826   1.179   0.000  0.00  0.00    +0.000 C 
ATOM     28  C   UNL     1       1.341   0.511   0.000  0.00  0.00    +0.000 C 
ATOM     29  C   UNL     1       0.557   0.766   0.000  0.00  0.00    +0.000 C 
ATOM     30  C   UNL     1      -0.158   1.179   0.000  0.00  0.00    +0.000 C 
ATOM     31  C   UNL     1       0.557   1.591   0.000  0.00  0.00    +0.000 C 
ATOM     32  C   UNL     1       1.341   1.846   0.000  0.00  0.00    +0.000 C 
ENDBRANCH  26  27
ENDBRANCH  23  26
ENDBRANCH  19  20
ENDBRANCH   3  19
TORSDOF 6
