REMARK  Name = 
REMARK  19 active torsions:
REMARK  status: ('A' for Active; 'I' for Inactive)
REMARK    1  A    between atoms: C_1  and  C_2
REMARK    2  A    between atoms: C_1  and  N_16
REMARK    3  A    between atoms: C_2  and  N_3
REMARK    4  A    between atoms: N_3  and  C_4
REMARK    5  A    between atoms: N_3  and  C_10
REMARK    6  A    between atoms: C_4  and  C_5
REMARK    7  A    between atoms: C_5  and  O_6
REMARK    8  A    between atoms: O_6  and  N_7
REMARK    9  A    between atoms: C_10  and  C_11
REMARK   10  A    between atoms: C_11  and  O_12
REMARK   11  A    between atoms: O_12  and  N_13
REMARK   12  A    between atoms: N_16  and  C_17
REMARK   13  A    between atoms: N_16  and  C_23
REMARK   14  A    between atoms: C_17  and  C_18
REMARK   15  A    between atoms: C_18  and  O_19
REMARK   16  A    between atoms: O_19  and  N_20
REMARK   17  A    between atoms: C_23  and  C_24
REMARK   18  A    between atoms: C_24  and  O_25
REMARK   19  A    between atoms: O_25  and  N_26
REMARK                            x       y       z     vdW  Elec       q    Type
REMARK                         _______ _______ _______ _____ _____    ______ ____
ROOT
ATOM      1  C   UNL     1       9.150  -1.873   0.000  0.00  0.00    +0.000 C 
ENDROOT
BRANCH   1   2
ATOM      2  N   UNL     1       9.929  -1.603   0.000  0.00  0.00    +0.000 NA
BRANCH   2   3
ATOM      3  C   UNL     1      10.085  -0.793   0.000  0.00  0.00    +0.000 C 
BRANCH   3   4
ATOM      4  C   UNL     1      10.865  -0.523   0.000  0.00  0.00    +0.000 C 
BRANCH   4   5
ATOM      5  O   UNL     1      11.021   0.287   0.000  0.00  0.00    +0.000 OA
BRANCH   5   6
ATOM      6  N   UNL     1      11.800   0.557   0.000  0.00  0.00    +0.000 N 
ATOM      7  O   UNL     1      11.956   1.367   0.000  0.00  0.00    +0.000 OA
ATOM      8  O   UNL     1      12.424   0.017   0.000  0.00  0.00    +0.000 OA
ENDBRANCH   5   6
ENDBRANCH   4   5
ENDBRANCH   3   4
ENDBRANCH   2   3
BRANCH   2   9
ATOM      9  C   UNL     1      10.553  -2.143   0.000  0.00  0.00    +0.000 C 
BRANCH   9  10
ATOM     10  C   UNL     1      11.332  -1.873   0.000  0.00  0.00    +0.000 C 
BRANCH  10  11
ATOM     11  O   UNL     1      11.956  -2.413   0.000  0.00  0.00    +0.000 OA
BRANCH  11  12
ATOM     12  N   UNL     1      12.736  -2.143   0.000  0.00  0.00    +0.000 N 
ATOM     13  O   UNL     1      12.892  -1.333   0.000  0.00  0.00    +0.000 OA
ATOM     14  O   UNL     1      13.359  -2.683   0.000  0.00  0.00    +0.000 OA
ENDBRANCH  11  12
ENDBRANCH  10  11
ENDBRANCH   9  10
ENDBRANCH   2   9
ENDBRANCH   1   2
BRANCH   1  15
ATOM     15  C   UNL     1       8.994  -2.683   0.000  0.00  0.00    +0.000 C 
BRANCH  15  16
ATOM     16  N   UNL     1       8.214  -2.954   0.000  0.00  0.00    +0.000 NA
BRANCH  16  17
ATOM     17  C   UNL     1       8.058  -3.764   0.000  0.00  0.00    +0.000 C 
BRANCH  17  18
ATOM     18  C   UNL     1       7.279  -4.034   0.000  0.00  0.00    +0.000 C 
BRANCH  18  19
ATOM     19  O   UNL     1       7.123  -4.844   0.000  0.00  0.00    +0.000 OA
BRANCH  19  20
ATOM     20  N   UNL     1       6.343  -5.114   0.000  0.00  0.00    +0.000 N 
ATOM     21  O   UNL     1       6.188  -5.924   0.000  0.00  0.00    +0.000 OA
ATOM     22  O   UNL     1       5.720  -4.574   0.000  0.00  0.00    +0.000 OA
ENDBRANCH  19  20
ENDBRANCH  18  19
ENDBRANCH  17  18
ENDBRANCH  16  17
BRANCH  16  23
ATOM     23  C   UNL     1       7.591  -2.413   0.000  0.00  0.00    +0.000 C 
BRANCH  23  24
ATOM     24  C   UNL     1       6.811  -2.683   0.000  0.00  0.00    +0.000 C 
BRANCH  24  25
ATOM     25  O   UNL     1       6.188  -2.143   0.000  0.00  0.00    +0.000 OA
BRANCH  25  26
ATOM     26  N   UNL     1       5.408  -2.413   0.000  0.00  0.00    +0.000 N 
ATOM     27  O   UNL     1       4.784  -1.873   0.000  0.00  0.00    +0.000 OA
ATOM     28  O   UNL     1       5.252  -3.224   0.000  0.00  0.00    +0.000 OA
ENDBRANCH  25  26
ENDBRANCH  24  25
ENDBRANCH  23  24
ENDBRANCH  16  23
ENDBRANCH  15  16
ENDBRANCH   1  15
TORSDOF 19
