REMARK  Name = 
REMARK  6 active torsions:
REMARK  status: ('A' for Active; 'I' for Inactive)
REMARK    1  A    between atoms: C_1  and  C_6
REMARK    2  A    between atoms: C_10  and  C_11
REMARK    3  A    between atoms: C_12  and  C_23
REMARK    4  A    between atoms: C_15  and  C_16
REMARK    5  A    between atoms: N_29  and  C_30
REMARK    6  A    between atoms: C_30  and  C_32
REMARK                            x       y       z     vdW  Elec       q    Type
REMARK                         _______ _______ _______ _____ _____    ______ ____
ROOT
ATOM      1  C   UNL     1      -0.771   1.620   0.000  0.00  0.00    +0.000 A 
ATOM      2  C   UNL     1      -0.604   0.815   0.000  0.00  0.00    +0.000 A 
ATOM      3  N   UNL     1      -0.054   2.033   0.000  0.00  0.00    +0.000 NA
ATOM      4  N   UNL     1       0.221   0.727   0.000  0.00  0.00    +0.000 N 
ATOM      5  C   UNL     1       0.555   1.473   0.000  0.00  0.00    +0.000 A 
ATOM      6  C   UNL     1       0.633   0.010   0.000  0.00  0.00    +0.000 C 
ENDROOT
BRANCH   2   7
ATOM      7  C   UNL     1      -1.154   0.196   0.000  0.00  0.00    +0.000 A 
ATOM      8  C   UNL     1      -1.861   0.609   0.000  0.00  0.00    +0.000 A 
ATOM      9  C   UNL     1      -2.578   0.196   0.000  0.00  0.00    +0.000 A 
ATOM     10  N   UNL     1      -2.578  -0.628   0.000  0.00  0.00    +0.000 NA
ATOM     11  N   UNL     1      -1.154  -0.628   0.000  0.00  0.00    +0.000 NA
ATOM     12  C   UNL     1      -1.861  -1.031   0.000  0.00  0.00    +0.000 A 
ATOM     13  N   UNL     1      -1.861  -1.856   0.000  0.00  0.00    +0.000 NA
BRANCH  13  14
ATOM     14  C   UNL     1      -1.282  -2.445   0.000  0.00  0.00    +0.000 C 
ATOM     15  C   UNL     1      -0.565  -2.033   0.000  0.00  0.00    +0.000 C 
BRANCH  14  16
ATOM     16  C   UNL     1      -1.282  -3.260   0.000  0.00  0.00    +0.000 A 
ATOM     17  C   UNL     1      -2.008  -3.653   0.000  0.00  0.00    +0.000 A 
ATOM     18  C   UNL     1      -2.038  -4.478   0.000  0.00  0.00    +0.000 A 
ATOM     19  C   UNL     1      -1.331  -4.910   0.000  0.00  0.00    +0.000 A 
ATOM     20  C   UNL     1      -0.604  -4.518   0.000  0.00  0.00    +0.000 A 
ATOM     21  C   UNL     1      -0.584  -3.702   0.000  0.00  0.00    +0.000 A 
ENDBRANCH  14  16
ENDBRANCH  13  14
ENDBRANCH   2   7
BRANCH   5  22
ATOM     22  C   UNL     1       1.380   1.473   0.000  0.00  0.00    +0.000 C 
ATOM     23  C   UNL     1       2.617   2.190   0.000  0.00  0.00    +0.000 C 
ATOM     24  C   UNL     1       1.792   2.190   0.000  0.00  0.00    +0.000 C 
ATOM     25  C   UNL     1       1.792   0.766   0.000  0.00  0.00    +0.000 C 
ATOM     26  C   UNL     1       2.617   0.766   0.000  0.00  0.00    +0.000 C 
ATOM     27  N   UNL     1       3.020   1.473   0.000  0.00  0.00    +0.000 NA
ENDBRANCH   5  22
BRANCH   1  33
ATOM     28  C   UNL     1      -2.195   3.260   0.000  0.00  0.00    +0.000 A 
ATOM     29  C   UNL     1      -2.912   2.848   0.000  0.00  0.00    +0.000 A 
ATOM     30  C   UNL     1      -2.912   2.033   0.000  0.00  0.00    +0.000 A 
ATOM     31  C   UNL     1      -2.195   1.620   0.000  0.00  0.00    +0.000 A 
ATOM     32  C   UNL     1      -1.488   2.848   0.000  0.00  0.00    +0.000 A 
ATOM     33  C   UNL     1      -1.488   2.033   0.000  0.00  0.00    +0.000 A 
BRANCH  28  34
ATOM     34  C   UNL     1      -2.195   4.085   0.000  0.00  0.00    +0.000 C 
ATOM     35  F   UNL     1      -2.195   4.910   0.000  0.00  0.00    +0.000 F 
ATOM     36  F   UNL     1      -1.370   4.085   0.000  0.00  0.00    +0.000 F 
ATOM     37  F   UNL     1      -3.020   4.085   0.000  0.00  0.00    +0.000 F 
ENDBRANCH  28  34
ENDBRANCH   1  33
TORSDOF 6
