REMARK  Name = 
REMARK  3 active torsions:
REMARK  status: ('A' for Active; 'I' for Inactive)
REMARK    1  A    between atoms: C_1  and  C_2
REMARK    2  A    between atoms: C_1  and  O_6
REMARK    3  A    between atoms: O_6  and  P_7
REMARK                            x       y       z     vdW  Elec       q    Type
REMARK                         _______ _______ _______ _____ _____    ______ ____
ROOT
ATOM      1  C   UNL     1       0.111  -1.238   0.000  0.00  0.00    +0.000 C 
ENDROOT
BRANCH   1   2
ATOM      2  C   UNL     1       0.111  -2.062   0.000  0.00  0.00    +0.000 C 
ATOM      3 CL   UNL     1       0.111  -2.888   0.000  0.00  0.00    +0.000 Cl
ATOM      4 CL   UNL     1       0.935  -2.062   0.000  0.00  0.00    +0.000 Cl
ATOM      5 CL   UNL     1      -0.715  -2.062   0.000  0.00  0.00    +0.000 Cl
ENDBRANCH   1   2
BRANCH   1   6
ATOM      6  O   UNL     1       0.825  -0.825   0.000  0.00  0.00    +0.000 OA
BRANCH   6   7
ATOM      7  P   UNL     1       0.825   0.000   0.000  0.00  0.00    +0.000 P 
ATOM      8  O   UNL     1       0.825   0.825   0.000  0.00  0.00    +0.000 OA
ATOM      9  O   UNL     1       1.650   0.000   0.000  0.00  0.00    +0.000 OA
ATOM     10  O   UNL     1       0.000   0.000   0.000  0.00  0.00    +0.000 OA
ENDBRANCH   6   7
ENDBRANCH   1   6
TORSDOF 3
