REMARK  Name = 
REMARK  13 active torsions:
REMARK  status: ('A' for Active; 'I' for Inactive)
REMARK    1  A    between atoms: O_2  and  C_23
REMARK    2  A    between atoms: O_2  and  C_31
REMARK    3  A    between atoms: N_10  and  C_24
REMARK    4  A    between atoms: N_11  and  C_25
REMARK    5  A    between atoms: N_12  and  C_29
REMARK    6  A    between atoms: N_13  and  C_30
REMARK    7  A    between atoms: N_14  and  C_36
REMARK    8  A    between atoms: C_17  and  C_26
REMARK    9  A    between atoms: C_24  and  C_27
REMARK   10  A    between atoms: C_25  and  C_28
REMARK   11  A    between atoms: C_27  and  C_29
REMARK   12  A    between atoms: C_28  and  C_30
REMARK   13  A    between atoms: C_33  and  C_34
REMARK                            x       y       z     vdW  Elec       q    Type
REMARK                         _______ _______ _______ _____ _____    ______ ____
ROOT
ATOM      1  C   UNL     1       1.293  -3.143   0.000  0.00  0.00    +0.000 A 
ATOM      2  C   UNL     1       0.579  -2.731   0.000  0.00  0.00    +0.000 A 
ATOM      3  C   UNL     1       0.579  -1.906   0.000  0.00  0.00    +0.000 A 
ATOM      4  C   UNL     1       2.008  -2.731   0.000  0.00  0.00    +0.000 A 
ATOM      5  C   UNL     1       2.008  -1.906   0.000  0.00  0.00    +0.000 A 
ATOM      6  C   UNL     1       1.293  -1.493   0.000  0.00  0.00    +0.000 A 
ENDROOT
BRANCH   3   9
ATOM      7  O   UNL     1      -0.850  -1.906   0.000  0.00  0.00    +0.000 OA
ATOM      8  N   UNL     1      -0.136  -0.668   0.000  0.00  0.00    +0.000 N 
ATOM      9  C   UNL     1      -0.136  -1.493   0.000  0.00  0.00    +0.000 C 
ATOM     10  H   UNL     1       0.307  -0.412   0.000  0.00  0.00    +0.000 HD
BRANCH   8  11
ATOM     11  C   UNL     1      -0.850  -0.256   0.000  0.00  0.00    +0.000 C 
BRANCH  11  12
ATOM     12  C   UNL     1      -0.850   0.569   0.000  0.00  0.00    +0.000 C 
BRANCH  12  13
ATOM     13  C   UNL     1      -1.565   0.982   0.000  0.00  0.00    +0.000 C 
BRANCH  13  14
ATOM     14  N   UNL     1      -1.565   1.807   0.000  0.00  0.00    +0.000 NA
ATOM     15  N   UNL     1      -1.565   3.457   0.000  0.00  0.00    +0.000 NA
ATOM     16  C   UNL     1      -2.279   2.219   0.000  0.00  0.00    +0.000 C 
ATOM     17  C   UNL     1      -0.850   2.219   0.000  0.00  0.00    +0.000 C 
ATOM     18  C   UNL     1      -2.279   3.044   0.000  0.00  0.00    +0.000 C 
ATOM     19  C   UNL     1      -0.850   3.044   0.000  0.00  0.00    +0.000 C 
BRANCH  15  20
ATOM     20  C   UNL     1      -1.565   4.282   0.000  0.00  0.00    +0.000 C 
BRANCH  20  21
ATOM     21  C   UNL     1      -2.279   4.694   0.000  0.00  0.00    +0.000 C 
BRANCH  21  22
ATOM     22  C   UNL     1      -2.279   5.519   0.000  0.00  0.00    +0.000 C 
BRANCH  22  23
ATOM     23  N   UNL     1      -2.994   5.932   0.000  0.00  0.00    +0.000 NA
ATOM     24  H   UNL     1      -3.437   5.676   0.000  0.00  0.00    +0.000 HD
ATOM     25  H   UNL     1      -2.994   6.443   0.000  0.00  0.00    +0.000 HD
ENDBRANCH  22  23
ENDBRANCH  21  22
ENDBRANCH  20  21
ENDBRANCH  15  20
ENDBRANCH  13  14
ENDBRANCH  12  13
ENDBRANCH  11  12
ENDBRANCH   8  11
ENDBRANCH   3   9
BRANCH   5  28
ATOM     26  O   UNL     1       2.722  -0.668   0.000  0.00  0.00    +0.000 OA
ATOM     27  O   UNL     1       3.437  -1.906   0.000  0.00  0.00    +0.000 OA
ATOM     28  N   UNL     1       2.722  -1.493   0.000  0.00  0.00    +0.000 N 
ENDBRANCH   5  28
BRANCH   1  29
ATOM     29  O   UNL     1       1.293  -3.968   0.000  0.00  0.00    +0.000 OA
BRANCH  29  38
ATOM     30  O   UNL     1      -0.136  -3.968   0.000  0.00  0.00    +0.000 OA
ATOM     31  O   UNL     1      -1.565  -5.618   0.000  0.00  0.00    +0.000 OA
ATOM     32  O   UNL     1      -0.136  -6.443   0.000  0.00  0.00    +0.000 OA
ATOM     33  O   UNL     1       1.293  -5.618   0.000  0.00  0.00    +0.000 OA
ATOM     34  C   UNL     1      -0.850  -5.206   0.000  0.00  0.00    +0.000 C 
ATOM     35  C   UNL     1      -0.136  -5.618   0.000  0.00  0.00    +0.000 C 
ATOM     36  C   UNL     1      -0.850  -4.381   0.000  0.00  0.00    +0.000 C 
ATOM     37  C   UNL     1       0.579  -5.206   0.000  0.00  0.00    +0.000 C 
ATOM     38  C   UNL     1       0.579  -4.381   0.000  0.00  0.00    +0.000 C 
BRANCH  36  40
ATOM     39  O   UNL     1      -1.565  -3.143   0.000  0.00  0.00    +0.000 OA
ATOM     40  C   UNL     1      -1.565  -3.968   0.000  0.00  0.00    +0.000 C 
ENDBRANCH  36  40
ENDBRANCH  29  38
ENDBRANCH   1  29
TORSDOF 13
