REMARK  Name = 
REMARK  0 active torsions:
REMARK  status: ('A' for Active; 'I' for Inactive)
REMARK                            x       y       z     vdW  Elec       q    Type
REMARK                         _______ _______ _______ _____ _____    ______ ____
ROOT
ATOM      1  O   UNL     1      -1.190   0.458   0.000  0.00  0.00    +0.000 OA
ATOM      2  O   UNL     1       0.460   0.458   0.000  0.00  0.00    +0.000 OA
ATOM      3 TI   UNL     1      -0.364   0.458   0.000  0.00  0.00    +0.000 Ti
ENDROOT
TORSDOF 0
