REMARK  Name = 
REMARK  24 active torsions:
REMARK  status: ('A' for Active; 'I' for Inactive)
REMARK    1  A    between atoms: N_2  and  C_4
REMARK    2  A    between atoms: C_4  and  C_5
REMARK    3  A    between atoms: C_5  and  N_6
REMARK    4  A    between atoms: C_7  and  C_9
REMARK    5  A    between atoms: C_9  and  O_10
REMARK    6  A    between atoms: O_10  and  C_11
REMARK    7  A    between atoms: C_23  and  O_24
REMARK    8  A    between atoms: O_24  and  C_25
REMARK    9  A    between atoms: C_25  and  C_26
REMARK   10  A    between atoms: N_28  and  C_29
REMARK   11  A    between atoms: C_29  and  C_30
REMARK   12  A    between atoms: C_30  and  N_31
REMARK   13  A    between atoms: C_40  and  O_41
REMARK   14  A    between atoms: O_41  and  C_42
REMARK   15  A    between atoms: C_42  and  C_43
REMARK   16  A    between atoms: N_45  and  C_46
REMARK   17  A    between atoms: C_46  and  C_47
REMARK   18  A    between atoms: C_47  and  N_48
REMARK   19  A    between atoms: C_57  and  O_58
REMARK   20  A    between atoms: O_58  and  C_59
REMARK   21  A    between atoms: C_59  and  C_60
REMARK   22  A    between atoms: N_62  and  C_63
REMARK   23  A    between atoms: C_63  and  C_64
REMARK   24  A    between atoms: C_64  and  N_65
REMARK                            x       y       z     vdW  Elec       q    Type
REMARK                         _______ _______ _______ _____ _____    ______ ____
ROOT
ATOM      1  C   UNL     1       0.247   5.724   0.000  0.00  0.00    +0.000 A 
ATOM      2  C   UNL     1       0.735   5.059   0.000  0.00  0.00    +0.000 A 
ATOM      3  C   UNL     1       1.555   5.149   0.000  0.00  0.00    +0.000 A 
ATOM      4  C   UNL     1       1.887   5.904   0.000  0.00  0.00    +0.000 A 
ATOM      5  C   UNL     1       1.399   6.569   0.000  0.00  0.00    +0.000 A 
ATOM      6  C   UNL     1       0.579   6.479   0.000  0.00  0.00    +0.000 A 
ATOM      7  C   UNL     1       0.048   7.111   0.000  0.00  0.00    +0.000 C 
ATOM      8  C   UNL     1      -0.872   7.470   0.000  0.00  0.00    +0.000 A 
ATOM      9  C   UNL     1      -0.963   8.290   0.000  0.00  0.00    +0.000 A 
ATOM     10  C   UNL     1      -1.718   8.622   0.000  0.00  0.00    +0.000 A 
ATOM     11  C   UNL     1      -2.383   8.134   0.000  0.00  0.00    +0.000 A 
ATOM     12  C   UNL     1      -2.293   7.314   0.000  0.00  0.00    +0.000 A 
ATOM     13  C   UNL     1      -1.537   6.982   0.000  0.00  0.00    +0.000 A 
ATOM     14  C   UNL     1      -2.924   6.783   0.000  0.00  0.00    +0.000 C 
ATOM     15  C   UNL     1      -3.284   5.863   0.000  0.00  0.00    +0.000 A 
ATOM     16  C   UNL     1      -4.104   5.772   0.000  0.00  0.00    +0.000 A 
ATOM     17  C   UNL     1      -4.436   5.017   0.000  0.00  0.00    +0.000 A 
ATOM     18  C   UNL     1      -3.948   4.352   0.000  0.00  0.00    +0.000 A 
ATOM     19  C   UNL     1      -3.128   4.442   0.000  0.00  0.00    +0.000 A 
ATOM     20  C   UNL     1      -2.796   5.198   0.000  0.00  0.00    +0.000 A 
ATOM     21  C   UNL     1      -2.597   3.811   0.000  0.00  0.00    +0.000 C 
ATOM     22  C   UNL     1      -1.677   3.451   0.000  0.00  0.00    +0.000 A 
ATOM     23  C   UNL     1      -1.767   4.271   0.000  0.00  0.00    +0.000 A 
ATOM     24  C   UNL     1      -1.102   4.760   0.000  0.00  0.00    +0.000 A 
ATOM     25  C   UNL     1      -0.347   4.428   0.000  0.00  0.00    +0.000 A 
ATOM     26  C   UNL     1      -0.256   3.608   0.000  0.00  0.00    +0.000 A 
ATOM     27  C   UNL     1      -0.921   3.119   0.000  0.00  0.00    +0.000 A 
ATOM     28  C   UNL     1       0.375   4.138   0.000  0.00  0.00    +0.000 C 
ENDROOT
BRANCH  13  29
ATOM     29  O   UNL     1      -1.985   6.304   0.000  0.00  0.00    +0.000 OA
BRANCH  29  30
ATOM     30  C   UNL     1      -2.742   5.806   0.000  0.00  0.00    +0.000 C 
BRANCH  30  31
ATOM     31  C   UNL     1      -3.277   4.957   0.000  0.00  0.00    +0.000 C 
ATOM     32  O   UNL     1      -2.284   5.174   0.000  0.00  0.00    +0.000 OA
ATOM     33  N   UNL     1      -3.679   3.904   0.000  0.00  0.00    +0.000 NA
BRANCH  33  34
ATOM     34  C   UNL     1      -4.427   3.293   0.000  0.00  0.00    +0.000 C 
BRANCH  34  35
ATOM     35  C   UNL     1      -5.195   2.804   0.000  0.00  0.00    +0.000 C 
BRANCH  35  36
ATOM     36  N   UNL     1      -5.419   1.931   0.000  0.00  0.00    +0.000 NA
ATOM     37  C   UNL     1      -5.004   1.188   0.000  0.00  0.00    +0.000 C 
ATOM     38  C   UNL     1      -6.072   1.391   0.000  0.00  0.00    +0.000 C 
ENDBRANCH  35  36
ENDBRANCH  34  35
ENDBRANCH  33  34
ENDBRANCH  30  31
ENDBRANCH  29  30
ENDBRANCH  13  29
BRANCH   1  39
ATOM     39  O   UNL     1      -0.170   6.607   0.000  0.00  0.00    +0.000 OA
BRANCH  39  40
ATOM     40  C   UNL     1      -0.294   7.656   0.000  0.00  0.00    +0.000 C 
BRANCH  40  42
ATOM     41  N   UNL     1      -0.031   9.440   0.000  0.00  0.00    +0.000 NA
ATOM     42  C   UNL     1       0.106   8.534   0.000  0.00  0.00    +0.000 C 
ATOM     43  O   UNL     1       0.949   8.750   0.000  0.00  0.00    +0.000 OA
BRANCH  41  44
ATOM     44  C   UNL     1       0.102  10.312   0.000  0.00  0.00    +0.000 C 
BRANCH  44  45
ATOM     45  C   UNL     1      -0.470  10.992   0.000  0.00  0.00    +0.000 C 
BRANCH  45  47
ATOM     46  C   UNL     1      -1.296  12.415   0.000  0.00  0.00    +0.000 C 
ATOM     47  N   UNL     1      -0.658  11.842   0.000  0.00  0.00    +0.000 NA
ATOM     48  C   UNL     1       0.092  12.228   0.000  0.00  0.00    +0.000 C 
ENDBRANCH  45  47
ENDBRANCH  44  45
ENDBRANCH  41  44
ENDBRANCH  40  42
ENDBRANCH  39  40
ENDBRANCH   1  39
BRANCH  27  49
ATOM     49  O   UNL     1      -0.217   2.528   0.000  0.00  0.00    +0.000 OA
BRANCH  49  50
ATOM     50  C   UNL     1       0.559   2.059   0.000  0.00  0.00    +0.000 C 
BRANCH  50  51
ATOM     51  C   UNL     1       1.430   1.942   0.000  0.00  0.00    +0.000 C 
ATOM     52  O   UNL     1       1.776   2.708   0.000  0.00  0.00    +0.000 OA
ATOM     53  N   UNL     1       2.207   1.532   0.000  0.00  0.00    +0.000 NA
BRANCH  53  54
ATOM     54  C   UNL     1       3.032   1.817   0.000  0.00  0.00    +0.000 C 
BRANCH  54  55
ATOM     55  C   UNL     1       3.900   1.881   0.000  0.00  0.00    +0.000 C 
BRANCH  55  56
ATOM     56  N   UNL     1       4.487   2.528   0.000  0.00  0.00    +0.000 NA
ATOM     57  C   UNL     1       4.490   3.387   0.000  0.00  0.00    +0.000 C 
ATOM     58  C   UNL     1       5.314   2.339   0.000  0.00  0.00    +0.000 C 
ENDBRANCH  55  56
ENDBRANCH  54  55
ENDBRANCH  53  54
ENDBRANCH  50  51
ENDBRANCH  49  50
ENDBRANCH  27  49
BRANCH  20  59
ATOM     59  O   UNL     1      -2.224   4.401   0.000  0.00  0.00    +0.000 OA
BRANCH  59  60
ATOM     60  C   UNL     1      -2.135   3.378   0.000  0.00  0.00    +0.000 C 
BRANCH  60  61
ATOM     61  C   UNL     1      -2.109   2.420   0.000  0.00  0.00    +0.000 C 
ATOM     62  O   UNL     1      -2.821   1.949   0.000  0.00  0.00    +0.000 OA
ATOM     63  N   UNL     1      -1.878   1.548   0.000  0.00  0.00    +0.000 NA
BRANCH  63  64
ATOM     64  C   UNL     1      -2.025   0.682   0.000  0.00  0.00    +0.000 C 
BRANCH  64  65
ATOM     65  C   UNL     1      -1.725  -0.141   0.000  0.00  0.00    +0.000 C 
BRANCH  65  66
ATOM     66  N   UNL     1      -2.096  -0.919   0.000  0.00  0.00    +0.000 NA
ATOM     67  C   UNL     1      -1.625  -1.626   0.000  0.00  0.00    +0.000 C 
ATOM     68  C   UNL     1      -2.913  -1.159   0.000  0.00  0.00    +0.000 C 
ENDBRANCH  65  66
ENDBRANCH  64  65
ENDBRANCH  63  64
ENDBRANCH  60  61
ENDBRANCH  59  60
ENDBRANCH  20  59
TORSDOF 24
