REMARK  Name = 
REMARK  12 active torsions:
REMARK  status: ('A' for Active; 'I' for Inactive)
REMARK    1  A    between atoms: C_2  and  C_4
REMARK    2  A    between atoms: C_4  and  C_5
REMARK    3  A    between atoms: C_4  and  N_70
REMARK    4  A    between atoms: C_15  and  C_16
REMARK    5  A    between atoms: C_20  and  C_25
REMARK    6  A    between atoms: C_37  and  C_39
REMARK    7  A    between atoms: C_46  and  C_48
REMARK    8  A    between atoms: C_57  and  C_59
REMARK    9  A    between atoms: C_59  and  C_60
REMARK   10  A    between atoms: C_59  and  N_63
REMARK   11  A    between atoms: C_64  and  O_66
REMARK   12  A    between atoms: C_71  and  O_73
REMARK                            x       y       z     vdW  Elec       q    Type
REMARK                         _______ _______ _______ _____ _____    ______ ____
ROOT
ATOM      1  C   UNL     1       5.483   0.825   0.000  0.00  0.00    +0.000 A 
ATOM      2  C   UNL     1       5.483   0.000   0.000  0.00  0.00    +0.000 A 
ATOM      3  C   UNL     1       5.070  -0.715   0.000  0.00  0.00    +0.000 A 
ATOM      4  C   UNL     1       4.882   0.037   0.000  0.00  0.00    +0.000 A 
ATOM      5  C   UNL     1       4.882   0.788   0.000  0.00  0.00    +0.000 A 
ATOM      6  C   UNL     1       5.070   1.540   0.000  0.00  0.00    +0.000 A 
ATOM      7  C   UNL     1       4.356   1.952   0.000  0.00  0.00    +0.000 C 
ATOM      8  C   UNL     1       3.531   1.952   0.000  0.00  0.00    +0.000 C 
ATOM      9  C   UNL     1       2.816   1.540   0.000  0.00  0.00    +0.000 A 
ATOM     10  C   UNL     1       3.004   0.788   0.000  0.00  0.00    +0.000 A 
ATOM     11  C   UNL     1       3.004   0.037   0.000  0.00  0.00    +0.000 A 
ATOM     12  C   UNL     1       2.816  -0.715   0.000  0.00  0.00    +0.000 A 
ATOM     13  C   UNL     1       2.404   0.000   0.000  0.00  0.00    +0.000 A 
ATOM     14  C   UNL     1       2.404   0.825   0.000  0.00  0.00    +0.000 A 
ATOM     15  C   UNL     1       3.531  -1.127   0.000  0.00  0.00    +0.000 C 
ATOM     16  C   UNL     1       4.356  -1.127   0.000  0.00  0.00    +0.000 C 
ENDROOT
BRANCH  13  17
ATOM     17  C   UNL     1       1.607  -0.213   0.000  0.00  0.00    +0.000 A 
ATOM     18  C   UNL     1       1.024   0.370   0.000  0.00  0.00    +0.000 A 
ATOM     19  C   UNL     1       0.227   0.156   0.000  0.00  0.00    +0.000 A 
ATOM     20  C   UNL     1       0.013  -0.641   0.000  0.00  0.00    +0.000 A 
ATOM     21  C   UNL     1       0.596  -1.224   0.000  0.00  0.00    +0.000 A 
ATOM     22  C   UNL     1       1.393  -1.010   0.000  0.00  0.00    +0.000 A 
ATOM     23  N   UNL     1       0.222  -1.959   0.000  0.00  0.00    +0.000 NA
ATOM     24  C   UNL     1      -0.593  -1.830   0.000  0.00  0.00    +0.000 A 
ATOM     25  N   UNL     1      -0.722  -1.015   0.000  0.00  0.00    +0.000 NA
BRANCH  24  26
ATOM     26  C   UNL     1      -1.176  -2.413   0.000  0.00  0.00    +0.000 C 
ATOM     27  C   UNL     1      -1.047  -3.228   0.000  0.00  0.00    +0.000 C 
ATOM     28  C   UNL     1      -1.782  -3.603   0.000  0.00  0.00    +0.000 C 
ATOM     29  C   UNL     1      -1.996  -4.400   0.000  0.00  0.00    +0.000 C 
ATOM     30  C   UNL     1      -2.793  -4.613   0.000  0.00  0.00    +0.000 C 
ATOM     31  C   UNL     1      -3.376  -4.030   0.000  0.00  0.00    +0.000 C 
ATOM     32  C   UNL     1      -3.163  -3.233   0.000  0.00  0.00    +0.000 C 
ATOM     33  C   UNL     1      -2.366  -3.019   0.000  0.00  0.00    +0.000 C 
ATOM     34  N   UNL     1      -1.991  -2.284   0.000  0.00  0.00    +0.000 N 
ATOM     35  C   UNL     1      -2.366  -1.549   0.000  0.00  0.00    +0.000 C 
ATOM     36  O   UNL     1      -1.916  -0.857   0.000  0.00  0.00    +0.000 OA
BRANCH  35  37
ATOM     37  C   UNL     1      -3.190  -1.506   0.000  0.00  0.00    +0.000 C 
BRANCH  37  38
ATOM     38  N   UNL     1      -3.564  -0.771   0.000  0.00  0.00    +0.000 NA
ATOM     39  C   UNL     1      -4.388  -0.728   0.000  0.00  0.00    +0.000 C 
ATOM     40  O   UNL     1      -4.837  -1.420   0.000  0.00  0.00    +0.000 OA
BRANCH  39  41
ATOM     41  O   UNL     1      -4.763   0.007   0.000  0.00  0.00    +0.000 OA
ATOM     42  C   UNL     1      -5.586   0.051   0.000  0.00  0.00    +0.000 C 
ENDBRANCH  39  41
ENDBRANCH  37  38
BRANCH  37  43
ATOM     43  C   UNL     1      -3.639  -2.198   0.000  0.00  0.00    +0.000 C 
ATOM     44  C   UNL     1      -3.264  -2.933   0.000  0.00  0.00    +0.000 C 
ATOM     45  C   UNL     1      -4.463  -2.155   0.000  0.00  0.00    +0.000 C 
ENDBRANCH  37  43
ENDBRANCH  35  37
ENDBRANCH  24  26
ENDBRANCH  13  17
BRANCH   1  50
ATOM     46  C   UNL     1       8.479   2.655   0.000  0.00  0.00    +0.000 A 
ATOM     47  N   UNL     1       7.665   2.784   0.000  0.00  0.00    +0.000 NA
ATOM     48  C   UNL     1       7.290   2.049   0.000  0.00  0.00    +0.000 A 
ATOM     49  C   UNL     1       6.493   1.835   0.000  0.00  0.00    +0.000 A 
ATOM     50  C   UNL     1       6.280   1.038   0.000  0.00  0.00    +0.000 A 
ATOM     51  C   UNL     1       6.863   0.455   0.000  0.00  0.00    +0.000 A 
ATOM     52  C   UNL     1       7.660   0.669   0.000  0.00  0.00    +0.000 A 
ATOM     53  C   UNL     1       7.873   1.466   0.000  0.00  0.00    +0.000 A 
ATOM     54  N   UNL     1       8.608   1.840   0.000  0.00  0.00    +0.000 NA
BRANCH  46  65
ATOM     55  C   UNL     1      10.252   2.374   0.000  0.00  0.00    +0.000 C 
ATOM     56  O   UNL     1      11.076   2.331   0.000  0.00  0.00    +0.000 OA
ATOM     57  N   UNL     1       9.878   3.109   0.000  0.00  0.00    +0.000 N 
ATOM     58  C   UNL     1      10.252   3.844   0.000  0.00  0.00    +0.000 C 
ATOM     59  C   UNL     1      11.049   4.058   0.000  0.00  0.00    +0.000 C 
ATOM     60  C   UNL     1      11.262   4.855   0.000  0.00  0.00    +0.000 C 
ATOM     61  C   UNL     1      10.679   5.438   0.000  0.00  0.00    +0.000 C 
ATOM     62  C   UNL     1       9.882   5.225   0.000  0.00  0.00    +0.000 C 
ATOM     63  C   UNL     1       9.669   4.428   0.000  0.00  0.00    +0.000 C 
ATOM     64  C   UNL     1       8.934   4.053   0.000  0.00  0.00    +0.000 C 
ATOM     65  C   UNL     1       9.063   3.238   0.000  0.00  0.00    +0.000 C 
BRANCH  55  66
ATOM     66  C   UNL     1       9.803   1.682   0.000  0.00  0.00    +0.000 C 
BRANCH  66  68
ATOM     67  C   UNL     1       8.530   1.034   0.000  0.00  0.00    +0.000 C 
ATOM     68  C   UNL     1       8.979   1.726   0.000  0.00  0.00    +0.000 C 
ATOM     69  C   UNL     1       8.687   2.378   0.000  0.00  0.00    +0.000 C 
ENDBRANCH  66  68
BRANCH  66  70
ATOM     70  N   UNL     1      10.177   0.947   0.000  0.00  0.00    +0.000 NA
ATOM     71  C   UNL     1       9.728   0.255   0.000  0.00  0.00    +0.000 C 
ATOM     72  O   UNL     1       8.904   0.298   0.000  0.00  0.00    +0.000 OA
BRANCH  71  73
ATOM     73  O   UNL     1      10.102  -0.480   0.000  0.00  0.00    +0.000 OA
ATOM     74  C   UNL     1      10.926  -0.523   0.000  0.00  0.00    +0.000 C 
ENDBRANCH  71  73
ENDBRANCH  66  70
ENDBRANCH  55  66
ENDBRANCH  46  65
ENDBRANCH   1  50
TORSDOF 12
