REMARK  Name = 
REMARK  20 active torsions:
REMARK  status: ('A' for Active; 'I' for Inactive)
REMARK    1  A    between atoms: N_15  and  C_16
REMARK    2  A    between atoms: C_16  and  C_17
REMARK    3  A    between atoms: C_17  and  C_18
REMARK    4  A    between atoms: C_18  and  C_20
REMARK    5  A    between atoms: C_20  and  C_22
REMARK    6  A    between atoms: C_22  and  O_24
REMARK    7  A    between atoms: O_24  and  P_27
REMARK    8  A    between atoms: P_27  and  O_28
REMARK    9  A    between atoms: O_28  and  C_29
REMARK   10  A    between atoms: C_29  and  C_30
REMARK   11  A    between atoms: N_31  and  CA_44
REMARK   12  A    between atoms: CB_36  and  CG_38
REMARK   13  A    between atoms: CB_36  and  CA_44
REMARK   14  A    between atoms: C_37  and  CA_44
REMARK   15  A    between atoms: CG_38  and  CD_41
REMARK   16  A    between atoms: N_42  and  CA_53
REMARK   17  A    between atoms: CB_45  and  CG_47
REMARK   18  A    between atoms: CB_45  and  CA_53
REMARK   19  A    between atoms: C_46  and  CA_53
REMARK   20  A    between atoms: CG_47  and  CD_50
REMARK                            x       y       z     vdW  Elec       q    Type
REMARK                         _______ _______ _______ _____ _____    ______ ____
ROOT
ATOM      1  P   UNK A   0      -2.141  -2.061   0.000  0.00  0.00    +0.000 P 
ATOM      2  O   UNK A   0      -2.141  -1.236   0.000  0.00  0.00    +0.000 OA
ATOM      3  O   UNK A   0      -2.350  -2.856   0.000  0.00  0.00    +0.000 OA
ENDROOT
BRANCH   1   4
ATOM      4  O   UNK A   0      -1.426  -2.474   0.000  0.00  0.00    +0.000 OA
BRANCH   4   5
ATOM      5  C   UNK A   0      -0.712  -2.061   0.000  0.00  0.00    +0.000 C 
ATOM      6  C   UNK A   0      -0.712  -1.236   0.000  0.00  0.00    +0.000 C 
BRANCH   5   7
ATOM      7  C   UNK A   0       0.003  -2.473   0.000  0.00  0.00    +0.000 C 
ATOM      8  N   GLU A   1       0.717  -2.061   0.000  0.00  0.00    +0.000 NA
ATOM      9  O   UNK A   0       0.003  -3.298   0.000  0.00  0.00    +0.000 OA
BRANCH   8  10
ATOM     10  CA  GLU A   1       1.431  -2.473   0.000  0.00  0.00    +0.000 C 
BRANCH  10  11
ATOM     11  C   GLU A   1       1.431  -3.298   0.000  0.00  0.00    +0.000 C 
ATOM     12  O   GLU A   1       0.717  -3.711   0.000  0.00  0.00    +0.000 OA
ATOM     13  OXT GLU A   1       2.146  -3.711   0.000  0.00  0.00    +0.000 OA
ENDBRANCH  10  11
BRANCH  10  14
ATOM     14  CB  GLU A   1       2.146  -2.061   0.000  0.00  0.00    +0.000 C 
BRANCH  14  15
ATOM     15  CG  GLU A   1       2.860  -2.473   0.000  0.00  0.00    +0.000 C 
BRANCH  15  16
ATOM     16  CD  GLU A   1       3.575  -2.061   0.000  0.00  0.00    +0.000 C 
ATOM     17  N   GLU A   1       4.289  -2.473   0.000  0.00  0.00    +0.000 NA
ATOM     18  OE1 GLU A   1       3.575  -1.236   0.000  0.00  0.00    +0.000 OA
BRANCH  17  19
ATOM     19  CA  GLU A   1       5.004  -2.061   0.000  0.00  0.00    +0.000 C 
BRANCH  19  20
ATOM     20  C   GLU A   1       5.004  -1.236   0.000  0.00  0.00    +0.000 C 
ATOM     21  O   GLU A   1       4.289  -0.823   0.000  0.00  0.00    +0.000 OA
ATOM     22  OXT GLU A   1       5.718  -0.823   0.000  0.00  0.00    +0.000 OA
ENDBRANCH  19  20
BRANCH  19  23
ATOM     23  CB  GLU A   1       5.718  -2.473   0.000  0.00  0.00    +0.000 C 
BRANCH  23  24
ATOM     24  CG  GLU A   1       6.433  -2.061   0.000  0.00  0.00    +0.000 C 
BRANCH  24  25
ATOM     25  CD  GLU A   1       7.147  -2.473   0.000  0.00  0.00    +0.000 C 
ATOM     26  OE1 GLU A   1       7.862  -2.061   0.000  0.00  0.00    +0.000 OA
ATOM     27  OE2 GLU A   1       7.147  -3.298   0.000  0.00  0.00    +0.000 OA
ENDBRANCH  24  25
ENDBRANCH  23  24
ENDBRANCH  19  23
ENDBRANCH  17  19
ENDBRANCH  15  16
ENDBRANCH  14  15
ENDBRANCH  10  14
ENDBRANCH   8  10
ENDBRANCH   5   7
ENDBRANCH   4   5
ENDBRANCH   1   4
BRANCH   1  28
ATOM     28  O   UNK A   0      -2.860  -2.477   0.000  0.00  0.00    +0.000 OA
BRANCH  28  29
ATOM     29  C   UNK A   0      -3.575  -2.064   0.000  0.00  0.00    +0.000 C 
BRANCH  29  30
ATOM     30  C   UNK A   0      -3.575  -1.239   0.000  0.00  0.00    +0.000 C 
ATOM     31  O   UNK A   0      -2.860  -0.827   0.000  0.00  0.00    +0.000 OA
BRANCH  30  32
ATOM     32  C   UNK A   0      -4.289  -0.827   0.000  0.00  0.00    +0.000 C 
ATOM     33  O   UNK A   0      -5.004  -1.239   0.000  0.00  0.00    +0.000 OA
BRANCH  32  34
ATOM     34  C   UNK A   0      -4.289  -0.002   0.000  0.00  0.00    +0.000 C 
ATOM     35  O   UNK A   0      -3.575   0.411   0.000  0.00  0.00    +0.000 OA
BRANCH  34  36
ATOM     36  C   UNK A   0      -5.004   0.411   0.000  0.00  0.00    +0.000 C 
BRANCH  36  51
ATOM     37  C   UNK A   0      -4.289   1.648   0.000  0.00  0.00    +0.000 A 
ATOM     38  C   UNK A   0      -4.289   2.473   0.000  0.00  0.00    +0.000 A 
ATOM     39  C   UNK A   0      -5.718   1.648   0.000  0.00  0.00    +0.000 A 
ATOM     40  C   UNK A   0      -5.718   2.473   0.000  0.00  0.00    +0.000 A 
ATOM     41  C   UNK A   0      -6.433   1.236   0.000  0.00  0.00    +0.000 A 
ATOM     42  C   UNK A   0      -6.433   2.886   0.000  0.00  0.00    +0.000 A 
ATOM     43  C   UNK A   0      -7.147   2.473   0.000  0.00  0.00    +0.000 A 
ATOM     44  C   UNK A   0      -7.147   1.648   0.000  0.00  0.00    +0.000 A 
ATOM     45  C   UNK A   0      -2.860   1.648   0.000  0.00  0.00    +0.000 A 
ATOM     46  N   UNK A   0      -3.575   1.236   0.000  0.00  0.00    +0.000 NA
ATOM     47  C   UNK A   0      -3.575   2.886   0.000  0.00  0.00    +0.000 A 
ATOM     48  O   UNK A   0      -3.575   3.711   0.000  0.00  0.00    +0.000 OA
ATOM     49  O   UNK A   0      -2.146   1.236   0.000  0.00  0.00    +0.000 OA
ATOM     50  N   UNK A   0      -2.860   2.473   0.000  0.00  0.00    +0.000 NA
ATOM     51  N   UNK A   0      -5.004   1.236   0.000  0.00  0.00    +0.000 N 
ATOM     52  O   UNK A   0      -7.862   1.236   0.000  0.00  0.00    +0.000 OA
ATOM     53  C   UNK A   0      -5.004   2.886   0.000  0.00  0.00    +0.000 A 
ENDBRANCH  36  51
ENDBRANCH  34  36
ENDBRANCH  32  34
ENDBRANCH  30  32
ENDBRANCH  29  30
ENDBRANCH  28  29
ENDBRANCH   1  28
TORSDOF 20
