REMARK  Name = 
REMARK  2 active torsions:
REMARK  status: ('A' for Active; 'I' for Inactive)
REMARK    1  A    between atoms: C_1  and  C_5
REMARK    2  A    between atoms: N_2  and  C_3
REMARK                            x       y       z     vdW  Elec       q    Type
REMARK                         _______ _______ _______ _____ _____    ______ ____
ROOT
ATOM      1  C   UNL     1      -0.362  -0.207   0.000  0.00  0.00    +0.000 C 
ATOM      2  N   UNL     1       0.368   0.205   0.000  0.00  0.00    +0.000 NA
ATOM      3  O   UNL     1      -0.362  -1.036   0.000  0.00  0.00    +0.000 OA
ENDROOT
BRANCH   2   4
ATOM      4  C   UNL     1       1.084  -0.221   0.000  0.00  0.00    +0.000 A 
ATOM      5  C   UNL     1       1.805   0.186   0.000  0.00  0.00    +0.000 A 
ATOM      6  C   UNL     1       1.070  -1.039   0.000  0.00  0.00    +0.000 A 
ATOM      7  C   UNL     1       2.500  -1.046   0.000  0.00  0.00    +0.000 A 
ATOM      8  C   UNL     1       1.779  -1.453   0.000  0.00  0.00    +0.000 A 
ATOM      9  C   UNL     1       2.513  -0.225   0.000  0.00  0.00    +0.000 A 
ATOM     10  C   UNL     1       1.818   1.034   0.000  0.00  0.00    +0.000 C 
ATOM     11  C   UNL     1       0.351  -1.444   0.000  0.00  0.00    +0.000 C 
ENDBRANCH   2   4
BRANCH   1  13
ATOM     12  N   UNL     1      -1.084   1.033   0.000  0.00  0.00    +0.000 NA
ATOM     13  C   UNL     1      -1.091   0.215   0.000  0.00  0.00    +0.000 C 
ATOM     14  C   UNL     1      -0.357   1.443   0.000  0.00  0.00    +0.000 C 
ATOM     15  C   UNL     1      -1.789   1.453   0.000  0.00  0.00    +0.000 C 
ATOM     16  C   UNL     1      -1.809  -0.191   0.000  0.00  0.00    +0.000 C 
ATOM     17  C   UNL     1      -2.508   1.047   0.000  0.00  0.00    +0.000 C 
ATOM     18  C   UNL     1      -2.513   0.227   0.000  0.00  0.00    +0.000 C 
ENDBRANCH   1  13
TORSDOF 2
