REMARK  Name = 
REMARK  4 active torsions:
REMARK  status: ('A' for Active; 'I' for Inactive)
REMARK    1  A    between atoms: N_2  and  C_3
REMARK    2  A    between atoms: C_3  and  C_5
REMARK    3  A    between atoms: C_5  and  C_6
REMARK    4  A    between atoms: C_6  and  C_7
REMARK                            x       y       z     vdW  Elec       q    Type
REMARK                         _______ _______ _______ _____ _____    ______ ____
ROOT
ATOM      1  C   UNL     1       1.952   1.127   0.000  0.00  0.00    +0.000 C 
ENDROOT
BRANCH   1   2
ATOM      2  C   UNL     1       1.238   0.715   0.000  0.00  0.00    +0.000 C 
ATOM      3  C   UNL     1       1.238  -0.111   0.000  0.00  0.00    +0.000 C 
BRANCH   2   5
ATOM      4  C   UNL     1      -0.191   0.715   0.000  0.00  0.00    +0.000 C 
ATOM      5  N   UNL     1       0.523   1.127   0.000  0.00  0.00    +0.000 NA
ENDBRANCH   2   5
ENDBRANCH   1   2
BRANCH   1   6
ATOM      6  C   UNL     1       2.666   0.715   0.000  0.00  0.00    +0.000 C 
BRANCH   6   7
ATOM      7  C   UNL     1       3.381   1.127   0.000  0.00  0.00    +0.000 C 
ATOM      8  C   UNL     1       4.095   0.715   0.000  0.00  0.00    +0.000 C 
ATOM      9  C   UNL     1       4.810   1.127   0.000  0.00  0.00    +0.000 C 
ATOM     10  C   UNL     1       4.095  -0.111   0.000  0.00  0.00    +0.000 C 
ENDBRANCH   6   7
ENDBRANCH   1   6
TORSDOF 4
