REMARK  Name = 
REMARK  6 active torsions:
REMARK  status: ('A' for Active; 'I' for Inactive)
REMARK    1  A    between atoms: C_2  and  C_3
REMARK    2  A    between atoms: C_7  and  C_8
REMARK    3  A    between atoms: C_11  and  O_14
REMARK    4  A    between atoms: O_14  and  C_15
REMARK    5  A    between atoms: N_21  and  C_22
REMARK    6  A    between atoms: C_25  and  N_28
REMARK                            x       y       z     vdW  Elec       q    Type
REMARK                         _______ _______ _______ _____ _____    ______ ____
ROOT
ATOM      1  C   UNL     1       0.410  -1.489   0.000  0.00  0.00    +0.000 A 
ATOM      2  C   UNL     1       0.831  -0.773   0.000  0.00  0.00    +0.000 A 
ATOM      3  C   UNL     1       0.410  -0.058   0.000  0.00  0.00    +0.000 A 
ATOM      4  C   UNL     1      -0.410  -0.058   0.000  0.00  0.00    +0.000 A 
ATOM      5  C   UNL     1      -0.831  -0.773   0.000  0.00  0.00    +0.000 A 
ATOM      6  C   UNL     1      -0.410  -1.489   0.000  0.00  0.00    +0.000 A 
ATOM      7  C   UNL     1      -0.831  -2.205   0.000  0.00  0.00    +0.000 C 
ENDROOT
BRANCH   5   8
ATOM      8  C   UNL     1      -1.652  -0.773   0.000  0.00  0.00    +0.000 A 
ATOM      9  C   UNL     1      -2.063  -0.058   0.000  0.00  0.00    +0.000 A 
ATOM     10  C   UNL     1      -2.894  -0.058   0.000  0.00  0.00    +0.000 A 
ATOM     11  C   UNL     1      -3.304  -0.773   0.000  0.00  0.00    +0.000 A 
ATOM     12  C   UNL     1      -2.894  -1.489   0.000  0.00  0.00    +0.000 A 
ATOM     13  C   UNL     1      -2.063  -1.489   0.000  0.00  0.00    +0.000 A 
BRANCH  11  14
ATOM     14  O   UNL     1      -4.136  -0.773   0.000  0.00  0.00    +0.000 OA
BRANCH  14  15
ATOM     15  C   UNL     1      -4.546  -1.489   0.000  0.00  0.00    +0.000 C 
ATOM     16  F   UNL     1      -5.262  -1.079   0.000  0.00  0.00    +0.000 F 
ATOM     17  F   UNL     1      -3.831  -1.899   0.000  0.00  0.00    +0.000 F 
ATOM     18  F   UNL     1      -4.957  -2.205   0.000  0.00  0.00    +0.000 F 
ENDBRANCH  14  15
ENDBRANCH  11  14
ENDBRANCH   5   8
BRANCH   1  20
ATOM     19  O   UNL     1       0.410  -2.920   0.000  0.00  0.00    +0.000 OA
ATOM     20  C   UNL     1       0.831  -2.205   0.000  0.00  0.00    +0.000 C 
ATOM     21  N   UNL     1       1.652  -2.205   0.000  0.00  0.00    +0.000 NA
BRANCH  21  22
ATOM     22  C   UNL     1       2.063  -1.489   0.000  0.00  0.00    +0.000 A 
ATOM     23  C   UNL     1       2.894  -1.489   0.000  0.00  0.00    +0.000 A 
ATOM     24  C   UNL     1       3.304  -0.773   0.000  0.00  0.00    +0.000 A 
ATOM     25  C   UNL     1       2.894  -0.058   0.000  0.00  0.00    +0.000 A 
ATOM     26  N   UNL     1       2.063  -0.058   0.000  0.00  0.00    +0.000 NA
ATOM     27  C   UNL     1       1.652  -0.773   0.000  0.00  0.00    +0.000 A 
BRANCH  25  28
ATOM     28  N   UNL     1       3.304   0.658   0.000  0.00  0.00    +0.000 N 
ATOM     29  C   UNL     1       4.136   0.658   0.000  0.00  0.00    +0.000 C 
ATOM     30  C   UNL     1       4.546   1.373   0.000  0.00  0.00    +0.000 C 
ATOM     31  O   UNL     1       4.136   2.089   0.000  0.00  0.00    +0.000 OA
ATOM     32  C   UNL     1       3.304   2.089   0.000  0.00  0.00    +0.000 C 
ATOM     33  C   UNL     1       2.894   1.373   0.000  0.00  0.00    +0.000 C 
ATOM     34  C   UNL     1       2.589   2.499   0.000  0.00  0.00    +0.000 C 
ATOM     35  C   UNL     1       5.262   1.784   0.000  0.00  0.00    +0.000 C 
ENDBRANCH  25  28
ENDBRANCH  21  22
ENDBRANCH   1  20
TORSDOF 6
