REMARK  Name = 
REMARK  5 active torsions:
REMARK  status: ('A' for Active; 'I' for Inactive)
REMARK    1  A    between atoms: C_3  and  N_8
REMARK    2  A    between atoms: C_15  and  C_17
REMARK    3  A    between atoms: C_17  and  C_18
REMARK    4  A    between atoms: C_18  and  N_19
REMARK    5  A    between atoms: N_19  and  C_20
REMARK                            x       y       z     vdW  Elec       q    Type
REMARK                         _______ _______ _______ _____ _____    ______ ____
ROOT
ATOM      1  N   UNL     1       5.575  -3.660   0.000  0.00  0.00    +0.000 NA
ATOM      2  C   UNL     1       4.755  -3.746   0.000  0.00  0.00    +0.000 C 
ATOM      3  O   UNL     1       4.419  -4.500   0.000  0.00  0.00    +0.000 OA
ATOM      4  N   UNL     1       4.270  -3.079   0.000  0.00  0.00    +0.000 NA
ATOM      5  C   UNL     1       3.449  -3.165   0.000  0.00  0.00    +0.000 A 
ATOM      6  N   UNL     1       3.037  -3.880   0.000  0.00  0.00    +0.000 NA
ATOM      7  C   UNL     1       2.230  -3.708   0.000  0.00  0.00    +0.000 A 
ATOM      8  C   UNL     1       2.143  -2.888   0.000  0.00  0.00    +0.000 A 
ATOM      9  S   UNL     1       2.897  -2.552   0.000  0.00  0.00    +0.000 S 
ENDROOT
BRANCH   1  12
ATOM     10  C   UNL     1       6.209  -5.749   0.000  0.00  0.00    +0.000 A 
ATOM     11  C   UNL     1       5.724  -5.081   0.000  0.00  0.00    +0.000 A 
ATOM     12  C   UNL     1       6.060  -4.327   0.000  0.00  0.00    +0.000 A 
ATOM     13  C   UNL     1       6.880  -4.241   0.000  0.00  0.00    +0.000 A 
ATOM     14  C   UNL     1       7.365  -4.909   0.000  0.00  0.00    +0.000 A 
ATOM     15  C   UNL     1       7.030  -5.662   0.000  0.00  0.00    +0.000 A 
ATOM     16 CL   UNL     1       8.186  -4.822   0.000  0.00  0.00    +0.000 Cl
ENDBRANCH   1  12
BRANCH   8  17
ATOM     17  C   UNL     1       1.429  -2.475   0.000  0.00  0.00    +0.000 C 
BRANCH  17  18
ATOM     18  C   UNL     1       1.429  -1.650   0.000  0.00  0.00    +0.000 C 
BRANCH  18  19
ATOM     19  N   UNL     1       0.715  -1.238   0.000  0.00  0.00    +0.000 NA
BRANCH  19  20
ATOM     20  C   UNL     1       0.715  -0.412   0.000  0.00  0.00    +0.000 A 
ATOM     21  C   UNL     1       0.000   0.000   0.000  0.00  0.00    +0.000 A 
ATOM     22  C   UNL     1       0.000   0.825   0.000  0.00  0.00    +0.000 A 
ATOM     23  C   UNL     1      -0.785   1.080   0.000  0.00  0.00    +0.000 A 
ATOM     24  C   UNL     1      -1.270   0.412   0.000  0.00  0.00    +0.000 A 
ATOM     25  S   UNL     1      -0.785  -0.255   0.000  0.00  0.00    +0.000 S 
ATOM     26  N   UNL     1       0.715   1.238   0.000  0.00  0.00    +0.000 NA
ATOM     27  C   UNL     1       1.429   0.825   0.000  0.00  0.00    +0.000 A 
ATOM     28  N   UNL     1       1.429   0.000   0.000  0.00  0.00    +0.000 NA
ENDBRANCH  19  20
ENDBRANCH  18  19
ENDBRANCH  17  18
ENDBRANCH   8  17
TORSDOF 5
