REMARK  Name = 
REMARK  5 active torsions:
REMARK  status: ('A' for Active; 'I' for Inactive)
REMARK    1  A    between atoms: C_2  and  O_3
REMARK    2  A    between atoms: O_3  and  C_4
REMARK    3  A    between atoms: C_7  and  C_10
REMARK    4  A    between atoms: N_14  and  C_15
REMARK    5  A    between atoms: C_18  and  S_21
REMARK                            x       y       z     vdW  Elec       q    Type
REMARK                         _______ _______ _______ _____ _____    ______ ____
ROOT
ATOM      1  C   UNL     1       0.715  -1.238   0.000  0.00  0.00    +0.000 A 
ATOM      2  C   UNL     1       1.382  -1.722   0.000  0.00  0.00    +0.000 A 
ATOM      3  C   UNL     1       1.127  -2.507   0.000  0.00  0.00    +0.000 A 
ATOM      4  C   UNL     1       0.302  -2.507   0.000  0.00  0.00    +0.000 A 
ATOM      5  N   UNL     1       0.047  -1.722   0.000  0.00  0.00    +0.000 N 
ATOM      6  C   UNL     1       1.612  -3.175   0.000  0.00  0.00    +0.000 C 
ENDROOT
BRANCH   1  10
ATOM      7  C   UNL     1       0.715   1.238   0.000  0.00  0.00    +0.000 A 
ATOM      8  C   UNL     1       1.429   0.825   0.000  0.00  0.00    +0.000 A 
ATOM      9  C   UNL     1       1.429   0.000   0.000  0.00  0.00    +0.000 A 
ATOM     10  C   UNL     1       0.715  -0.412   0.000  0.00  0.00    +0.000 A 
ATOM     11  C   UNL     1       0.000   0.000   0.000  0.00  0.00    +0.000 A 
ATOM     12  C   UNL     1       0.000   0.825   0.000  0.00  0.00    +0.000 A 
BRANCH   7  13
ATOM     13  O   UNL     1       0.715   2.062   0.000  0.00  0.00    +0.000 OA
BRANCH  13  15
ATOM     14  C   UNL     1       0.000   3.300   0.000  0.00  0.00    +0.000 C 
ATOM     15  C   UNL     1       0.000   2.475   0.000  0.00  0.00    +0.000 C 
ENDBRANCH  13  15
ENDBRANCH   7  13
ENDBRANCH   1  10
BRANCH   5  16
ATOM     16  C   UNL     1      -0.738  -1.468   0.000  0.00  0.00    +0.000 A 
ATOM     17  C   UNL     1      -1.351  -2.019   0.000  0.00  0.00    +0.000 A 
ATOM     18  C   UNL     1      -2.135  -1.765   0.000  0.00  0.00    +0.000 A 
ATOM     19  C   UNL     1      -2.307  -0.958   0.000  0.00  0.00    +0.000 A 
ATOM     20  C   UNL     1      -1.694  -0.406   0.000  0.00  0.00    +0.000 A 
ATOM     21  C   UNL     1      -0.909  -0.660   0.000  0.00  0.00    +0.000 A 
BRANCH  19  22
ATOM     22  S   UNL     1      -3.091  -0.703   0.000  0.00  0.00    +0.000 S 
ATOM     23  O   UNL     1      -3.876  -0.448   0.000  0.00  0.00    +0.000 OA
ATOM     24  O   UNL     1      -2.837   0.082   0.000  0.00  0.00    +0.000 OA
ATOM     25  N   UNL     1      -3.346  -1.487   0.000  0.00  0.00    +0.000 NA
ENDBRANCH  19  22
ENDBRANCH   5  16
TORSDOF 5
