REMARK  Name = 
REMARK  3 active torsions:
REMARK  status: ('A' for Active; 'I' for Inactive)
REMARK    1  A    between atoms: C_7  and  C_9
REMARK    2  A    between atoms: C_10  and  C_11
REMARK    3  A    between atoms: C_12  and  C_13
REMARK                            x       y       z     vdW  Elec       q    Type
REMARK                         _______ _______ _______ _____ _____    ______ ____
ROOT
ATOM      1  C   UNL     1       3.499   1.110   0.000  0.00  0.00    +0.000 C 
ATOM      2  C   UNL     1       2.784   0.698   0.000  0.00  0.00    +0.000 C 
ENDROOT
BRANCH   2   3
ATOM      3  C   UNL     1       2.070   1.110   0.000  0.00  0.00    +0.000 A 
ATOM      4  C   UNL     1       1.356   0.698   0.000  0.00  0.00    +0.000 A 
ATOM      5  C   UNL     1       0.641   1.110   0.000  0.00  0.00    +0.000 A 
ATOM      6  C   UNL     1       0.641   1.935   0.000  0.00  0.00    +0.000 A 
ATOM      7  C   UNL     1       1.356   2.348   0.000  0.00  0.00    +0.000 A 
ATOM      8  C   UNL     1       2.070   1.935   0.000  0.00  0.00    +0.000 A 
ATOM      9  O   UNL     1      -0.143   2.190   0.000  0.00  0.00    +0.000 OA
ATOM     10  C   UNL     1      -0.628   1.523   0.000  0.00  0.00    +0.000 C 
ATOM     11  O   UNL     1      -0.143   0.856   0.000  0.00  0.00    +0.000 OA
ENDBRANCH   2   3
BRANCH   1  13
ATOM     12  C   UNL     1       4.928   1.110   0.000  0.00  0.00    +0.000 C 
ATOM     13  C   UNL     1       4.213   0.698   0.000  0.00  0.00    +0.000 C 
BRANCH  12  20
ATOM     14  C   UNL     1       7.786   1.935   0.000  0.00  0.00    +0.000 C 
ATOM     15  C   UNL     1       7.786   1.110   0.000  0.00  0.00    +0.000 C 
ATOM     16  C   UNL     1       7.071   0.698   0.000  0.00  0.00    +0.000 C 
ATOM     17  N   UNL     1       6.357   1.110   0.000  0.00  0.00    +0.000 N 
ATOM     18  C   UNL     1       6.357   1.935   0.000  0.00  0.00    +0.000 C 
ATOM     19  C   UNL     1       7.071   2.348   0.000  0.00  0.00    +0.000 C 
ATOM     20  C   UNL     1       5.642   0.698   0.000  0.00  0.00    +0.000 C 
ATOM     21  O   UNL     1       5.642  -0.127   0.000  0.00  0.00    +0.000 OA
ENDBRANCH  12  20
ENDBRANCH   1  13
TORSDOF 3
