REMARK  Name = 
REMARK  11 active torsions:
REMARK  status: ('A' for Active; 'I' for Inactive)
REMARK    1  A    between atoms: C_1  and  C_8
REMARK    2  A    between atoms: C_8  and  S_9
REMARK    3  A    between atoms: S_9  and  C_10
REMARK    4  A    between atoms: C_10  and  C_11
REMARK    5  A    between atoms: C_11  and  C_12
REMARK    6  A    between atoms: C_11  and  N_15
REMARK    7  A    between atoms: N_18  and  C_19
REMARK    8  A    between atoms: C_19  and  C_20
REMARK    9  A    between atoms: C_19  and  C_23
REMARK   10  A    between atoms: C_23  and  C_24
REMARK   11  A    between atoms: C_24  and  C_25
REMARK                            x       y       z     vdW  Elec       q    Type
REMARK                         _______ _______ _______ _____ _____    ______ ____
ROOT
ATOM      1  C   UNK A   1      -1.072   1.238   0.000  0.00  0.00    +0.000 C 
ENDROOT
BRANCH   1   2
ATOM      2  N   UNK A   1      -0.357   1.650   0.000  0.00  0.00    +0.000 NA
ATOM      3  C   UNK A   0       0.357   1.238   0.000  0.00  0.00    +0.000 C 
ATOM      4  O   UNK A   0       0.357   0.412   0.000  0.00  0.00    +0.000 OA
ATOM      5  N   UNK A   1       1.072   1.650   0.000  0.00  0.00    +0.000 NA
BRANCH   5   6
ATOM      6  C   UNK A   1       1.786   1.238   0.000  0.00  0.00    +0.000 C 
BRANCH   6   7
ATOM      7  C   UNK A   1       1.786   0.412   0.000  0.00  0.00    +0.000 C 
ATOM      8  O   UNK A   1       2.501   0.000   0.000  0.00  0.00    +0.000 OA
ATOM      9  O   UNK A   1       1.072   0.000   0.000  0.00  0.00    +0.000 OA
ENDBRANCH   6   7
BRANCH   6  10
ATOM     10  C   UNK A   1       2.501   1.650   0.000  0.00  0.00    +0.000 C 
BRANCH  10  11
ATOM     11  C   UNK A   1       3.215   1.238   0.000  0.00  0.00    +0.000 C 
BRANCH  11  12
ATOM     12  C   UNK A   1       3.930   1.650   0.000  0.00  0.00    +0.000 C 
ATOM     13  O   UNK A   1       4.644   1.238   0.000  0.00  0.00    +0.000 OA
ATOM     14  O   UNK A   1       3.930   2.475   0.000  0.00  0.00    +0.000 OA
ENDBRANCH  11  12
ENDBRANCH  10  11
ENDBRANCH   6  10
ENDBRANCH   5   6
ENDBRANCH   1   2
BRANCH   1  15
ATOM     15  C   UNK A   1      -1.786   1.650   0.000  0.00  0.00    +0.000 C 
ATOM     16  O   UNK A   1      -2.501   1.238   0.000  0.00  0.00    +0.000 OA
ATOM     17  O   UNK A   1      -1.786   2.475   0.000  0.00  0.00    +0.000 OA
ENDBRANCH   1  15
BRANCH   1  18
ATOM     18  C   UNK A   1      -1.072   0.412   0.000  0.00  0.00    +0.000 C 
BRANCH  18  19
ATOM     19  S   UNK A   1      -1.786   0.000   0.000  0.00  0.00    +0.000 S 
BRANCH  19  20
ATOM     20  C   UNK A   1      -1.786  -0.825   0.000  0.00  0.00    +0.000 C 
BRANCH  20  21
ATOM     21  C   UNK A   1      -2.501  -1.238   0.000  0.00  0.00    +0.000 A 
ATOM     22  C   UNK A   1      -2.501  -2.062   0.000  0.00  0.00    +0.000 A 
ATOM     23  C   UNK A   1      -3.215  -2.475   0.000  0.00  0.00    +0.000 A 
ATOM     24  C   UNK A   1      -3.930  -2.062   0.000  0.00  0.00    +0.000 A 
ATOM     25  C   UNK A   1      -3.930  -1.238   0.000  0.00  0.00    +0.000 A 
ATOM     26  C   UNK A   1      -3.215  -0.825   0.000  0.00  0.00    +0.000 A 
ATOM     27  F   UNK A   1      -4.644  -2.475   0.000  0.00  0.00    +0.000 F 
ENDBRANCH  20  21
ENDBRANCH  19  20
ENDBRANCH  18  19
ENDBRANCH   1  18
TORSDOF 11
