REMARK  Name = 
REMARK  2 active torsions:
REMARK  status: ('A' for Active; 'I' for Inactive)
REMARK    1  A    between atoms: C_2  and  C_3
REMARK    2  A    between atoms: C_3  and  C_4
REMARK                            x       y       z     vdW  Elec       q    Type
REMARK                         _______ _______ _______ _____ _____    ______ ____
ROOT
ATOM      1  C   UNL     1       1.238  -0.714   0.000  0.00  0.00    +0.000 C 
ENDROOT
BRANCH   1   3
ATOM      2  O   UNL     1       2.666  -0.714   0.000  0.00  0.00    +0.000 OA
ATOM      3  C   UNL     1       1.952  -0.302   0.000  0.00  0.00    +0.000 C 
ENDBRANCH   1   3
BRANCH   1   4
ATOM      4  C   UNL     1       0.523  -0.302   0.000  0.00  0.00    +0.000 C 
ATOM      5  O   UNL     1      -0.191  -0.714   0.000  0.00  0.00    +0.000 OA
ENDBRANCH   1   4
TORSDOF 2
