REMARK  Name = 
REMARK  8 active torsions:
REMARK  status: ('A' for Active; 'I' for Inactive)
REMARK    1  A    between atoms: O_2  and  C_3
REMARK    2  A    between atoms: C_6  and  O_7
REMARK    3  A    between atoms: C_9  and  C_10
REMARK    4  A    between atoms: C_10  and  N_11
REMARK    5  A    between atoms: N_11  and  C_16
REMARK    6  A    between atoms: C_12  and  C_14
REMARK    7  A    between atoms: C_21  and  O_22
REMARK    8  A    between atoms: O_22  and  C_23
REMARK                            x       y       z     vdW  Elec       q    Type
REMARK                         _______ _______ _______ _____ _____    ______ ____
ROOT
ATOM      1  N   UNL     1       0.715  -2.888   0.000  0.00  0.00    +0.000 N 
ATOM      2  C   UNL     1       1.429  -3.300   0.000  0.00  0.00    +0.000 C 
ATOM      3  O   UNL     1       1.429  -4.125   0.000  0.00  0.00    +0.000 OA
ENDROOT
BRANCH   1   4
ATOM      4  C   UNL     1       0.000  -3.300   0.000  0.00  0.00    +0.000 A 
ATOM      5  C   UNL     1      -0.715  -2.888   0.000  0.00  0.00    +0.000 A 
ATOM      6  C   UNL     1      -1.429  -3.300   0.000  0.00  0.00    +0.000 A 
ATOM      7  C   UNL     1      -1.429  -4.125   0.000  0.00  0.00    +0.000 A 
ATOM      8  C   UNL     1      -0.715  -4.537   0.000  0.00  0.00    +0.000 A 
ATOM      9  C   UNL     1       0.000  -4.125   0.000  0.00  0.00    +0.000 A 
BRANCH   9  10
ATOM     10  O   UNL     1       0.715  -4.537   0.000  0.00  0.00    +0.000 OA
BRANCH  10  11
ATOM     11  C   UNL     1       0.715  -5.362   0.000  0.00  0.00    +0.000 A 
ATOM     12  C   UNL     1       1.429  -5.775   0.000  0.00  0.00    +0.000 A 
ATOM     13  C   UNL     1       1.429  -6.600   0.000  0.00  0.00    +0.000 A 
ATOM     14  C   UNL     1       0.715  -7.013   0.000  0.00  0.00    +0.000 A 
ATOM     15  C   UNL     1       0.000  -6.600   0.000  0.00  0.00    +0.000 A 
ATOM     16  C   UNL     1       0.000  -5.775   0.000  0.00  0.00    +0.000 A 
ENDBRANCH  10  11
ENDBRANCH   9  10
ENDBRANCH   1   4
BRANCH   2  17
ATOM     17  C   UNL     1       2.143  -2.888   0.000  0.00  0.00    +0.000 C 
ATOM     18  F   UNL     1       2.858  -3.300   0.000  0.00  0.00    +0.000 F 
ENDBRANCH   2  17
BRANCH   1  19
ATOM     19  C   UNL     1       0.715  -2.062   0.000  0.00  0.00    +0.000 C 
BRANCH  19  24
ATOM     20  C   UNL     1      -1.429  -1.650   0.000  0.00  0.00    +0.000 A 
ATOM     21  C   UNL     1      -1.429  -0.825   0.000  0.00  0.00    +0.000 A 
ATOM     22  C   UNL     1      -0.715  -0.412   0.000  0.00  0.00    +0.000 A 
ATOM     23  C   UNL     1       0.000  -0.825   0.000  0.00  0.00    +0.000 A 
ATOM     24  C   UNL     1       0.000  -1.650   0.000  0.00  0.00    +0.000 A 
ATOM     25  C   UNL     1      -0.715  -2.062   0.000  0.00  0.00    +0.000 A 
BRANCH  23  26
ATOM     26  O   UNL     1       0.715  -0.412   0.000  0.00  0.00    +0.000 OA
ATOM     27  C   UNL     1       1.429  -0.825   0.000  0.00  0.00    +0.000 C 
ENDBRANCH  23  26
BRANCH  20  29
ATOM     28  C   UNL     1      -2.858  -1.650   0.000  0.00  0.00    +0.000 C 
ATOM     29  O   UNL     1      -2.143  -2.062   0.000  0.00  0.00    +0.000 OA
ENDBRANCH  20  29
ENDBRANCH  19  24
ENDBRANCH   1  19
TORSDOF 8
