REMARK  Name = 
REMARK  8 active torsions:
REMARK  status: ('A' for Active; 'I' for Inactive)
REMARK    1  A    between atoms: C_2  and  C_4
REMARK    2  A    between atoms: C_2  and  C_10
REMARK    3  A    between atoms: C_4  and  O_5
REMARK    4  A    between atoms: O_5  and  P_6
REMARK    5  A    between atoms: C_10  and  C_12
REMARK    6  A    between atoms: N_14  and  C_15
REMARK    7  A    between atoms: C_15  and  C_16
REMARK    8  A    between atoms: C_16  and  C_17
REMARK                            x       y       z     vdW  Elec       q    Type
REMARK                         _______ _______ _______ _____ _____    ______ ____
ROOT
ATOM      1  C   UNL     1      -0.906   1.127   0.000  0.00  0.00    +0.000 C 
ATOM      2  O   UNL     1      -0.906   1.952   0.000  0.00  0.00    +0.000 OA
ENDROOT
BRANCH   1   3
ATOM      3  C   UNL     1      -0.191   0.715   0.000  0.00  0.00    +0.000 C 
ATOM      4  O   UNL     1      -0.191  -0.111   0.000  0.00  0.00    +0.000 OA
ATOM      5  N   UNL     1       0.523   1.127   0.000  0.00  0.00    +0.000 NA
BRANCH   5   6
ATOM      6  C   UNL     1       1.238   0.715   0.000  0.00  0.00    +0.000 C 
BRANCH   6   7
ATOM      7  C   UNL     1       1.952   1.127   0.000  0.00  0.00    +0.000 C 
BRANCH   7   8
ATOM      8  C   UNL     1       2.666   0.715   0.000  0.00  0.00    +0.000 C 
ATOM      9  O   UNL     1       3.381   1.127   0.000  0.00  0.00    +0.000 OA
ATOM     10  O   UNL     1       2.666  -0.111   0.000  0.00  0.00    +0.000 OA
ENDBRANCH   7   8
ENDBRANCH   6   7
ENDBRANCH   5   6
ENDBRANCH   1   3
BRANCH   1  12
ATOM     11  C   UNL     1      -1.208   0.000   0.000  0.00  0.00    +0.000 C 
ATOM     12  C   UNL     1      -1.620   0.715   0.000  0.00  0.00    +0.000 C 
ATOM     13  C   UNL     1      -2.033   1.429   0.000  0.00  0.00    +0.000 C 
BRANCH  12  14
ATOM     14  C   UNL     1      -2.335   0.302   0.000  0.00  0.00    +0.000 C 
BRANCH  14  15
ATOM     15  O   UNL     1      -3.049   0.715   0.000  0.00  0.00    +0.000 OA
BRANCH  15  16
ATOM     16  P   UNL     1      -3.764   0.302   0.000  0.00  0.00    +0.000 P 
ATOM     17  O   UNL     1      -4.478  -0.111   0.000  0.00  0.00    +0.000 OA
ATOM     18  O   UNL     1      -3.351  -0.412   0.000  0.00  0.00    +0.000 OA
ATOM     19  O   UNL     1      -4.176   1.016   0.000  0.00  0.00    +0.000 OA
ENDBRANCH  15  16
ENDBRANCH  14  15
ENDBRANCH  12  14
ENDBRANCH   1  12
TORSDOF 8
