REMARK  Name = 
REMARK  4 active torsions:
REMARK  status: ('A' for Active; 'I' for Inactive)
REMARK    1  A    between atoms: O_5  and  C_28
REMARK    2  A    between atoms: O_5  and  C_29
REMARK    3  A    between atoms: C_13  and  C_20
REMARK    4  A    between atoms: C_20  and  C_28
REMARK                            x       y       z     vdW  Elec       q    Type
REMARK                         _______ _______ _______ _____ _____    ______ ____
ROOT
ATOM      1  F   UNL     1      -1.882   0.703   0.000  0.00  0.00    +0.000 F 
ATOM      2  O   UNL     1       1.039   1.159   0.000  0.00  0.00    +0.000 OA
ATOM      3  O   UNL     1      -1.602   1.479   0.000  0.00  0.00    +0.000 OA
ATOM      4  O   UNL     1      -4.599  -0.508   0.000  0.00  0.00    +0.000 OA
ATOM      5  C   UNL     1      -1.350   0.073   0.000  0.00  0.00    +0.000 C 
ATOM      6  C   UNL     1       0.274   0.363   0.000  0.00  0.00    +0.000 C 
ATOM      7  C   UNL     1      -0.818  -0.558   0.000  0.00  0.00    +0.000 C 
ATOM      8  C   UNL     1      -0.006  -0.413   0.000  0.00  0.00    +0.000 C 
ATOM      9  C   UNL     1      -2.162  -0.073   0.000  0.00  0.00    +0.000 C 
ATOM     10  C   UNL     1       1.099   0.336   0.000  0.00  0.00    +0.000 C 
ATOM     11  C   UNL     1      -1.070   0.849   0.000  0.00  0.00    +0.000 C 
ATOM     12  C   UNL     1      -0.258   0.994   0.000  0.00  0.00    +0.000 C 
ATOM     13  C   UNL     1      -2.443  -0.849   0.000  0.00  0.00    +0.000 C 
ATOM     14  C   UNL     1       0.645  -0.919   0.000  0.00  0.00    +0.000 C 
ATOM     15  C   UNL     1       1.328  -0.456   0.000  0.00  0.00    +0.000 C 
ATOM     16  C   UNL     1      -1.099  -1.334   0.000  0.00  0.00    +0.000 C 
ATOM     17  C   UNL     1      -2.694   0.558   0.000  0.00  0.00    +0.000 C 
ATOM     18  C   UNL     1      -1.911  -1.479   0.000  0.00  0.00    +0.000 C 
ATOM     19  C   UNL     1       0.634   1.105   0.000  0.00  0.00    +0.000 C 
ATOM     20  C   UNL     1      -2.392   0.720   0.000  0.00  0.00    +0.000 C 
ATOM     21  C   UNL     1      -3.255  -0.994   0.000  0.00  0.00    +0.000 C 
ATOM     22  C   UNL     1      -3.506   0.413   0.000  0.00  0.00    +0.000 C 
ATOM     23  C   UNL     1      -3.787  -0.363   0.000  0.00  0.00    +0.000 C 
ENDROOT
BRANCH  10  25
ATOM     24  O   UNL     1       2.191   1.257   0.000  0.00  0.00    +0.000 OA
ATOM     25  C   UNL     1       1.911   0.481   0.000  0.00  0.00    +0.000 C 
BRANCH  25  26
ATOM     26  C   UNL     1       2.442  -0.149   0.000  0.00  0.00    +0.000 C 
BRANCH  26  27
ATOM     27  O   UNL     1       3.255  -0.004   0.000  0.00  0.00    +0.000 OA
BRANCH  27  29
ATOM     28  O   UNL     1       4.599  -0.489   0.000  0.00  0.00    +0.000 OA
ATOM     29  C   UNL     1       3.786  -0.635   0.000  0.00  0.00    +0.000 C 
ATOM     30  C   UNL     1       3.506  -1.411   0.000  0.00  0.00    +0.000 C 
ENDBRANCH  27  29
ENDBRANCH  26  27
ENDBRANCH  25  26
ENDBRANCH  10  25
TORSDOF 4
