REMARK  Name = 
REMARK  3 active torsions:
REMARK  status: ('A' for Active; 'I' for Inactive)
REMARK    1  A    between atoms: N_2  and  C_4
REMARK    2  A    between atoms: C_4  and  C_5
REMARK    3  A    between atoms: C_5  and  C_6
REMARK                            x       y       z     vdW  Elec       q    Type
REMARK                         _______ _______ _______ _____ _____    ______ ____
ROOT
ATOM      1  C   UNL     1       6.202   1.636   0.000  0.00  0.00    +0.000 C 
ATOM      2  C   UNL     1       6.095   0.818   0.000  0.00  0.00    +0.000 C 
ATOM      3  C   UNL     1       6.786   0.367   0.000  0.00  0.00    +0.000 A 
ATOM      4  C   UNL     1       7.458   0.845   0.000  0.00  0.00    +0.000 A 
ATOM      5  C   UNL     1       8.208   0.501   0.000  0.00  0.00    +0.000 A 
ATOM      6  C   UNL     1       8.286  -0.320   0.000  0.00  0.00    +0.000 A 
ATOM      7  C   UNL     1       7.613  -0.798   0.000  0.00  0.00    +0.000 A 
ATOM      8  C   UNL     1       6.863  -0.454   0.000  0.00  0.00    +0.000 A 
ATOM      9  O   UNL     1       6.269  -1.027   0.000  0.00  0.00    +0.000 OA
ATOM     10  C   UNL     1       5.452  -0.920   0.000  0.00  0.00    +0.000 C 
ATOM     11  C   UNL     1       5.025  -0.214   0.000  0.00  0.00    +0.000 A 
ATOM     12  C   UNL     1       5.312   0.560   0.000  0.00  0.00    +0.000 A 
ATOM     13  O   UNL     1       4.664   1.071   0.000  0.00  0.00    +0.000 OA
ATOM     14  C   UNL     1       3.978   0.614   0.000  0.00  0.00    +0.000 A 
ATOM     15  C   UNL     1       4.201  -0.180   0.000  0.00  0.00    +0.000 A 
ATOM     16  C   UNL     1       3.624  -0.771   0.000  0.00  0.00    +0.000 A 
ATOM     17  C   UNL     1       2.825  -0.567   0.000  0.00  0.00    +0.000 A 
ATOM     18  C   UNL     1       2.602   0.227   0.000  0.00  0.00    +0.000 A 
ATOM     19  C   UNL     1       3.178   0.818   0.000  0.00  0.00    +0.000 A 
ENDROOT
BRANCH   1  20
ATOM     20  C   UNL     1       5.547   2.138   0.000  0.00  0.00    +0.000 C 
BRANCH  20  21
ATOM     21  C   UNL     1       5.654   2.956   0.000  0.00  0.00    +0.000 C 
BRANCH  21  23
ATOM     22  C   UNL     1       5.106   4.276   0.000  0.00  0.00    +0.000 C 
ATOM     23  N   UNL     1       4.999   3.458   0.000  0.00  0.00    +0.000 NA
ATOM     24  C   UNL     1       4.237   3.142   0.000  0.00  0.00    +0.000 C 
ENDBRANCH  21  23
ENDBRANCH  20  21
ENDBRANCH   1  20
TORSDOF 3
