REMARK  Name = 
REMARK  8 active torsions:
REMARK  status: ('A' for Active; 'I' for Inactive)
REMARK    1  A    between atoms: C_1  and  C_2
REMARK    2  A    between atoms: C_1  and  C_3
REMARK    3  A    between atoms: C_1  and  O_4
REMARK    4  A    between atoms: O_4  and  C_10
REMARK    5  A    between atoms: C_10  and  C_16
REMARK    6  A    between atoms: C_16  and  N_19
REMARK    7  A    between atoms: N_19  and  C_20
REMARK    8  A    between atoms: N_19  and  C_21
REMARK                            x       y       z     vdW  Elec       q    Type
REMARK                         _______ _______ _______ _____ _____    ______ ____
ROOT
ATOM      1  C   UNL     1      -0.576   0.807   0.000  0.00  0.00    +0.000 C 
ATOM      2  C   UNL     1      -0.576   1.636   0.000  0.00  0.00    +0.000 C 
ENDROOT
BRANCH   1   3
ATOM      3  C   UNL     1      -0.576  -0.018   0.000  0.00  0.00    +0.000 C 
ATOM      4  C   UNL     1      -1.357  -0.422   0.000  0.00  0.00    +0.000 C 
ATOM      5  C   UNL     1       0.157  -0.444   0.000  0.00  0.00    +0.000 C 
ATOM      6  C   UNL     1      -0.586  -1.066   0.000  0.00  0.00    +0.000 C 
ATOM      7  C   UNL     1      -1.345  -1.240   0.000  0.00  0.00    +0.000 C 
ATOM      8  C   UNL     1       0.153  -1.222   0.000  0.00  0.00    +0.000 C 
ATOM      9  C   UNL     1      -0.576  -1.636   0.000  0.00  0.00    +0.000 C 
ENDBRANCH   1   3
BRANCH   1  10
ATOM     10  C   UNL     1      -1.403   0.807   0.000  0.00  0.00    +0.000 A 
ATOM     11  C   UNL     1      -1.835   0.076   0.000  0.00  0.00    +0.000 A 
ATOM     12  C   UNL     1      -1.800   1.513   0.000  0.00  0.00    +0.000 A 
ATOM     13  C   UNL     1      -2.607   0.078   0.000  0.00  0.00    +0.000 A 
ATOM     14  C   UNL     1      -2.629   1.513   0.000  0.00  0.00    +0.000 A 
ATOM     15  C   UNL     1      -3.025   0.807   0.000  0.00  0.00    +0.000 A 
ENDBRANCH   1  10
BRANCH   1  16
ATOM     16  O   UNL     1       0.251   0.807   0.000  0.00  0.00    +0.000 OA
BRANCH  16  17
ATOM     17  C   UNL     1       0.644   0.114   0.000  0.00  0.00    +0.000 C 
BRANCH  17  18
ATOM     18  C   UNL     1       1.467   0.114   0.000  0.00  0.00    +0.000 C 
BRANCH  18  19
ATOM     19  N   UNL     1       1.863   0.827   0.000  0.00  0.00    +0.000 N 
ATOM     20  C   UNL     1       1.158   1.218   0.000  0.00  0.00    +0.000 C 
BRANCH  19  21
ATOM     21  C   UNL     1       2.238   1.535   0.000  0.00  0.00    +0.000 C 
ATOM     22  C   UNL     1       3.025   1.535   0.000  0.00  0.00    +0.000 C 
ENDBRANCH  19  21
BRANCH  19  23
ATOM     23  C   UNL     1       2.573   0.432   0.000  0.00  0.00    +0.000 C 
ATOM     24  C   UNL     1       2.585  -0.349   0.000  0.00  0.00    +0.000 C 
ENDBRANCH  19  23
ENDBRANCH  18  19
ENDBRANCH  17  18
ENDBRANCH  16  17
ENDBRANCH   1  16
TORSDOF 8
REMARK  Name = 
REMARK  8 active torsions:
REMARK  status: ('A' for Active; 'I' for Inactive)
REMARK    1  A    between atoms: C_1  and  C_2
REMARK    2  A    between atoms: C_1  and  C_3
REMARK    3  A    between atoms: C_1  and  O_4
REMARK    4  A    between atoms: O_4  and  C_10
REMARK    5  A    between atoms: C_10  and  C_16
REMARK    6  A    between atoms: C_16  and  N_19
REMARK    7  A    between atoms: N_19  and  C_20
REMARK    8  A    between atoms: N_19  and  C_21
REMARK                            x       y       z     vdW  Elec       q    Type
REMARK                         _______ _______ _______ _____ _____    ______ ____
ROOT
ATOM      1 BR   UNL     1       1.833  -1.347   0.000  0.00  0.00    +0.000 Br
ENDROOT
TORSDOF 0
