REMARK  Name = 
REMARK  5 active torsions:
REMARK  status: ('A' for Active; 'I' for Inactive)
REMARK    1  A    between atoms: C_6  and  C_11
REMARK    2  A    between atoms: C_11  and  C_12
REMARK    3  A    between atoms: C_12  and  N_13
REMARK    4  A    between atoms: C_16  and  C_19
REMARK    5  A    between atoms: C_23  and  C_25
REMARK                            x       y       z     vdW  Elec       q    Type
REMARK                         _______ _______ _______ _____ _____    ______ ____
ROOT
ATOM      1  N   UNL     1       5.001   1.238   0.000  0.00  0.00    +0.000 NA
ATOM      2  C   UNL     1       5.001   2.062   0.000  0.00  0.00    +0.000 C 
ATOM      3  C   UNL     1       5.716   2.475   0.000  0.00  0.00    +0.000 C 
ATOM      4  C   UNL     1       6.430   2.062   0.000  0.00  0.00    +0.000 C 
ATOM      5  C   UNL     1       6.430   1.238   0.000  0.00  0.00    +0.000 C 
ATOM      6  C   UNL     1       5.716   0.825   0.000  0.00  0.00    +0.000 C 
ENDROOT
BRANCH   4   7
ATOM      7  C   UNL     1       7.145   2.475   0.000  0.00  0.00    +0.000 A 
ATOM      8  C   UNL     1       7.145   3.300   0.000  0.00  0.00    +0.000 A 
ATOM      9  C   UNL     1       7.859   3.712   0.000  0.00  0.00    +0.000 A 
ATOM     10  C   UNL     1       8.574   3.300   0.000  0.00  0.00    +0.000 A 
ATOM     11  C   UNL     1       8.574   2.475   0.000  0.00  0.00    +0.000 A 
ATOM     12  C   UNL     1       7.859   2.062   0.000  0.00  0.00    +0.000 A 
BRANCH  11  13
ATOM     13  C   UNL     1       9.288   2.062   0.000  0.00  0.00    +0.000 C 
ATOM     14  F   UNL     1      10.003   1.650   0.000  0.00  0.00    +0.000 F 
ATOM     15  F   UNL     1       8.876   1.348   0.000  0.00  0.00    +0.000 F 
ATOM     16  F   UNL     1       9.701   2.777   0.000  0.00  0.00    +0.000 F 
ENDBRANCH  11  13
ENDBRANCH   4   7
BRANCH   1  17
ATOM     17  C   UNL     1       4.287   0.825   0.000  0.00  0.00    +0.000 C 
BRANCH  17  18
ATOM     18  C   UNL     1       4.287   0.000   0.000  0.00  0.00    +0.000 C 
BRANCH  18  24
ATOM     19  C   UNL     1       0.715  -1.238   0.000  0.00  0.00    +0.000 A 
ATOM     20  C   UNL     1       0.715  -0.412   0.000  0.00  0.00    +0.000 A 
ATOM     21  C   UNL     1       1.429   0.000   0.000  0.00  0.00    +0.000 A 
ATOM     22  C   UNL     1       2.143  -0.412   0.000  0.00  0.00    +0.000 A 
ATOM     23  C   UNL     1       2.858   0.000   0.000  0.00  0.00    +0.000 A 
ATOM     24  C   UNL     1       3.572  -0.412   0.000  0.00  0.00    +0.000 A 
ATOM     25  C   UNL     1       3.572  -1.238   0.000  0.00  0.00    +0.000 A 
ATOM     26  C   UNL     1       2.858  -1.650   0.000  0.00  0.00    +0.000 A 
ATOM     27  C   UNL     1       2.143  -1.238   0.000  0.00  0.00    +0.000 A 
ATOM     28  C   UNL     1       1.429  -1.650   0.000  0.00  0.00    +0.000 A 
ENDBRANCH  18  24
ENDBRANCH  17  18
ENDBRANCH   1  17
TORSDOF 5
