REMARK  Name = 
REMARK  4 active torsions:
REMARK  status: ('A' for Active; 'I' for Inactive)
REMARK    1  A    between atoms: C_16  and  C_25
REMARK    2  A    between atoms: C_25  and  C_26
REMARK    3  A    between atoms: C_26  and  O_28
REMARK    4  A    between atoms: O_28  and  C_29
REMARK                            x       y       z     vdW  Elec       q    Type
REMARK                         _______ _______ _______ _____ _____    ______ ____
ROOT
ATOM      1  C   UNL     1      -3.258  -1.150   0.000  0.00  0.00    +0.000 C 
ATOM      2  C   UNL     1      -3.258  -1.977   0.000  0.00  0.00    +0.000 C 
ATOM      3  C   UNL     1      -2.545  -0.734   0.000  0.00  0.00    +0.000 C 
ATOM      4  C   UNL     1      -1.828  -1.150   0.000  0.00  0.00    +0.000 C 
ATOM      5  C   UNL     1      -1.832  -1.977   0.000  0.00  0.00    +0.000 C 
ATOM      6  C   UNL     1      -1.121  -2.392   0.000  0.00  0.00    +0.000 C 
ATOM      7  C   UNL     1      -0.402  -1.983   0.000  0.00  0.00    +0.000 C 
ATOM      8  C   UNL     1      -1.114  -0.737   0.000  0.00  0.00    +0.000 C 
ATOM      9  C   UNL     1      -0.397  -1.160   0.000  0.00  0.00    +0.000 C 
ATOM     10  C   UNL     1      -0.384   0.501   0.000  0.00  0.00    +0.000 C 
ATOM     11  C   UNL     1      -1.110   0.092   0.000  0.00  0.00    +0.000 C 
ATOM     12  C   UNL     1       0.333   0.078   0.000  0.00  0.00    +0.000 C 
ATOM     13  C   UNL     1       0.318  -0.750   0.000  0.00  0.00    +0.000 C 
ATOM     14  C   UNL     1       1.103  -1.020   0.000  0.00  0.00    +0.000 C 
ATOM     15  C   UNL     1       1.601  -0.358   0.000  0.00  0.00    +0.000 C 
ATOM     16  C   UNL     1       1.126   0.321   0.000  0.00  0.00    +0.000 C 
ATOM     17  O   UNL     1      -3.970  -2.388   0.000  0.00  0.00    +0.000 OA
ATOM     18  C   UNL     1      -2.545  -2.379   0.000  0.00  0.00    +0.000 C 
ATOM     19  C   UNL     1      -1.836  -0.327   0.000  0.00  0.00    +0.000 C 
ATOM     20  O   UNL     1      -1.820   0.509   0.000  0.00  0.00    +0.000 OA
ATOM     21  C   UNL     1       0.325   0.902   0.000  0.00  0.00    +0.000 C 
ATOM     22  O   UNL     1       1.916   0.536   0.000  0.00  0.00    +0.000 OA
ENDROOT
BRANCH  16  23
ATOM     23  C   UNL     1       1.121   1.144   0.000  0.00  0.00    +0.000 C 
ATOM     24  O   UNL     1       0.406   1.551   0.000  0.00  0.00    +0.000 OA
BRANCH  23  25
ATOM     25  C   UNL     1       1.830   1.560   0.000  0.00  0.00    +0.000 C 
BRANCH  25  26
ATOM     26  O   UNL     1       2.545   1.153   0.000  0.00  0.00    +0.000 OA
BRANCH  26  27
ATOM     27  C   UNL     1       3.255   1.569   0.000  0.00  0.00    +0.000 C 
ATOM     28  C   UNL     1       3.970   1.162   0.000  0.00  0.00    +0.000 C 
ATOM     29  O   UNL     1       3.250   2.392   0.000  0.00  0.00    +0.000 OA
ENDBRANCH  26  27
ENDBRANCH  25  26
ENDBRANCH  23  25
ENDBRANCH  16  23
TORSDOF 4
