REMARK  Name = 
REMARK  5 active torsions:
REMARK  status: ('A' for Active; 'I' for Inactive)
REMARK    1  A    between atoms: N_5  and  C_8
REMARK    2  A    between atoms: C_8  and  C_9
REMARK    3  A    between atoms: N_11  and  S_20
REMARK    4  A    between atoms: C_15  and  O_18
REMARK    5  A    between atoms: S_20  and  C_23
REMARK                            x       y       z     vdW  Elec       q    Type
REMARK                         _______ _______ _______ _____ _____    ______ ____
ROOT
ATOM      1  C   UNL     1      -0.143  -0.030   0.000  0.00  0.00    +0.000 A 
ATOM      2  C   UNL     1      -0.628  -0.698   0.000  0.00  0.00    +0.000 A 
ATOM      3  N   UNL     1      -0.143  -1.365   0.000  0.00  0.00    +0.000 N 
ATOM      4  C   UNL     1       0.641  -1.110   0.000  0.00  0.00    +0.000 A 
ATOM      5  C   UNL     1       0.641  -0.285   0.000  0.00  0.00    +0.000 A 
ATOM      6  C   UNL     1       1.356   0.127   0.000  0.00  0.00    +0.000 A 
ATOM      7  C   UNL     1       2.070  -0.285   0.000  0.00  0.00    +0.000 A 
ATOM      8  C   UNL     1       2.070  -1.110   0.000  0.00  0.00    +0.000 A 
ATOM      9  C   UNL     1       1.356  -1.523   0.000  0.00  0.00    +0.000 A 
ENDROOT
BRANCH   3  10
ATOM     10  S   UNL     1      -0.398  -2.150   0.000  0.00  0.00    +0.000 S 
ATOM     11  O   UNL     1      -1.183  -1.895   0.000  0.00  0.00    +0.000 OA
ATOM     12  O   UNL     1       0.386  -2.405   0.000  0.00  0.00    +0.000 OA
BRANCH  10  13
ATOM     13  C   UNL     1      -0.653  -2.935   0.000  0.00  0.00    +0.000 A 
ATOM     14  C   UNL     1      -0.101  -3.548   0.000  0.00  0.00    +0.000 A 
ATOM     15  C   UNL     1      -0.356  -4.332   0.000  0.00  0.00    +0.000 A 
ATOM     16  C   UNL     1      -1.163  -4.504   0.000  0.00  0.00    +0.000 A 
ATOM     17  C   UNL     1      -1.715  -3.891   0.000  0.00  0.00    +0.000 A 
ATOM     18  C   UNL     1      -1.460  -3.106   0.000  0.00  0.00    +0.000 A 
ATOM     19 BR   UNL     1      -2.012  -2.493   0.000  0.00  0.00    +0.000 Br
ENDBRANCH  10  13
ENDBRANCH   3  10
BRANCH   7  20
ATOM     20  O   UNL     1       2.784   0.127   0.000  0.00  0.00    +0.000 OA
ATOM     21  C   UNL     1       3.499  -0.285   0.000  0.00  0.00    +0.000 C 
ENDBRANCH   7  20
BRANCH   1  22
ATOM     22  C   UNL     1      -0.398   0.754   0.000  0.00  0.00    +0.000 C 
BRANCH  22  27
ATOM     23  C   UNL     1       1.810   3.207   0.000  0.00  0.00    +0.000 C 
ATOM     24  N   UNL     1       1.258   2.593   0.000  0.00  0.00    +0.000 NA
ATOM     25  C   UNL     1       1.513   1.809   0.000  0.00  0.00    +0.000 C 
ATOM     26  C   UNL     1       0.961   1.196   0.000  0.00  0.00    +0.000 C 
ATOM     27  N   UNL     1       0.154   1.367   0.000  0.00  0.00    +0.000 NA
ATOM     28  C   UNL     1      -0.101   2.152   0.000  0.00  0.00    +0.000 C 
ATOM     29  C   UNL     1       0.451   2.765   0.000  0.00  0.00    +0.000 C 
ENDBRANCH  22  27
ENDBRANCH   1  22
TORSDOF 5
