REMARK  Name = 
REMARK  6 active torsions:
REMARK  status: ('A' for Active; 'I' for Inactive)
REMARK    1  A    between atoms: C_6  and  C_14
REMARK    2  A    between atoms: C_8  and  N_16
REMARK    3  A    between atoms: C_17  and  O_18
REMARK    4  A    between atoms: O_18  and  C_20
REMARK    5  A    between atoms: C_22  and  C_23
REMARK    6  A    between atoms: C_26  and  C_29
REMARK                            x       y       z     vdW  Elec       q    Type
REMARK                         _______ _______ _______ _____ _____    ______ ____
ROOT
ATOM      1  C   UNL     1      -2.577  -2.404   0.000  0.00  0.00    +0.000 C 
ATOM      2  C   UNL     1      -2.577  -3.241   0.000  0.00  0.00    +0.000 C 
ATOM      3  C   UNL     1      -1.866  -3.659   0.000  0.00  0.00    +0.000 C 
ATOM      4  C   UNL     1      -1.113  -3.241   0.000  0.00  0.00    +0.000 C 
ATOM      5  C   UNL     1      -1.113  -2.404   0.000  0.00  0.00    +0.000 C 
ATOM      6  C   UNL     1      -1.866  -1.986   0.000  0.00  0.00    +0.000 C 
ATOM      7  C   UNL     1      -0.402  -3.659   0.000  0.00  0.00    +0.000 C 
ATOM      8  C   UNL     1       0.309  -3.241   0.000  0.00  0.00    +0.000 C 
ATOM      9  C   UNL     1       0.309  -2.404   0.000  0.00  0.00    +0.000 C 
ATOM     10  C   UNL     1      -0.402  -1.986   0.000  0.00  0.00    +0.000 C 
ATOM     11  C   UNL     1      -3.373  -2.146   0.000  0.00  0.00    +0.000 C 
ATOM     12  O   UNL     1      -3.864  -2.822   0.000  0.00  0.00    +0.000 OA
ATOM     13  C   UNL     1      -3.373  -3.499   0.000  0.00  0.00    +0.000 C 
ATOM     14  C   UNL     1      -3.629  -1.357   0.000  0.00  0.00    +0.000 C 
ATOM     15  O   UNL     1      -3.629  -4.288   0.000  0.00  0.00    +0.000 OA
ENDROOT
BRANCH   8  16
ATOM     16  N   UNL     1       1.020  -3.659   0.000  0.00  0.00    +0.000 NA
ATOM     17  C   UNL     1       1.731  -3.241   0.000  0.00  0.00    +0.000 C 
ATOM     18  O   UNL     1       1.731  -2.404   0.000  0.00  0.00    +0.000 OA
BRANCH  17  19
ATOM     19  O   UNL     1       2.442  -3.659   0.000  0.00  0.00    +0.000 OA
BRANCH  19  20
ATOM     20  C   UNL     1       3.153  -3.241   0.000  0.00  0.00    +0.000 C 
ATOM     21  C   UNL     1       3.864  -3.659   0.000  0.00  0.00    +0.000 C 
ENDBRANCH  19  20
ENDBRANCH  17  19
ENDBRANCH   8  16
BRANCH   6  22
ATOM     22  C   UNL     1      -1.866  -1.149   0.000  0.00  0.00    +0.000 C 
ATOM     23  C   UNL     1      -2.577  -0.731   0.000  0.00  0.00    +0.000 C 
BRANCH  23  24
ATOM     24  C   UNL     1      -2.577   0.105   0.000  0.00  0.00    +0.000 A 
ATOM     25  C   UNL     1      -1.866   0.523   0.000  0.00  0.00    +0.000 A 
ATOM     26  C   UNL     1      -1.866   1.360   0.000  0.00  0.00    +0.000 A 
ATOM     27  C   UNL     1      -2.577   1.778   0.000  0.00  0.00    +0.000 A 
ATOM     28  C   UNL     1      -3.288   1.360   0.000  0.00  0.00    +0.000 A 
ATOM     29  N   UNL     1      -3.288   0.523   0.000  0.00  0.00    +0.000 NA
BRANCH  27  30
ATOM     30  C   UNL     1      -2.577   2.615   0.000  0.00  0.00    +0.000 A 
ATOM     31  C   UNL     1      -1.866   3.033   0.000  0.00  0.00    +0.000 A 
ATOM     32  C   UNL     1      -1.866   3.870   0.000  0.00  0.00    +0.000 A 
ATOM     33  C   UNL     1      -2.577   4.288   0.000  0.00  0.00    +0.000 A 
ATOM     34  C   UNL     1      -3.288   3.870   0.000  0.00  0.00    +0.000 A 
ATOM     35  C   UNL     1      -3.288   3.033   0.000  0.00  0.00    +0.000 A 
ATOM     36  F   UNL     1      -1.155   4.288   0.000  0.00  0.00    +0.000 F 
ENDBRANCH  27  30
ENDBRANCH  23  24
ENDBRANCH   6  22
TORSDOF 6
