REMARK  Name = 
REMARK  3 active torsions:
REMARK  status: ('A' for Active; 'I' for Inactive)
REMARK    1  A    between atoms: C_9  and  N_10
REMARK    2  A    between atoms: N_10  and  C_11
REMARK    3  A    between atoms: C_15  and  C_17
REMARK                            x       y       z     vdW  Elec       q    Type
REMARK                         _______ _______ _______ _____ _____    ______ ____
ROOT
ATOM      1  C   UNL     1       2.784   3.173   0.000  0.00  0.00    +0.000 A 
ATOM      2  C   UNL     1       2.070   3.585   0.000  0.00  0.00    +0.000 A 
ATOM      3  N   UNL     1       2.070   4.410   0.000  0.00  0.00    +0.000 NA
ATOM      4  C   UNL     1       2.784   4.823   0.000  0.00  0.00    +0.000 A 
ATOM      5  C   UNL     1       3.499   4.410   0.000  0.00  0.00    +0.000 A 
ATOM      6  N   UNL     1       3.499   3.585   0.000  0.00  0.00    +0.000 NA
ATOM      7  N   UNL     1       1.356   3.173   0.000  0.00  0.00    +0.000 NA
ENDROOT
BRANCH   5   8
ATOM      8  C   UNL     1       4.213   4.823   0.000  0.00  0.00    +0.000 A 
ATOM      9  C   UNL     1       4.213   5.648   0.000  0.00  0.00    +0.000 A 
ATOM     10  C   UNL     1       4.928   6.060   0.000  0.00  0.00    +0.000 A 
ATOM     11  N   UNL     1       5.642   5.648   0.000  0.00  0.00    +0.000 NA
ATOM     12  C   UNL     1       5.642   4.823   0.000  0.00  0.00    +0.000 A 
ATOM     13  C   UNL     1       4.928   4.410   0.000  0.00  0.00    +0.000 A 
ENDBRANCH   5   8
BRANCH   1  14
ATOM     14  N   UNL     1       2.784   2.348   0.000  0.00  0.00    +0.000 NA
BRANCH  14  23
ATOM     15  C   UNL     1       2.070   1.110   0.000  0.00  0.00    +0.000 A 
ATOM     16  C   UNL     1       1.356   0.698   0.000  0.00  0.00    +0.000 A 
ATOM     17  C   UNL     1       0.641   1.110   0.000  0.00  0.00    +0.000 A 
ATOM     18  C   UNL     1       0.641   1.935   0.000  0.00  0.00    +0.000 A 
ATOM     19  C   UNL     1      -0.143   2.190   0.000  0.00  0.00    +0.000 A 
ATOM     20  C   UNL     1      -0.628   1.523   0.000  0.00  0.00    +0.000 A 
ATOM     21  N   UNL     1      -0.143   0.856   0.000  0.00  0.00    +0.000 NA
ATOM     22  C   UNL     1       1.356   2.348   0.000  0.00  0.00    +0.000 A 
ATOM     23  C   UNL     1       2.070   1.935   0.000  0.00  0.00    +0.000 A 
ENDBRANCH  14  23
ENDBRANCH   1  14
TORSDOF 3
