REMARK  Name = 
REMARK  12 active torsions:
REMARK  status: ('A' for Active; 'I' for Inactive)
REMARK    1  A    between atoms: C_1  and  O_9
REMARK    2  A    between atoms: C_3  and  N_31
REMARK    3  A    between atoms: C_4  and  O_41
REMARK    4  A    between atoms: C_5  and  O_42
REMARK    5  A    between atoms: C_6  and  O_30
REMARK    6  A    between atoms: C_8  and  O_9
REMARK    7  A    between atoms: C_20  and  C_35
REMARK    8  A    between atoms: N_21  and  C_39
REMARK    9  A    between atoms: C_22  and  C_33
REMARK   10  A    between atoms: C_26  and  C_52
REMARK   11  A    between atoms: O_30  and  C_33
REMARK   12  A    between atoms: C_35  and  C_39
REMARK                            x       y       z     vdW  Elec       q    Type
REMARK                         _______ _______ _______ _____ _____    ______ ____
ROOT
ATOM      1  C   UNL     1       1.953   0.678   0.000  0.00  0.00    +0.000 C 
ATOM      2  C   UNL     1       1.239   0.270   0.000  0.00  0.00    +0.000 C 
ATOM      3  C   UNL     1      -0.189  -0.561   0.000  0.00  0.00    +0.000 C 
ATOM      4  O   UNL     1      -0.904  -0.984   0.000  0.00  0.00    +0.000 OA
ATOM      5  C   UNL     1       0.525  -0.969   0.000  0.00  0.00    +0.000 C 
ATOM      6  C   UNL     1       1.239  -0.556   0.000  0.00  0.00    +0.000 C 
ATOM      7  C   UNL     1       1.953   1.494   0.000  0.00  0.00    +0.000 C 
ATOM      8  C   UNL     1      -1.618   0.255   0.000  0.00  0.00    +0.000 C 
ATOM      9  C   UNL     1      -0.904   0.668   0.000  0.00  0.00    +0.000 C 
ATOM     10  C   UNL     1      -0.189   2.718   0.000  0.00  0.00    +0.000 C 
ATOM     11  C   UNL     1       0.525   3.131   0.000  0.00  0.00    +0.000 C 
ATOM     12  C   UNL     1      -1.618  -0.571   0.000  0.00  0.00    +0.000 C 
ATOM     13  C   UNL     1      -0.904   1.494   0.000  0.00  0.00    +0.000 C 
ATOM     14  C   UNL     1       1.239   1.902   0.000  0.00  0.00    +0.000 C 
ATOM     15  C   UNL     1      -0.189   1.902   0.000  0.00  0.00    +0.000 C 
ATOM     16  C   UNL     1       1.239   2.723   0.000  0.00  0.00    +0.000 C 
ATOM     17  O   UNL     1      -0.204   0.270   0.000  0.00  0.00    +0.000 OA
ATOM     18  O   UNL     1       0.520   3.957   0.000  0.00  0.00    +0.000 OA
ATOM     19  O   UNL     1       1.953  -0.964   0.000  0.00  0.00    +0.000 OA
ATOM     20  C   UNL     1       0.520   0.683   0.000  0.00  0.00    +0.000 C 
ATOM     21  C   UNL     1      -1.618   1.917   0.000  0.00  0.00    +0.000 C 
ATOM     22  C   UNL     1       1.953   3.141   0.000  0.00  0.00    +0.000 C 
ENDROOT
BRANCH  12  23
ATOM     23  C   UNL     1      -2.332  -0.984   0.000  0.00  0.00    +0.000 C 
ATOM     24  C   UNL     1      -2.332  -1.810   0.000  0.00  0.00    +0.000 C 
ENDBRANCH  12  23
BRANCH   7  25
ATOM     25  C   UNL     1       2.667   1.917   0.000  0.00  0.00    +0.000 C 
BRANCH  25  26
ATOM     26  C   UNL     1       3.381   1.499   0.000  0.00  0.00    +0.000 C 
BRANCH  26  27
ATOM     27  N   UNL     1       4.096   1.917   0.000  0.00  0.00    +0.000 NA
ATOM     28  C   UNL     1       4.810   1.494   0.000  0.00  0.00    +0.000 C 
ATOM     29  C   UNL     1       4.096   2.733   0.000  0.00  0.00    +0.000 C 
ATOM     30  C   UNL     1       5.524   1.907   0.000  0.00  0.00    +0.000 C 
ATOM     31  C   UNL     1       4.810   3.146   0.000  0.00  0.00    +0.000 C 
ATOM     32  C   UNL     1       5.524   2.733   0.000  0.00  0.00    +0.000 C 
ATOM     33  C   UNL     1       6.238   1.494   0.000  0.00  0.00    +0.000 C 
ATOM     34  C   UNL     1       4.810   3.972   0.000  0.00  0.00    +0.000 C 
ENDBRANCH  26  27
ENDBRANCH  25  26
ENDBRANCH   7  25
BRANCH   8  35
ATOM     35  C   UNL     1      -2.332   0.668   0.000  0.00  0.00    +0.000 C 
BRANCH  35  36
ATOM     36  O   UNL     1      -3.046   0.260   0.000  0.00  0.00    +0.000 OA
BRANCH  36  39
ATOM     37  C   UNL     1      -4.168  -0.036   0.000  0.00  0.00    +0.000 C 
ATOM     38  C   UNL     1      -4.990  -0.036   0.000  0.00  0.00    +0.000 C 
ATOM     39  C   UNL     1      -3.760   0.678   0.000  0.00  0.00    +0.000 C 
ATOM     40  O   UNL     1      -4.168   1.392   0.000  0.00  0.00    +0.000 OA
ATOM     41  C   UNL     1      -5.407   0.678   0.000  0.00  0.00    +0.000 C 
ATOM     42  C   UNL     1      -4.990   1.392   0.000  0.00  0.00    +0.000 C 
ATOM     43  O   UNL     1      -6.238   0.678   0.000  0.00  0.00    +0.000 OA
ATOM     44  C   UNL     1      -5.407   2.106   0.000  0.00  0.00    +0.000 C 
BRANCH  38  45
ATOM     45  O   UNL     1      -5.407  -0.751   0.000  0.00  0.00    +0.000 OA
ATOM     46  C   UNL     1      -6.229  -0.751   0.000  0.00  0.00    +0.000 C 
ENDBRANCH  38  45
BRANCH  37  47
ATOM     47  O   UNL     1      -3.751  -0.751   0.000  0.00  0.00    +0.000 OA
ATOM     48  C   UNL     1      -4.168  -1.465   0.000  0.00  0.00    +0.000 C 
ENDBRANCH  37  47
ENDBRANCH  36  39
ENDBRANCH  35  36
ENDBRANCH   8  35
BRANCH   1  49
ATOM     49  O   UNL     1       3.872  -0.736   0.000  0.00  0.00    +0.000 OA
BRANCH  49  50
ATOM     50  C   UNL     1       3.877  -1.829   0.000  0.00  0.00    +0.000 C 
ATOM     51  C   UNL     1       3.469  -2.543   0.000  0.00  0.00    +0.000 C 
ATOM     52  C   UNL     1       2.638  -2.543   0.000  0.00  0.00    +0.000 C 
ATOM     53  O   UNL     1       3.469  -1.115   0.000  0.00  0.00    +0.000 OA
ATOM     54  C   UNL     1       2.225  -1.829   0.000  0.00  0.00    +0.000 C 
ATOM     55  C   UNL     1       2.638  -1.115   0.000  0.00  0.00    +0.000 C 
ATOM     56  O   UNL     1       3.877  -3.258   0.000  0.00  0.00    +0.000 OA
ATOM     57  O   UNL     1       1.399  -1.829   0.000  0.00  0.00    +0.000 OA
ATOM     58  C   UNL     1       2.230  -0.401   0.000  0.00  0.00    +0.000 C 
BRANCH  52  59
ATOM     59  N   UNL     1       2.230  -3.258   0.000  0.00  0.00    +0.000 NA
ATOM     60  C   UNL     1       2.638  -3.972   0.000  0.00  0.00    +0.000 C 
ATOM     61  C   UNL     1       1.399  -3.258   0.000  0.00  0.00    +0.000 C 
ENDBRANCH  52  59
ENDBRANCH  49  50
ENDBRANCH   1  49
TORSDOF 12
