REMARK  Name = 
REMARK  5 active torsions:
REMARK  status: ('A' for Active; 'I' for Inactive)
REMARK    1  A    between atoms: C_5  and  N_17
REMARK    2  A    between atoms: N_6  and  C_7
REMARK    3  A    between atoms: C_7  and  C_8
REMARK    4  A    between atoms: C_8  and  C_10
REMARK    5  A    between atoms: C_10  and  N_11
REMARK                            x       y       z     vdW  Elec       q    Type
REMARK                         _______ _______ _______ _____ _____    ______ ____
ROOT
ATOM      1  C   UNL     1       1.299  -2.767   0.000  0.00  0.00    +0.000 C 
ENDROOT
BRANCH   1   7
ATOM      2  C   UNL     1       2.751  -1.712   0.000  0.00  0.00    +0.000 C 
ATOM      3  C   UNL     1       2.751  -2.537   0.000  0.00  0.00    +0.000 A 
ATOM      4  N   UNL     1       3.419  -3.022   0.000  0.00  0.00    +0.000 NA
ATOM      5  C   UNL     1       3.164  -3.806   0.000  0.00  0.00    +0.000 A 
ATOM      6  C   UNL     1       2.339  -3.806   0.000  0.00  0.00    +0.000 A 
ATOM      7  N   UNL     1       2.084  -3.022   0.000  0.00  0.00    +0.000 N 
BRANCH   6   8
ATOM      8  N   UNL     1       1.854  -4.474   0.000  0.00  0.00    +0.000 N 
ATOM      9  O   UNL     1       2.189  -5.227   0.000  0.00  0.00    +0.000 OA
ATOM     10  O   UNL     1       1.033  -4.387   0.000  0.00  0.00    +0.000 OA
ENDBRANCH   6   8
ENDBRANCH   1   7
BRANCH   1  11
ATOM     11  C   UNL     1       1.128  -1.960   0.000  0.00  0.00    +0.000 C 
ATOM     12  O   UNL     1       1.741  -1.408   0.000  0.00  0.00    +0.000 OA
BRANCH  11  13
ATOM     13  C   UNL     1       0.343  -1.705   0.000  0.00  0.00    +0.000 C 
BRANCH  13  14
ATOM     14  N   UNL     1       0.171  -0.898   0.000  0.00  0.00    +0.000 NA
ATOM     15  C   UNL     1      -0.613  -0.643   0.000  0.00  0.00    +0.000 C 
ATOM     16  C   UNL     1      -0.785   0.164   0.000  0.00  0.00    +0.000 C 
ATOM     17  O   UNL     1      -0.172   0.716   0.000  0.00  0.00    +0.000 OA
ATOM     18  C   UNL     1       0.613   0.461   0.000  0.00  0.00    +0.000 C 
ATOM     19  C   UNL     1       0.784  -0.346   0.000  0.00  0.00    +0.000 C 
ENDBRANCH  13  14
ENDBRANCH  11  13
ENDBRANCH   1  11
TORSDOF 5
