REMARK  Name = 
REMARK  4 active torsions:
REMARK  status: ('A' for Active; 'I' for Inactive)
REMARK    1  A    between atoms: N_1  and  C_12
REMARK    2  A    between atoms: C_8  and  C_19
REMARK    3  A    between atoms: C_12  and  C_13
REMARK    4  A    between atoms: C_13  and  C_14
REMARK                            x       y       z     vdW  Elec       q    Type
REMARK                         _______ _______ _______ _____ _____    ______ ____
ROOT
ATOM      1  N   UNL     1       0.348   0.661   0.000  0.00  0.00    +0.000 N 
ATOM      2  C   UNL     1       1.079   0.244   0.000  0.00  0.00    +0.000 A 
ATOM      3  C   UNL     1       1.079  -0.557   0.000  0.00  0.00    +0.000 A 
ATOM      4  C   UNL     1      -0.383   0.244   0.000  0.00  0.00    +0.000 A 
ATOM      5  C   UNL     1       1.775   0.661   0.000  0.00  0.00    +0.000 A 
ATOM      6  C   UNL     1       1.775  -0.975   0.000  0.00  0.00    +0.000 A 
ATOM      7  C   UNL     1       0.348  -0.975   0.000  0.00  0.00    +0.000 A 
ATOM      8  C   UNL     1      -0.383  -0.557   0.000  0.00  0.00    +0.000 A 
ATOM      9  C   UNL     1       2.506  -0.557   0.000  0.00  0.00    +0.000 A 
ATOM     10  C   UNL     1       2.506   0.244   0.000  0.00  0.00    +0.000 A 
ATOM     11  O   UNL     1      -1.079   0.661   0.000  0.00  0.00    +0.000 OA
ATOM     12  F   UNL     1       3.237  -0.975   0.000  0.00  0.00    +0.000 F 
ATOM     13  O   UNL     1       0.348  -1.810   0.000  0.00  0.00    +0.000 OA
ENDROOT
BRANCH   8  16
ATOM     14  S   UNL     1      -2.541  -1.009   0.000  0.00  0.00    +0.000 S 
ATOM     15  N   UNL     1      -1.810  -0.592   0.000  0.00  0.00    +0.000 NA
ATOM     16  C   UNL     1      -1.079  -0.975   0.000  0.00  0.00    +0.000 C 
ATOM     17  N   UNL     1      -1.079  -1.810   0.000  0.00  0.00    +0.000 NA
ATOM     18  C   UNL     1      -1.810  -2.262   0.000  0.00  0.00    +0.000 A 
ATOM     19  C   UNL     1      -2.506  -1.845   0.000  0.00  0.00    +0.000 A 
ATOM     20  C   UNL     1      -3.237  -2.227   0.000  0.00  0.00    +0.000 A 
ATOM     21  C   UNL     1      -3.237  -3.062   0.000  0.00  0.00    +0.000 A 
ATOM     22  C   UNL     1      -2.506  -3.480   0.000  0.00  0.00    +0.000 A 
ATOM     23  C   UNL     1      -1.775  -3.062   0.000  0.00  0.00    +0.000 A 
ATOM     24  O   UNL     1      -3.237  -0.592   0.000  0.00  0.00    +0.000 OA
ATOM     25  O   UNL     1      -2.541  -0.174   0.000  0.00  0.00    +0.000 OA
ENDBRANCH   8  16
BRANCH   1  26
ATOM     26  C   UNL     1       0.348   1.496   0.000  0.00  0.00    +0.000 C 
BRANCH  26  27
ATOM     27  C   UNL     1      -0.348   1.914   0.000  0.00  0.00    +0.000 C 
BRANCH  27  28
ATOM     28  C   UNL     1      -0.348   2.749   0.000  0.00  0.00    +0.000 C 
ATOM     29  C   UNL     1      -0.766   3.480   0.000  0.00  0.00    +0.000 C 
ATOM     30  C   UNL     1       0.035   3.445   0.000  0.00  0.00    +0.000 C 
ENDBRANCH  27  28
ENDBRANCH  26  27
ENDBRANCH   1  26
TORSDOF 4
