REMARK  Name = 
REMARK  12 active torsions:
REMARK  status: ('A' for Active; 'I' for Inactive)
REMARK    1  A    between atoms: C_1  and  C_2
REMARK    2  A    between atoms: C_1  and  N_14
REMARK    3  A    between atoms: C_2  and  C_3
REMARK    4  A    between atoms: C_3  and  N_4
REMARK    5  A    between atoms: N_4  and  C_5
REMARK    6  A    between atoms: N_4  and  C_9
REMARK    7  A    between atoms: C_5  and  C_6
REMARK    8  A    between atoms: C_9  and  C_10
REMARK    9  A    between atoms: N_14  and  C_15
REMARK   10  A    between atoms: N_14  and  C_19
REMARK   11  A    between atoms: C_15  and  C_16
REMARK   12  A    between atoms: C_19  and  C_20
REMARK                            x       y       z     vdW  Elec       q    Type
REMARK                         _______ _______ _______ _____ _____    ______ ____
ROOT
ATOM      1  C   UNL     1       5.856   3.381   0.000  0.00  0.00    +0.000 C 
ATOM      2  O   UNL     1       5.856   2.556   0.000  0.00  0.00    +0.000 OA
ENDROOT
BRANCH   1   3
ATOM      3  C   UNL     1       6.570   3.793   0.000  0.00  0.00    +0.000 C 
BRANCH   3   4
ATOM      4  N   UNL     1       7.285   3.381   0.000  0.00  0.00    +0.000 NA
BRANCH   4   5
ATOM      5  C   UNL     1       7.999   3.793   0.000  0.00  0.00    +0.000 C 
BRANCH   5   6
ATOM      6  C   UNL     1       7.999   4.618   0.000  0.00  0.00    +0.000 C 
ATOM      7  O   UNL     1       8.714   5.031   0.000  0.00  0.00    +0.000 OA
ATOM      8  O   UNL     1       7.285   5.031   0.000  0.00  0.00    +0.000 OA
ENDBRANCH   5   6
ENDBRANCH   4   5
BRANCH   4   9
ATOM      9  C   UNL     1       7.285   2.556   0.000  0.00  0.00    +0.000 C 
BRANCH   9  10
ATOM     10  C   UNL     1       7.999   2.143   0.000  0.00  0.00    +0.000 C 
ATOM     11  O   UNL     1       8.714   2.556   0.000  0.00  0.00    +0.000 OA
ATOM     12  O   UNL     1       7.999   1.318   0.000  0.00  0.00    +0.000 OA
ENDBRANCH   9  10
ENDBRANCH   4   9
ENDBRANCH   3   4
ENDBRANCH   1   3
BRANCH   1  13
ATOM     13  C   UNL     1       5.141   3.793   0.000  0.00  0.00    +0.000 C 
BRANCH  13  14
ATOM     14  N   UNL     1       4.427   3.381   0.000  0.00  0.00    +0.000 NA
BRANCH  14  15
ATOM     15  C   UNL     1       3.712   3.793   0.000  0.00  0.00    +0.000 C 
BRANCH  15  16
ATOM     16  C   UNL     1       3.712   4.618   0.000  0.00  0.00    +0.000 C 
ATOM     17  O   UNL     1       4.427   5.031   0.000  0.00  0.00    +0.000 OA
ATOM     18  O   UNL     1       2.998   5.031   0.000  0.00  0.00    +0.000 OA
ENDBRANCH  15  16
ENDBRANCH  14  15
BRANCH  14  19
ATOM     19  C   UNL     1       4.427   2.556   0.000  0.00  0.00    +0.000 C 
BRANCH  19  20
ATOM     20  C   UNL     1       3.712   2.143   0.000  0.00  0.00    +0.000 C 
ATOM     21  O   UNL     1       2.998   2.556   0.000  0.00  0.00    +0.000 OA
ATOM     22  O   UNL     1       3.712   1.318   0.000  0.00  0.00    +0.000 OA
ENDBRANCH  19  20
ENDBRANCH  14  19
ENDBRANCH  13  14
ENDBRANCH   1  13
TORSDOF 12
