REMARK  Name = 
REMARK  7 active torsions:
REMARK  status: ('A' for Active; 'I' for Inactive)
REMARK    1  A    between atoms: C_2  and  C_34
REMARK    2  A    between atoms: C_40  and  C_41
REMARK    3  A    between atoms: C_50  and  C_95
REMARK    4  A    between atoms: C_59  and  C_60
REMARK    5  A    between atoms: N_61  and  C_74
REMARK    6  A    between atoms: C_69  and  C_70
REMARK    7  A    between atoms: C_91  and  C_95
REMARK                            x       y       z     vdW  Elec       q    Type
REMARK                         _______ _______ _______ _____ _____    ______ ____
ROOT
ATOM      1  O   UNL     1      -7.304   0.502   0.000  0.00  0.00    +0.000 OA
ATOM      2  C   UNL     1      -7.336   1.441   0.000  0.00  0.00    +0.000 C 
ATOM      3  C   UNL     1      -6.641   2.277   0.000  0.00  0.00    +0.000 C 
ATOM      4  C   UNL     1      -5.817   2.280   0.000  0.00  0.00    +0.000 C 
ATOM      5  C   UNL     1      -5.410   2.995   0.000  0.00  0.00    +0.000 C 
ATOM      6  C   UNL     1      -4.587   2.998   0.000  0.00  0.00    +0.000 C 
ATOM      7  O   UNL     1      -4.141   2.304   0.000  0.00  0.00    +0.000 OA
ATOM      8  C   UNL     1      -3.321   2.346   0.000  0.00  0.00    +0.000 C 
ATOM      9  C   UNL     1      -2.942   3.074   0.000  0.00  0.00    +0.000 C 
ATOM     10  C   UNL     1      -3.389   3.768   0.000  0.00  0.00    +0.000 C 
ATOM     11  N   UNL     1      -4.213   3.734   0.000  0.00  0.00    +0.000 NA
ATOM     12  C   UNL     1      -3.309   0.910   0.000  0.00  0.00    +0.000 C 
ATOM     13  C   UNL     1      -2.848   0.227   0.000  0.00  0.00    +0.000 C 
ATOM     14  C   UNL     1      -3.211  -0.512   0.000  0.00  0.00    +0.000 C 
ATOM     15  C   UNL     1      -2.750  -1.194   0.000  0.00  0.00    +0.000 C 
ATOM     16  C   UNL     1      -3.196  -1.979   0.000  0.00  0.00    +0.000 C 
ATOM     17  C   UNL     1      -5.665  -2.705   0.000  0.00  0.00    +0.000 A 
ATOM     18  O   UNL     1      -4.875  -2.942   0.000  0.00  0.00    +0.000 OA
ATOM     19  C   UNL     1      -4.403  -2.265   0.000  0.00  0.00    +0.000 A 
ATOM     20  N   UNL     1      -4.904  -1.606   0.000  0.00  0.00    +0.000 NA
ATOM     21  C   UNL     1      -5.681  -1.881   0.000  0.00  0.00    +0.000 A 
ATOM     22  C   UNL     1      -8.354  -3.139   0.000  0.00  0.00    +0.000 C 
ATOM     23  C   UNL     1      -7.584  -2.840   0.000  0.00  0.00    +0.000 C 
ATOM     24  N   UNL     1      -7.628  -2.016   0.000  0.00  0.00    +0.000 N 
ATOM     25  C   UNL     1      -8.428  -1.804   0.000  0.00  0.00    +0.000 C 
ATOM     26  C   UNL     1      -8.873  -2.499   0.000  0.00  0.00    +0.000 C 
ATOM     27  C   UNL     1      -6.660  -1.420   0.000  0.00  0.00    +0.000 C 
ATOM     28  O   UNL     1      -6.692  -0.450   0.000  0.00  0.00    +0.000 OA
ATOM     29  O   UNL     1      -1.929  -1.192   0.000  0.00  0.00    +0.000 OA
ATOM     30  O   UNL     1      -2.025   0.229   0.000  0.00  0.00    +0.000 OA
ATOM     31  C   UNL     1      -2.904   1.629   0.000  0.00  0.00    +0.000 C 
ATOM     32  C   UNL     1      -2.079   1.629   0.000  0.00  0.00    +0.000 C 
ATOM     33  C   UNL     1      -6.867   3.033   0.000  0.00  0.00    +0.000 C 
ATOM     34  C   UNL     1      -8.429  -0.338   0.000  0.00  0.00    +0.000 C 
ATOM     35  O   UNL     1      -9.208   0.067   0.000  0.00  0.00    +0.000 OA
ENDROOT
BRANCH   2  36
ATOM     36  C   UNL     1      -7.992   1.942   0.000  0.00  0.00    +0.000 C 
ATOM     37  C   UNL     1      -7.992   2.817   0.000  0.00  0.00    +0.000 C 
ATOM     38  C   UNL     1      -8.867   1.504   0.000  0.00  0.00    +0.000 C 
ENDBRANCH   2  36
TORSDOF 1
REMARK  Name = 
REMARK  7 active torsions:
REMARK  status: ('A' for Active; 'I' for Inactive)
REMARK    1  A    between atoms: C_2  and  C_34
REMARK    2  A    between atoms: C_40  and  C_41
REMARK    3  A    between atoms: C_50  and  C_95
REMARK    4  A    between atoms: C_59  and  C_60
REMARK    5  A    between atoms: N_61  and  C_74
REMARK    6  A    between atoms: C_69  and  C_70
REMARK    7  A    between atoms: C_91  and  C_95
REMARK                            x       y       z     vdW  Elec       q    Type
REMARK                         _______ _______ _______ _____ _____    ______ ____
ROOT
ATOM      1  C   UNL     1       7.062   1.383   0.000  0.00  0.00    +0.000 C 
ATOM      2  N   UNL     1       7.775   0.975   0.000  0.00  0.00    +0.000 NA
ATOM      3  C   UNL     1       5.595   2.758   0.000  0.00  0.00    +0.000 C 
ATOM      4  N   UNL     1       6.381   2.509   0.000  0.00  0.00    +0.000 N 
ATOM      5  C   UNL     1       6.863   3.179   0.000  0.00  0.00    +0.000 C 
ATOM      6  C   UNL     1       6.371   3.845   0.000  0.00  0.00    +0.000 C 
ATOM      7  C   UNL     1       5.590   3.582   0.000  0.00  0.00    +0.000 C 
ATOM      8  C   UNL     1       4.212  -0.825   0.000  0.00  0.00    +0.000 C 
ATOM      9  C   UNL     1       4.925  -0.413   0.000  0.00  0.00    +0.000 C 
ATOM     10  O   UNL     1       5.637  -0.825   0.000  0.00  0.00    +0.000 OA
ATOM     11  C   UNL     1       6.350  -0.413   0.000  0.00  0.00    +0.000 C 
ATOM     12  C   UNL     1       7.062  -0.825   0.000  0.00  0.00    +0.000 C 
ATOM     13  C   UNL     1       7.775  -0.413   0.000  0.00  0.00    +0.000 C 
ATOM     14  O   UNL     1       8.487  -0.825   0.000  0.00  0.00    +0.000 OA
ATOM     15  N   UNL     1       2.079   0.412   0.000  0.00  0.00    +0.000 N 
ATOM     16  C   UNL     1       2.079  -0.413   0.000  0.00  0.00    +0.000 C 
ATOM     17  C   UNL     1       2.791  -0.821   0.000  0.00  0.00    +0.000 C 
ATOM     18  N   UNL     1       3.503  -0.413   0.000  0.00  0.00    +0.000 NA
ATOM     19  O   UNL     1       3.503   0.412   0.000  0.00  0.00    +0.000 OA
ATOM     20  C   UNL     1       2.791   0.829   0.000  0.00  0.00    +0.000 C 
ATOM     21  C   UNL     1       0.658   0.412   0.000  0.00  0.00    +0.000 C 
ATOM     22  C   UNL     1       0.658  -0.413   0.000  0.00  0.00    +0.000 C 
ATOM     23  C   UNL     1       1.370  -0.821   0.000  0.00  0.00    +0.000 C 
ATOM     24  C   UNL     1       1.370   0.829   0.000  0.00  0.00    +0.000 C 
ATOM     25  O   UNL     1      -0.058  -0.821   0.000  0.00  0.00    +0.000 OA
ATOM     26  O   UNL     1       2.783  -1.646   0.000  0.00  0.00    +0.000 OA
ATOM     27  O   UNL     1       4.921   0.412   0.000  0.00  0.00    +0.000 OA
ATOM     28  C   UNL     1       6.337   0.225   0.000  0.00  0.00    +0.000 C 
ATOM     29  C   UNL     1       2.783   1.654   0.000  0.00  0.00    +0.000 C 
ATOM     30  N   UNL     1       3.496   2.071   0.000  0.00  0.00    +0.000 N 
ATOM     31  C   UNL     1       4.208   1.658   0.000  0.00  0.00    +0.000 C 
ATOM     32  O   UNL     1       4.204   0.833   0.000  0.00  0.00    +0.000 OA
ATOM     33  C   UNL     1       3.492   2.896   0.000  0.00  0.00    +0.000 C 
ATOM     34  C   UNL     1       7.058   2.208   0.000  0.00  0.00    +0.000 C 
ATOM     35  O   UNL     1       7.771   2.625   0.000  0.00  0.00    +0.000 OA
ENDROOT
BRANCH   8  41
ATOM     36  C   UNL     1       3.507  -2.067   0.000  0.00  0.00    +0.000 A 
ATOM     37  C   UNL     1       3.506  -2.894   0.000  0.00  0.00    +0.000 A 
ATOM     38  C   UNL     1       4.221  -3.307   0.000  0.00  0.00    +0.000 A 
ATOM     39  C   UNL     1       4.937  -2.894   0.000  0.00  0.00    +0.000 A 
ATOM     40  C   UNL     1       4.934  -2.063   0.000  0.00  0.00    +0.000 A 
ATOM     41  C   UNL     1       4.219  -1.654   0.000  0.00  0.00    +0.000 A 
ENDBRANCH   8  41
BRANCH  12  43
ATOM     42  C   UNL     1       7.775  -2.063   0.000  0.00  0.00    +0.000 C 
ATOM     43  N   UNL     1       7.058  -1.650   0.000  0.00  0.00    +0.000 NA
ATOM     44  O   UNL     1       8.487  -1.646   0.000  0.00  0.00    +0.000 OA
BRANCH  42  50
ATOM     45  N   UNL     1       7.069  -3.304   0.000  0.00  0.00    +0.000 NA
ATOM     46  C   UNL     1       7.068  -4.132   0.000  0.00  0.00    +0.000 A 
ATOM     47  C   UNL     1       7.783  -4.545   0.000  0.00  0.00    +0.000 A 
ATOM     48  C   UNL     1       8.499  -4.131   0.000  0.00  0.00    +0.000 A 
ATOM     49  C   UNL     1       8.497  -3.301   0.000  0.00  0.00    +0.000 A 
ATOM     50  C   UNL     1       7.781  -2.892   0.000  0.00  0.00    +0.000 A 
ATOM     51  O   UNL     1       9.208  -2.883   0.000  0.00  0.00    +0.000 OA
ENDBRANCH  42  50
ENDBRANCH  12  43
BRANCH   1  53
ATOM     52  C   UNL     1       5.637   1.379   0.000  0.00  0.00    +0.000 C 
ATOM     53  C   UNL     1       6.350   0.971   0.000  0.00  0.00    +0.000 C 
ENDBRANCH   1  53
BRANCH  29  54
ATOM     54  C   UNL     1       2.067   2.067   0.000  0.00  0.00    +0.000 C 
BRANCH  54  57
ATOM     55  C   UNL     1       1.349   4.132   0.000  0.00  0.00    +0.000 A 
ATOM     56  C   UNL     1       1.348   3.304   0.000  0.00  0.00    +0.000 A 
ATOM     57  C   UNL     1       2.062   2.892   0.000  0.00  0.00    +0.000 A 
ATOM     58  C   UNL     1       2.779   3.305   0.000  0.00  0.00    +0.000 A 
ATOM     59  C   UNL     1       2.776   4.135   0.000  0.00  0.00    +0.000 A 
ATOM     60  C   UNL     1       2.061   4.545   0.000  0.00  0.00    +0.000 A 
ENDBRANCH  54  57
ENDBRANCH  29  54
TORSDOF 6
