REMARK  Name = 
REMARK  6 active torsions:
REMARK  status: ('A' for Active; 'I' for Inactive)
REMARK    1  A    between atoms: C_3  and  C_4
REMARK    2  A    between atoms: C_4  and  C_5
REMARK    3  A    between atoms: N_7  and  C_8
REMARK    4  A    between atoms: C_8  and  C_9
REMARK    5  A    between atoms: C_14  and  C_15
REMARK    6  A    between atoms: C_15  and  C_17
REMARK                            x       y       z     vdW  Elec       q    Type
REMARK                         _______ _______ _______ _____ _____    ______ ____
ROOT
ATOM      1  C   UNL     1      -2.868  -2.666   0.000  0.00  0.00    +0.000 C 
ATOM      2  N   UNL     1      -2.697  -3.473   0.000  0.00  0.00    +0.000 N 
ATOM      3  C   UNL     1      -1.943  -3.808   0.000  0.00  0.00    +0.000 A 
ATOM      4  C   UNL     1      -2.030  -4.629   0.000  0.00  0.00    +0.000 A 
ATOM      5  C   UNL     1      -2.836  -4.800   0.000  0.00  0.00    +0.000 A 
ATOM      6  C   UNL     1      -3.249  -4.086   0.000  0.00  0.00    +0.000 A 
ENDROOT
BRANCH   6   7
ATOM      7  C   UNL     1      -4.069  -3.999   0.000  0.00  0.00    +0.000 C 
ATOM      8  O   UNL     1      -4.405  -3.246   0.000  0.00  0.00    +0.000 OA
BRANCH   7   9
ATOM      9  C   UNL     1      -4.554  -4.667   0.000  0.00  0.00    +0.000 A 
ATOM     10  C   UNL     1      -4.219  -5.421   0.000  0.00  0.00    +0.000 A 
ATOM     11  C   UNL     1      -4.704  -6.088   0.000  0.00  0.00    +0.000 A 
ATOM     12  C   UNL     1      -5.524  -6.002   0.000  0.00  0.00    +0.000 A 
ATOM     13  C   UNL     1      -6.009  -6.669   0.000  0.00  0.00    +0.000 C 
ATOM     14  C   UNL     1      -5.860  -5.248   0.000  0.00  0.00    +0.000 A 
ATOM     15  C   UNL     1      -5.375  -4.581   0.000  0.00  0.00    +0.000 A 
ENDBRANCH   7   9
ENDBRANCH   6   7
BRANCH   3  16
ATOM     16  C   UNL     1      -1.229  -3.396   0.000  0.00  0.00    +0.000 C 
BRANCH  16  17
ATOM     17  C   UNL     1      -0.514  -3.808   0.000  0.00  0.00    +0.000 C 
ATOM     18  O   UNL     1      -0.514  -4.633   0.000  0.00  0.00    +0.000 OA
ATOM     19  N   UNL     1       0.200  -3.396   0.000  0.00  0.00    +0.000 NA
BRANCH  19  20
ATOM     20  C   UNL     1       0.915  -3.808   0.000  0.00  0.00    +0.000 C 
BRANCH  20  21
ATOM     21  C   UNL     1       1.629  -3.396   0.000  0.00  0.00    +0.000 C 
ATOM     22  O   UNL     1       2.344  -3.808   0.000  0.00  0.00    +0.000 OA
ATOM     23  O   UNL     1       1.629  -2.571   0.000  0.00  0.00    +0.000 OA
ENDBRANCH  20  21
ENDBRANCH  19  20
ENDBRANCH  16  17
ENDBRANCH   3  16
TORSDOF 6
