REMARK  Name = 
REMARK  7 active torsions:
REMARK  status: ('A' for Active; 'I' for Inactive)
REMARK    1  A    between atoms: O_2  and  C_17
REMARK    2  A    between atoms: O_2  and  C_24
REMARK    3  A    between atoms: O_3  and  C_18
REMARK    4  A    between atoms: O_3  and  C_25
REMARK    5  A    between atoms: C_9  and  C_10
REMARK    6  A    between atoms: C_11  and  C_17
REMARK    7  A    between atoms: C_12  and  C_18
REMARK                            x       y       z     vdW  Elec       q    Type
REMARK                         _______ _______ _______ _____ _____    ______ ____
ROOT
ATOM      1  N   UNL     1      -0.021   2.335   0.000  0.00  0.00    +0.000 NA
ATOM      2  C   UNL     1      -0.021   0.691   0.000  0.00  0.00    +0.000 C 
ATOM      3  C   UNL     1       0.691   1.114   0.000  0.00  0.00    +0.000 C 
ATOM      4  C   UNL     1      -0.734   1.114   0.000  0.00  0.00    +0.000 C 
ATOM      5  C   UNL     1       0.691   1.911   0.000  0.00  0.00    +0.000 C 
ATOM      6  C   UNL     1      -0.734   1.911   0.000  0.00  0.00    +0.000 C 
ATOM      7  C   UNL     1       1.411   2.335   0.000  0.00  0.00    +0.000 C 
ATOM      8  C   UNL     1      -1.411   2.335   0.000  0.00  0.00    +0.000 C 
ENDROOT
BRANCH   2  12
ATOM      9  O   UNL     1      -1.897  -1.538   0.000  0.00  0.00    +0.000 OA
ATOM     10  N   UNL     1      -1.453  -0.924   0.000  0.00  0.00    +0.000 NA
ATOM     11  N   UNL     1      -1.453  -2.151   0.000  0.00  0.00    +0.000 NA
ATOM     12  C   UNL     1      -0.021  -0.741   0.000  0.00  0.00    +0.000 A 
ATOM     13  C   UNL     1      -0.734  -1.157   0.000  0.00  0.00    +0.000 A 
ATOM     14  C   UNL     1      -0.734  -1.911   0.000  0.00  0.00    +0.000 A 
ATOM     15  C   UNL     1       0.691  -1.157   0.000  0.00  0.00    +0.000 A 
ATOM     16  C   UNL     1      -0.021  -2.335   0.000  0.00  0.00    +0.000 A 
ATOM     17  C   UNL     1       0.691  -1.911   0.000  0.00  0.00    +0.000 A 
ENDBRANCH   2  12
BRANCH   4  19
ATOM     18  O   UNL     1      -1.411  -0.106   0.000  0.00  0.00    +0.000 OA
ATOM     19  C   UNL     1      -1.411   0.734   0.000  0.00  0.00    +0.000 C 
BRANCH  19  20
ATOM     20  O   UNL     1      -2.123   1.114   0.000  0.00  0.00    +0.000 OA
BRANCH  20  21
ATOM     21  C   UNL     1      -2.835   0.734   0.000  0.00  0.00    +0.000 C 
ATOM     22  C   UNL     1      -3.527   1.164   0.000  0.00  0.00    +0.000 C 
ENDBRANCH  20  21
ENDBRANCH  19  20
ENDBRANCH   4  19
BRANCH   3  24
ATOM     23  O   UNL     1       1.411  -0.106   0.000  0.00  0.00    +0.000 OA
ATOM     24  C   UNL     1       1.411   0.691   0.000  0.00  0.00    +0.000 C 
BRANCH  24  25
ATOM     25  O   UNL     1       2.081   1.114   0.000  0.00  0.00    +0.000 OA
BRANCH  25  26
ATOM     26  C   UNL     1       2.793   0.691   0.000  0.00  0.00    +0.000 C 
ATOM     27  C   UNL     1       3.527   1.107   0.000  0.00  0.00    +0.000 C 
ENDBRANCH  25  26
ENDBRANCH  24  25
ENDBRANCH   3  24
TORSDOF 7
