REMARK  Name = 
REMARK  8 active torsions:
REMARK  status: ('A' for Active; 'I' for Inactive)
REMARK    1  A    between atoms: C_3  and  C_9
REMARK    2  A    between atoms: C_9  and  O_10
REMARK    3  A    between atoms: O_10  and  C_11
REMARK    4  A    between atoms: C_11  and  C_12
REMARK    5  A    between atoms: C_15  and  C_18
REMARK    6  A    between atoms: C_18  and  C_19
REMARK    7  A    between atoms: C_18  and  C_32
REMARK    8  A    between atoms: N_20  and  C_21
REMARK                            x       y       z     vdW  Elec       q    Type
REMARK                         _______ _______ _______ _____ _____    ______ ____
ROOT
ATOM      1  C   UNL     1      -1.066   0.703   0.000  0.00  0.00    +0.000 A 
ATOM      2  C   UNL     1      -0.351   1.115   0.000  0.00  0.00    +0.000 A 
ATOM      3  C   UNL     1       0.363   0.703   0.000  0.00  0.00    +0.000 A 
ATOM      4  C   UNL     1       0.363  -0.121   0.000  0.00  0.00    +0.000 A 
ATOM      5  C   UNL     1      -0.351  -0.533   0.000  0.00  0.00    +0.000 A 
ATOM      6  C   UNL     1      -1.066  -0.133   0.000  0.00  0.00    +0.000 A 
ENDROOT
BRANCH   1   7
ATOM      7  C   UNL     1      -1.781   1.115   0.000  0.00  0.00    +0.000 C 
BRANCH   7   8
ATOM      8  O   UNL     1      -2.484   0.703   0.000  0.00  0.00    +0.000 OA
BRANCH   8   9
ATOM      9  C   UNL     1      -3.199   1.115   0.000  0.00  0.00    +0.000 C 
ATOM     10  O   UNL     1      -3.199   1.939   0.000  0.00  0.00    +0.000 OA
BRANCH   9  13
ATOM     11  C   UNL     1      -4.628   1.115   0.000  0.00  0.00    +0.000 A 
ATOM     12  C   UNL     1      -5.343   0.703   0.000  0.00  0.00    +0.000 A 
ATOM     13  C   UNL     1      -3.913   0.703   0.000  0.00  0.00    +0.000 A 
ATOM     14  C   UNL     1      -3.913  -0.121   0.000  0.00  0.00    +0.000 A 
ATOM     15  C   UNL     1      -4.628  -0.533   0.000  0.00  0.00    +0.000 A 
ATOM     16  C   UNL     1      -5.343  -0.133   0.000  0.00  0.00    +0.000 A 
ATOM     17  C   UNL     1      -6.058  -0.545   0.000  0.00  0.00    +0.000 C 
ATOM     18  C   UNL     1      -3.199  -0.533   0.000  0.00  0.00    +0.000 C 
ENDBRANCH   9  13
ENDBRANCH   8   9
ENDBRANCH   7   8
ENDBRANCH   1   7
BRANCH   4  19
ATOM     19  C   UNL     1       1.078  -0.533   0.000  0.00  0.00    +0.000 C 
BRANCH  19  20
ATOM     20  C   UNL     1       1.781  -0.133   0.000  0.00  0.00    +0.000 C 
ATOM     21  N   UNL     1       2.496  -0.533   0.000  0.00  0.00    +0.000 NA
ATOM     22  O   UNL     1       1.781   0.691   0.000  0.00  0.00    +0.000 OA
BRANCH  21  23
ATOM     23  C   UNL     1       3.211  -0.133   0.000  0.00  0.00    +0.000 A 
ATOM     24  C   UNL     1       3.211   0.703   0.000  0.00  0.00    +0.000 A 
ATOM     25  C   UNL     1       3.926   1.103   0.000  0.00  0.00    +0.000 A 
ATOM     26  C   UNL     1       4.641   0.691   0.000  0.00  0.00    +0.000 A 
ATOM     27  C   UNL     1       4.641  -0.121   0.000  0.00  0.00    +0.000 A 
ATOM     28  C   UNL     1       3.926  -0.545   0.000  0.00  0.00    +0.000 A 
ATOM     29  C   UNL     1       5.355  -0.533   0.000  0.00  0.00    +0.000 A 
ATOM     30  C   UNL     1       6.058  -0.121   0.000  0.00  0.00    +0.000 A 
ATOM     31  N   UNL     1       6.058   0.691   0.000  0.00  0.00    +0.000 NA
ATOM     32  C   UNL     1       5.343   1.103   0.000  0.00  0.00    +0.000 A 
ENDBRANCH  21  23
ENDBRANCH  19  20
BRANCH  19  33
ATOM     33  C   UNL     1       1.078  -1.357   0.000  0.00  0.00    +0.000 C 
ATOM     34  N   UNL     1       0.497  -1.939   0.000  0.00  0.00    +0.000 NA
ENDBRANCH  19  33
ENDBRANCH   4  19
TORSDOF 8
