REMARK  Name = 
REMARK  1 active torsions:
REMARK  status: ('A' for Active; 'I' for Inactive)
REMARK    1  A    between atoms: C_4  and  C_21
REMARK                            x       y       z     vdW  Elec       q    Type
REMARK                         _______ _______ _______ _____ _____    ______ ____
ROOT
ATOM      1  C   UNL     1       0.256   0.175   0.000  0.00  0.00    +0.000 C 
ATOM      2  C   UNL     1       0.970   0.588   0.000  0.00  0.00    +0.000 C 
ATOM      3  C   UNL     1      -0.459   0.588   0.000  0.00  0.00    +0.000 C 
ATOM      4  C   UNL     1       0.970   1.413   0.000  0.00  0.00    +0.000 C 
ATOM      5  C   UNL     1      -0.459   1.413   0.000  0.00  0.00    +0.000 C 
ATOM      6  O   UNL     1       0.256   1.826   0.000  0.00  0.00    +0.000 OA
ATOM      7  O   UNL     1       0.256  -0.649   0.000  0.00  0.00    +0.000 OA
ATOM      8  C   UNL     1      -0.459  -1.062   0.000  0.00  0.00    +0.000 C 
ATOM      9  O   UNL     1      -1.173  -0.649   0.000  0.00  0.00    +0.000 OA
ATOM     10  C   UNL     1      -1.173   1.825   0.000  0.00  0.00    +0.000 C 
ATOM     11  C   UNL     1      -1.888   1.413   0.000  0.00  0.00    +0.000 C 
ATOM     12  C   UNL     1      -2.602   0.175   0.000  0.00  0.00    +0.000 C 
ATOM     13  C   UNL     1      -1.888  -1.062   0.000  0.00  0.00    +0.000 C 
ATOM     14  C   UNL     1      -2.602  -0.649   0.000  0.00  0.00    +0.000 C 
ATOM     15  C   UNL     1      -2.602   1.826   0.000  0.00  0.00    +0.000 C 
ATOM     16  C   UNL     1      -3.317   0.588   0.000  0.00  0.00    +0.000 C 
ATOM     17  C   UNL     1      -3.317   1.413   0.000  0.00  0.00    +0.000 C 
ATOM     18  C   UNL     1      -0.459  -1.887   0.000  0.00  0.00    +0.000 C 
ATOM     19  C   UNL     1      -1.888  -1.887   0.000  0.00  0.00    +0.000 C 
ATOM     20  C   UNL     1      -1.173  -2.299   0.000  0.00  0.00    +0.000 C 
ATOM     21  C   UNL     1      -1.174  -3.124   0.000  0.00  0.00    +0.000 C 
ATOM     22  C   UNL     1      -2.602   2.651   0.000  0.00  0.00    +0.000 C 
ATOM     23  O   UNL     1       0.951   2.241   0.000  0.00  0.00    +0.000 OA
ENDROOT
BRANCH   4  24
ATOM     24  C   UNL     1       1.754   1.670   0.000  0.00  0.00    +0.000 C 
ATOM     25  C   UNL     1       2.422   1.186   0.000  0.00  0.00    +0.000 C 
ATOM     26  N   UNL     1       2.008   2.455   0.000  0.00  0.00    +0.000 NA
ATOM     27  S   UNL     1       3.089   1.672   0.000  0.00  0.00    +0.000 S 
ATOM     28  C   UNL     1       2.833   2.456   0.000  0.00  0.00    +0.000 C 
ATOM     29  O   UNL     1       3.317   3.124   0.000  0.00  0.00    +0.000 OA
ENDBRANCH   4  24
TORSDOF 1
