REMARK  Name = 
REMARK  6 active torsions:
REMARK  status: ('A' for Active; 'I' for Inactive)
REMARK    1  A    between atoms: C_3  and  C_26
REMARK    2  A    between atoms: C_6  and  C_7
REMARK    3  A    between atoms: N_13  and  C_14
REMARK    4  A    between atoms: C_17  and  N_20
REMARK    5  A    between atoms: N_28  and  C_29
REMARK    6  A    between atoms: C_29  and  C_30
REMARK                            x       y       z     vdW  Elec       q    Type
REMARK                         _______ _______ _______ _____ _____    ______ ____
ROOT
ATOM      1  C   UNL     1      -0.715  -5.362   0.000  0.00  0.00    +0.000 A 
ATOM      2  C   UNL     1      -1.429  -4.950   0.000  0.00  0.00    +0.000 A 
ATOM      3  C   UNL     1      -1.429  -4.125   0.000  0.00  0.00    +0.000 A 
ATOM      4  N   UNL     1      -0.715  -3.712   0.000  0.00  0.00    +0.000 NA
ATOM      5  C   UNL     1       0.000  -4.125   0.000  0.00  0.00    +0.000 A 
ATOM      6  N   UNL     1       0.000  -4.950   0.000  0.00  0.00    +0.000 NA
ATOM      7  N   UNL     1       0.715  -3.712   0.000  0.00  0.00    +0.000 NA
ENDROOT
BRANCH   1  13
ATOM      8  C   UNL     1       0.000  -6.600   0.000  0.00  0.00    +0.000 A 
ATOM      9  C   UNL     1       0.000  -7.425   0.000  0.00  0.00    +0.000 A 
ATOM     10  C   UNL     1      -0.715  -7.838   0.000  0.00  0.00    +0.000 A 
ATOM     11  C   UNL     1      -1.429  -7.425   0.000  0.00  0.00    +0.000 A 
ATOM     12  C   UNL     1      -1.429  -6.600   0.000  0.00  0.00    +0.000 A 
ATOM     13  C   UNL     1      -0.715  -6.188   0.000  0.00  0.00    +0.000 A 
BRANCH  10  14
ATOM     14  C   UNL     1      -0.715  -8.662   0.000  0.00  0.00    +0.000 C 
ATOM     15  O   UNL     1      -1.429  -9.075   0.000  0.00  0.00    +0.000 OA
ATOM     16  N   UNL     1       0.000  -9.075   0.000  0.00  0.00    +0.000 NA
BRANCH  16  17
ATOM     17  C   UNL     1       0.000  -9.900   0.000  0.00  0.00    +0.000 C 
BRANCH  17  18
ATOM     18  C   UNL     1       0.715 -10.312   0.000  0.00  0.00    +0.000 C 
ATOM     19  N   UNL     1       1.429 -10.725   0.000  0.00  0.00    +0.000 NA
ENDBRANCH  17  18
ENDBRANCH  16  17
ENDBRANCH  10  14
ENDBRANCH   1  13
BRANCH   7  20
ATOM     20  C   UNL     1       0.715  -2.888   0.000  0.00  0.00    +0.000 A 
ATOM     21  C   UNL     1       0.000  -2.475   0.000  0.00  0.00    +0.000 A 
ATOM     22  C   UNL     1       0.000  -1.650   0.000  0.00  0.00    +0.000 A 
ATOM     23  C   UNL     1       0.715  -1.238   0.000  0.00  0.00    +0.000 A 
ATOM     24  C   UNL     1       1.429  -1.650   0.000  0.00  0.00    +0.000 A 
ATOM     25  C   UNL     1       1.429  -2.475   0.000  0.00  0.00    +0.000 A 
BRANCH  23  26
ATOM     26  N   UNL     1       0.715  -0.412   0.000  0.00  0.00    +0.000 N 
ATOM     27  C   UNL     1       0.000   0.000   0.000  0.00  0.00    +0.000 C 
ATOM     28  C   UNL     1       0.000   0.825   0.000  0.00  0.00    +0.000 C 
ATOM     29  O   UNL     1       0.715   1.238   0.000  0.00  0.00    +0.000 OA
ATOM     30  C   UNL     1       1.429   0.825   0.000  0.00  0.00    +0.000 C 
ATOM     31  C   UNL     1       1.429   0.000   0.000  0.00  0.00    +0.000 C 
ENDBRANCH  23  26
ENDBRANCH   7  20
TORSDOF 6
