REMARK  Name = 
REMARK  4 active torsions:
REMARK  status: ('A' for Active; 'I' for Inactive)
REMARK    1  A    between atoms: C_2  and  C_3
REMARK    2  A    between atoms: C_7  and  C_8
REMARK    3  A    between atoms: N_22  and  C_23
REMARK    4  A    between atoms: C_23  and  C_24
REMARK                            x       y       z     vdW  Elec       q    Type
REMARK                         _______ _______ _______ _____ _____    ______ ____
ROOT
ATOM      1  C   UNL     1       1.627  -3.043   0.000  0.00  0.00    +0.000 C 
ATOM      2  C   UNL     1       2.448  -3.130   0.000  0.00  0.00    +0.000 C 
ATOM      3  N   UNL     1       2.619  -3.937   0.000  0.00  0.00    +0.000 N 
ATOM      4  C   UNL     1       1.905  -4.349   0.000  0.00  0.00    +0.000 C 
ATOM      5  C   UNL     1       1.292  -3.797   0.000  0.00  0.00    +0.000 C 
ATOM      6  C   UNL     1       3.373  -4.272   0.000  0.00  0.00    +0.000 C 
ATOM      7  O   UNL     1       3.459  -5.093   0.000  0.00  0.00    +0.000 OA
ATOM      8  N   UNL     1       4.040  -3.787   0.000  0.00  0.00    +0.000 NA
ENDROOT
BRANCH   5   9
ATOM      9  C   UNL     1       0.485  -3.969   0.000  0.00  0.00    +0.000 A 
ATOM     10  C   UNL     1       0.149  -4.722   0.000  0.00  0.00    +0.000 A 
ATOM     11  N   UNL     1      -0.671  -4.636   0.000  0.00  0.00    +0.000 NA
ATOM     12  C   UNL     1      -0.843  -3.829   0.000  0.00  0.00    +0.000 A 
ATOM     13  C   UNL     1      -1.557  -3.417   0.000  0.00  0.00    +0.000 A 
ATOM     14  N   UNL     1      -1.557  -2.591   0.000  0.00  0.00    +0.000 NA
ATOM     15  C   UNL     1      -0.843  -2.179   0.000  0.00  0.00    +0.000 A 
ATOM     16  C   UNL     1      -0.128  -2.591   0.000  0.00  0.00    +0.000 A 
ATOM     17  C   UNL     1       0.485  -2.039   0.000  0.00  0.00    +0.000 A 
ATOM     18  C   UNL     1       0.149  -1.286   0.000  0.00  0.00    +0.000 A 
ATOM     19  N   UNL     1      -0.671  -1.372   0.000  0.00  0.00    +0.000 NA
ATOM     20  N   UNL     1      -0.128  -3.417   0.000  0.00  0.00    +0.000 N 
ENDBRANCH   5   9
BRANCH   1  22
ATOM     21  C   UNL     1       1.627  -1.614   0.000  0.00  0.00    +0.000 C 
ATOM     22  C   UNL     1       1.215  -2.329   0.000  0.00  0.00    +0.000 C 
ENDBRANCH   1  22
BRANCH   8  23
ATOM     23  C   UNL     1       4.794  -4.123   0.000  0.00  0.00    +0.000 C 
BRANCH  23  24
ATOM     24  C   UNL     1       5.462  -3.638   0.000  0.00  0.00    +0.000 C 
ATOM     25  F   UNL     1       6.129  -3.153   0.000  0.00  0.00    +0.000 F 
ATOM     26  F   UNL     1       5.947  -4.305   0.000  0.00  0.00    +0.000 F 
ATOM     27  F   UNL     1       4.977  -2.970   0.000  0.00  0.00    +0.000 F 
ENDBRANCH  23  24
ENDBRANCH   8  23
TORSDOF 4
