REMARK  Name = 
REMARK  3 active torsions:
REMARK  status: ('A' for Active; 'I' for Inactive)
REMARK    1  A    between atoms: N_2  and  C_10
REMARK    2  A    between atoms: N_11  and  C_13
REMARK    3  A    between atoms: C_19  and  C_21
REMARK                            x       y       z     vdW  Elec       q    Type
REMARK                         _______ _______ _______ _____ _____    ______ ____
ROOT
ATOM      1  C   UNL     1       0.488  -0.213   0.000  0.00  0.00    +0.000 A 
ATOM      2  N   UNL     1       1.281  -0.457   0.000  0.00  0.00    +0.000 N 
ATOM      3  C   UNL     1       0.488   0.623   0.000  0.00  0.00    +0.000 A 
ATOM      4  C   UNL     1      -0.222   1.032   0.000  0.00  0.00    +0.000 A 
ATOM      5  N   UNL     1      -0.222  -0.619   0.000  0.00  0.00    +0.000 NA
ATOM      6  N   UNL     1       1.281   0.871   0.000  0.00  0.00    +0.000 NA
ATOM      7  N   UNL     1      -0.941   0.623   0.000  0.00  0.00    +0.000 NA
ATOM      8  C   UNL     1       1.764   0.218   0.000  0.00  0.00    +0.000 A 
ATOM      9  C   UNL     1      -0.941  -0.213   0.000  0.00  0.00    +0.000 A 
ATOM     10  N   UNL     1      -0.222   1.864   0.000  0.00  0.00    +0.000 NA
ATOM     11  N   UNL     1      -1.659  -0.619   0.000  0.00  0.00    +0.000 NA
ENDROOT
BRANCH   2  12
ATOM     12  C   UNL     1       1.272  -2.187   0.000  0.00  0.00    +0.000 C 
ATOM     13  C   UNL     1       1.011  -2.992   0.000  0.00  0.00    +0.000 C 
ATOM     14  C   UNL     1       0.187  -2.992   0.000  0.00  0.00    +0.000 C 
ATOM     15  C   UNL     1       0.614  -1.716   0.000  0.00  0.00    +0.000 C 
ATOM     16  C   UNL     1      -0.052  -2.208   0.000  0.00  0.00    +0.000 C 
BRANCH  16  18
ATOM     17  O   UNL     1      -1.459  -2.095   0.000  0.00  0.00    +0.000 OA
ATOM     18  C   UNL     1      -0.688  -1.716   0.000  0.00  0.00    +0.000 C 
ENDBRANCH  16  18
ENDBRANCH   2  12
BRANCH  10  19
ATOM     19  C   UNL     1      -0.936   2.274   0.000  0.00  0.00    +0.000 C 
ATOM     20  C   UNL     1      -1.764   2.282   0.000  0.00  0.00    +0.000 C 
ATOM     21  C   UNL     1      -1.355   2.992   0.000  0.00  0.00    +0.000 C 
ENDBRANCH  10  19
TORSDOF 3
