REMARK  Name = 
REMARK  4 active torsions:
REMARK  status: ('A' for Active; 'I' for Inactive)
REMARK    1  A    between atoms: O_2  and  C_3
REMARK    2  A    between atoms: C_4  and  O_5
REMARK    3  A    between atoms: O_5  and  P_6
REMARK    4  A    between atoms: C_13  and  C_17
REMARK                            x       y       z     vdW  Elec       q    Type
REMARK                         _______ _______ _______ _____ _____    ______ ____
ROOT
ATOM      1  C   UNL     1      -0.715  -1.238   0.000  0.00  0.00    +0.000 A 
ATOM      2  C   UNL     1       0.000  -1.650   0.000  0.00  0.00    +0.000 A 
ATOM      3  C   UNL     1       0.715  -1.238   0.000  0.00  0.00    +0.000 A 
ATOM      4  C   UNL     1       0.715  -0.412   0.000  0.00  0.00    +0.000 A 
ATOM      5  N   UNL     1       1.429   0.000   0.000  0.00  0.00    +0.000 NA
ATOM      6  C   UNL     1       2.143  -0.412   0.000  0.00  0.00    +0.000 A 
ATOM      7  C   UNL     1       2.143  -1.238   0.000  0.00  0.00    +0.000 A 
ATOM      8  C   UNL     1       1.429  -1.650   0.000  0.00  0.00    +0.000 A 
ATOM      9  O   UNL     1       1.429  -2.475   0.000  0.00  0.00    +0.000 OA
ATOM     10  C   UNL     1       0.000   0.000   0.000  0.00  0.00    +0.000 A 
ATOM     11  C   UNL     1      -0.715  -0.412   0.000  0.00  0.00    +0.000 A 
ENDROOT
BRANCH   6  12
ATOM     12  C   UNL     1       2.858   0.000   0.000  0.00  0.00    +0.000 A 
ATOM     13  C   UNL     1       2.858   0.825   0.000  0.00  0.00    +0.000 A 
ATOM     14  C   UNL     1       3.572   1.238   0.000  0.00  0.00    +0.000 A 
ATOM     15  F   UNL     1       3.572   2.062   0.000  0.00  0.00    +0.000 F 
ATOM     16  C   UNL     1       4.287   0.825   0.000  0.00  0.00    +0.000 A 
ATOM     17  C   UNL     1       4.287   0.000   0.000  0.00  0.00    +0.000 A 
ATOM     18  C   UNL     1       3.572  -0.412   0.000  0.00  0.00    +0.000 A 
ENDBRANCH   6  12
BRANCH   1  20
ATOM     19  C   UNL     1      -2.143  -1.238   0.000  0.00  0.00    +0.000 C 
ATOM     20  O   UNL     1      -1.429  -1.650   0.000  0.00  0.00    +0.000 OA
ENDBRANCH   1  20
BRANCH   2  21
ATOM     21  O   UNL     1       0.000  -2.475   0.000  0.00  0.00    +0.000 OA
BRANCH  21  22
ATOM     22  P   UNL     1      -0.715  -2.888   0.000  0.00  0.00    +0.000 P 
ATOM     23  O   UNL     1      -1.127  -2.173   0.000  0.00  0.00    +0.000 OA
ATOM     24  O   UNL     1      -0.302  -3.602   0.000  0.00  0.00    +0.000 OA
ATOM     25  O   UNL     1      -1.429  -3.300   0.000  0.00  0.00    +0.000 OA
ENDBRANCH  21  22
ENDBRANCH   2  21
TORSDOF 4
