REMARK  Name = 
REMARK  3 active torsions:
REMARK  status: ('A' for Active; 'I' for Inactive)
REMARK    1  A    between atoms: C_2  and  C_4
REMARK    2  A    between atoms: C_4  and  N_5
REMARK    3  A    between atoms: C_6  and  C_8
REMARK                            x       y       z     vdW  Elec       q    Type
REMARK                         _______ _______ _______ _____ _____    ______ ____
ROOT
ATOM      1  N   UNL     1       2.143  -2.888   0.000  0.00  0.00    +0.000 NA
ATOM      2  C   UNL     1       2.858  -2.475   0.000  0.00  0.00    +0.000 C 
ATOM      3  O   UNL     1       2.858  -1.650   0.000  0.00  0.00    +0.000 OA
ENDROOT
BRANCH   2   4
ATOM      4  C   UNL     1       3.572  -2.888   0.000  0.00  0.00    +0.000 A 
ATOM      5  C   UNL     1       4.287  -2.475   0.000  0.00  0.00    +0.000 A 
ATOM      6  C   UNL     1       5.001  -2.888   0.000  0.00  0.00    +0.000 A 
ATOM      7  C   UNL     1       5.001  -3.712   0.000  0.00  0.00    +0.000 A 
ATOM      8  C   UNL     1       4.287  -4.125   0.000  0.00  0.00    +0.000 A 
ATOM      9  C   UNL     1       3.572  -3.712   0.000  0.00  0.00    +0.000 A 
ATOM     10  I   UNL     1       2.858  -4.125   0.000  0.00  0.00    +0.000 I 
ENDBRANCH   2   4
BRANCH   1  11
ATOM     11  C   UNL     1       1.429  -2.475   0.000  0.00  0.00    +0.000 C 
BRANCH  11  13
ATOM     12  O   UNL     1       0.000  -2.475   0.000  0.00  0.00    +0.000 OA
ATOM     13  C   UNL     1       0.715  -2.888   0.000  0.00  0.00    +0.000 C 
ATOM     14  O   UNL     1       0.715  -3.712   0.000  0.00  0.00    +0.000 OA
ENDBRANCH  11  13
ENDBRANCH   1  11
TORSDOF 3
