REMARK  Name = 
REMARK  5 active torsions:
REMARK  status: ('A' for Active; 'I' for Inactive)
REMARK    1  A    between atoms: CG_1  and  CB_2
REMARK    2  A    between atoms: CG_1  and  SD_10
REMARK    3  A    between atoms: CB_2  and  CA_3
REMARK    4  A    between atoms: CA_3  and  N_4
REMARK    5  A    between atoms: CA_3  and  C_7
REMARK                            x       y       z     vdW  Elec       q    Type
REMARK                         _______ _______ _______ _____ _____    ______ ____
ROOT
ATOM      1  CA  MET A   1       0.715   0.412   0.000  0.00  0.00    +0.000 C 
ENDROOT
BRANCH   1   2
ATOM      2  N   MET A   1       0.715  -0.412   0.000  0.00  0.00    +0.000 NA
ATOM      3  C   UNK A   0       0.000  -0.825   0.000  0.00  0.00    +0.000 C 
ATOM      4  O   UNK A   0      -0.000  -1.650   0.000  0.00  0.00    +0.000 OA
ENDBRANCH   1   2
BRANCH   1   5
ATOM      5  C   MET A   1       1.429   0.825   0.000  0.00  0.00    +0.000 C 
ATOM      6  O   MET A   1       1.429   1.650   0.000  0.00  0.00    +0.000 OA
ATOM      7  OXT MET A   1       2.143   0.412   0.000  0.00  0.00    +0.000 OA
ENDBRANCH   1   5
BRANCH   1   8
ATOM      8  CB  MET A   1       0.000   0.825   0.000  0.00  0.00    +0.000 C 
BRANCH   8   9
ATOM      9  CG  MET A   1      -0.715   0.412   0.000  0.00  0.00    +0.000 C 
BRANCH   9  10
ATOM     10  SD  MET A   1      -1.429   0.825   0.000  0.00  0.00    +0.000 S 
ATOM     11  CE  MET A   1      -2.143   0.413   0.000  0.00  0.00    +0.000 C 
ENDBRANCH   9  10
ENDBRANCH   8   9
ENDBRANCH   1   8
TORSDOF 5
