REMARK  Name = 
REMARK  4 active torsions:
REMARK  status: ('A' for Active; 'I' for Inactive)
REMARK    1  A    between atoms: P_1  and  O_5
REMARK    2  A    between atoms: O_5  and  C_21
REMARK    3  A    between atoms: N_10  and  C_15
REMARK    4  A    between atoms: C_18  and  C_21
REMARK                            x       y       z     vdW  Elec       q    Type
REMARK                         _______ _______ _______ _____ _____    ______ ____
ROOT
ATOM      1  O   UNL     1      -1.712  -2.738   0.000  0.00  0.00    +0.000 OA
ATOM      2  N   UNL     1      -0.217  -0.424   0.000  0.00  0.00    +0.000 N 
ATOM      3  N   UNL     1      -0.217  -1.752   0.000  0.00  0.00    +0.000 N 
ATOM      4  N   UNL     1      -1.712  -0.263   0.000  0.00  0.00    +0.000 N 
ATOM      5  N   UNL     1      -2.426  -1.500   0.000  0.00  0.00    +0.000 NA
ATOM      6  N   UNL     1      -3.141  -0.263   0.000  0.00  0.00    +0.000 N 
ATOM      7  C   UNL     1       0.265  -1.088   0.000  0.00  0.00    +0.000 C 
ATOM      8  C   UNL     1      -0.998  -0.675   0.000  0.00  0.00    +0.000 A 
ATOM      9  C   UNL     1      -0.998  -1.500   0.000  0.00  0.00    +0.000 A 
ATOM     10  C   UNL     1       0.039  -2.536   0.000  0.00  0.00    +0.000 C 
ATOM     11  C   UNL     1      -1.712  -1.913   0.000  0.00  0.00    +0.000 A 
ATOM     12  C   UNL     1      -2.426  -0.675   0.000  0.00  0.00    +0.000 A 
ATOM     13  H   UNL     1      -1.712   0.249   0.000  0.00  0.00    +0.000 HD
ATOM     14  H   UNL     1      -3.584  -0.519   0.000  0.00  0.00    +0.000 HD
ATOM     15  H   UNL     1      -3.141   0.249   0.000  0.00  0.00    +0.000 HD
ENDROOT
BRANCH   2  19
ATOM     16  O   UNL     1       0.825   0.614   0.000  0.00  0.00    +0.000 OA
ATOM     17  O   UNL     1      -1.269   1.030   0.000  0.00  0.00    +0.000 OA
ATOM     18  O   UNL     1      -0.212   2.480   0.000  0.00  0.00    +0.000 OA
ATOM     19  C   UNL     1       0.039   0.360   0.000  0.00  0.00    +0.000 C 
ATOM     20  C   UNL     1      -0.444   1.028   0.000  0.00  0.00    +0.000 C 
ATOM     21  C   UNL     1       0.042   1.695   0.000  0.00  0.00    +0.000 C 
ATOM     22  C   UNL     1       0.826   1.439   0.000  0.00  0.00    +0.000 C 
BRANCH  22  23
ATOM     23  C   UNL     1       1.494   1.923   0.000  0.00  0.00    +0.000 C 
BRANCH  23  24
ATOM     24  O   UNL     1       2.247   1.586   0.000  0.00  0.00    +0.000 OA
BRANCH  24  25
ATOM     25  P   UNL     1       2.916   2.070   0.000  0.00  0.00    +0.000 P 
ATOM     26  O   UNL     1       3.399   1.401   0.000  0.00  0.00    +0.000 OA
ATOM     27  O   UNL     1       3.584   2.553   0.000  0.00  0.00    +0.000 OA
ATOM     28  O   UNL     1       2.432   2.738   0.000  0.00  0.00    +0.000 OA
ENDBRANCH  24  25
ENDBRANCH  23  24
ENDBRANCH  22  23
ENDBRANCH   2  19
TORSDOF 4
