REMARK  Name = 
REMARK  7 active torsions:
REMARK  status: ('A' for Active; 'I' for Inactive)
REMARK    1  A    between atoms: C_5  and  C_6
REMARK    2  A    between atoms: C_6  and  C_7
REMARK    3  A    between atoms: C_6  and  C_13
REMARK    4  A    between atoms: C_13  and  O_15
REMARK    5  A    between atoms: O_15  and  C_16
REMARK    6  A    between atoms: C_16  and  C_17
REMARK    7  A    between atoms: C_17  and  N_18
REMARK                            x       y       z     vdW  Elec       q    Type
REMARK                         _______ _______ _______ _____ _____    ______ ____
ROOT
ATOM      1  C   UNL     1       1.304  -4.050   0.000  0.00  0.00    +0.000 C 
ENDROOT
BRANCH   1   2
ATOM      2  C   UNL     1       0.589  -4.462   0.000  0.00  0.00    +0.000 C 
ATOM      3  C   UNL     1       0.589  -5.287   0.000  0.00  0.00    +0.000 C 
ATOM      4  C   UNL     1      -0.125  -5.700   0.000  0.00  0.00    +0.000 C 
ATOM      5  C   UNL     1      -0.840  -5.287   0.000  0.00  0.00    +0.000 C 
ATOM      6  C   UNL     1      -0.840  -4.462   0.000  0.00  0.00    +0.000 C 
ATOM      7  C   UNL     1      -0.125  -4.050   0.000  0.00  0.00    +0.000 C 
ENDBRANCH   1   2
BRANCH   1  12
ATOM      8  C   UNL     1       0.636  -2.740   0.000  0.00  0.00    +0.000 A 
ATOM      9  C   UNL     1       0.891  -1.955   0.000  0.00  0.00    +0.000 A 
ATOM     10  S   UNL     1       1.716  -1.955   0.000  0.00  0.00    +0.000 S 
ATOM     11  C   UNL     1       1.971  -2.740   0.000  0.00  0.00    +0.000 A 
ATOM     12  C   UNL     1       1.304  -3.225   0.000  0.00  0.00    +0.000 A 
ENDBRANCH   1  12
BRANCH   1  13
ATOM     13  C   UNL     1       2.018  -4.462   0.000  0.00  0.00    +0.000 C 
ATOM     14  O   UNL     1       2.018  -5.287   0.000  0.00  0.00    +0.000 OA
BRANCH  13  15
ATOM     15  O   UNL     1       2.733  -4.050   0.000  0.00  0.00    +0.000 OA
BRANCH  15  16
ATOM     16  C   UNL     1       3.447  -4.462   0.000  0.00  0.00    +0.000 C 
BRANCH  16  17
ATOM     17  C   UNL     1       4.162  -4.050   0.000  0.00  0.00    +0.000 C 
BRANCH  17  18
ATOM     18  N   UNL     1       4.876  -4.462   0.000  0.00  0.00    +0.000 NA
ATOM     19  C   UNL     1       5.558  -3.997   0.000  0.00  0.00    +0.000 C 
ATOM     20  C   UNL     1       6.346  -4.240   0.000  0.00  0.00    +0.000 C 
ATOM     21  C   UNL     1       6.648  -5.008   0.000  0.00  0.00    +0.000 C 
ATOM     22  C   UNL     1       6.235  -5.723   0.000  0.00  0.00    +0.000 C 
ATOM     23  C   UNL     1       5.419  -5.846   0.000  0.00  0.00    +0.000 C 
ATOM     24  C   UNL     1       4.814  -5.285   0.000  0.00  0.00    +0.000 C 
ENDBRANCH  17  18
ENDBRANCH  16  17
ENDBRANCH  15  16
ENDBRANCH  13  15
ENDBRANCH   1  13
TORSDOF 7
