REMARK  Name = 
REMARK  4 active torsions:
REMARK  status: ('A' for Active; 'I' for Inactive)
REMARK    1  A    between atoms: C_12  and  C_16
REMARK    2  A    between atoms: C_15  and  C_23
REMARK    3  A    between atoms: C_15  and  N_28
REMARK    4  A    between atoms: C_22  and  C_23
REMARK                            x       y       z     vdW  Elec       q    Type
REMARK                         _______ _______ _______ _____ _____    ______ ____
ROOT
ATOM      1  C   UNL     1       4.873  -1.647   0.000  0.00  0.00    +0.000 C 
ATOM      2  C   UNL     1      -0.076   0.454   0.000  0.00  0.00    +0.000 C 
ATOM      3  C   UNL     1       2.469  -2.130   0.000  0.00  0.00    +0.000 C 
ATOM      4  C   UNL     1       1.657  -1.985   0.000  0.00  0.00    +0.000 C 
ATOM      5  C   UNL     1      -0.087  -1.570   0.000  0.00  0.00    +0.000 C 
ATOM      6  C   UNL     1      -0.770  -1.107   0.000  0.00  0.00    +0.000 C 
ATOM      7  C   UNL     1       3.252  -0.093   0.000  0.00  0.00    +0.000 C 
ATOM      8  C   UNL     1       1.628   0.197   0.000  0.00  0.00    +0.000 C 
ATOM      9  C   UNL     1       4.064  -0.238   0.000  0.00  0.00    +0.000 C 
ATOM     10  C   UNL     1       0.816   0.343   0.000  0.00  0.00    +0.000 C 
ATOM     11  C   UNL     1       3.813  -1.645   0.000  0.00  0.00    +0.000 C 
ATOM     12  C   UNL     1       3.001  -1.500   0.000  0.00  0.00    +0.000 C 
ATOM     13  C   UNL     1       2.720  -0.724   0.000  0.00  0.00    +0.000 C 
ATOM     14  C   UNL     1       1.908  -0.579   0.000  0.00  0.00    +0.000 C 
ATOM     15  C   UNL     1       1.377  -1.209   0.000  0.00  0.00    +0.000 C 
ATOM     16  C   UNL     1       0.564  -1.064   0.000  0.00  0.00    +0.000 C 
ATOM     17  C   UNL     1      -0.540  -0.315   0.000  0.00  0.00    +0.000 C 
ATOM     18  C   UNL     1       4.345  -1.014   0.000  0.00  0.00    +0.000 C 
ATOM     19  C   UNL     1       0.284  -0.288   0.000  0.00  0.00    +0.000 C 
ATOM     20  O   UNL     1       5.060  -0.603   0.000  0.00  0.00    +0.000 OA
ENDROOT
BRANCH  17  21
ATOM     21  C   UNL     1      -1.047   0.336   0.000  0.00  0.00    +0.000 C 
ATOM     22  O   UNL     1      -0.736   1.101   0.000  0.00  0.00    +0.000 OA
BRANCH  21  23
ATOM     23  C   UNL     1      -1.864   0.224   0.000  0.00  0.00    +0.000 C 
BRANCH  23  28
ATOM     24  C   UNL     1      -2.824   2.130   0.000  0.00  0.00    +0.000 A 
ATOM     25  C   UNL     1      -3.195   0.848   0.000  0.00  0.00    +0.000 A 
ATOM     26  C   UNL     1      -3.475   1.624   0.000  0.00  0.00    +0.000 A 
ATOM     27  N   UNL     1      -2.141   1.667   0.000  0.00  0.00    +0.000 NA
ATOM     28  N   UNL     1      -2.370   0.875   0.000  0.00  0.00    +0.000 N 
BRANCH  26  29
ATOM     29  C   UNL     1      -4.268   1.853   0.000  0.00  0.00    +0.000 C 
ATOM     30  N   UNL     1      -5.060   2.083   0.000  0.00  0.00    +0.000 NA
ENDBRANCH  26  29
ENDBRANCH  23  28
ENDBRANCH  21  23
ENDBRANCH  17  21
TORSDOF 4
