REMARK  Name = 
REMARK  6 active torsions:
REMARK  status: ('A' for Active; 'I' for Inactive)
REMARK    1  A    between atoms: C_5  and  C_8
REMARK    2  A    between atoms: C_5  and  C_9
REMARK    3  A    between atoms: C_9  and  N_14
REMARK    4  A    between atoms: C_10  and  C_11
REMARK    5  A    between atoms: C_10  and  C_12
REMARK    6  A    between atoms: C_11  and  N_14
REMARK                            x       y       z     vdW  Elec       q    Type
REMARK                         _______ _______ _______ _____ _____    ______ ____
ROOT
ATOM      1  C   UNL     1       7.859   1.238   0.000  0.00  0.00    +0.000 C 
ENDROOT
BRANCH   1   7
ATOM      2  C   UNL     1      10.003   2.475   0.000  0.00  0.00    +0.000 A 
ATOM      3  C   UNL     1       9.288   2.888   0.000  0.00  0.00    +0.000 A 
ATOM      4  C   UNL     1      10.003   1.650   0.000  0.00  0.00    +0.000 A 
ATOM      5  C   UNL     1       8.574   2.475   0.000  0.00  0.00    +0.000 A 
ATOM      6  C   UNL     1       9.288   1.238   0.000  0.00  0.00    +0.000 A 
ATOM      7  C   UNL     1       8.574   1.650   0.000  0.00  0.00    +0.000 A 
ENDBRANCH   1   7
BRANCH   1   9
ATOM      8  C   UNL     1       7.145   2.475   0.000  0.00  0.00    +0.000 C 
ATOM      9  C   UNL     1       7.145   1.650   0.000  0.00  0.00    +0.000 C 
BRANCH   9  10
ATOM     10  N   UNL     1       6.430   1.238   0.000  0.00  0.00    +0.000 NA
BRANCH  10  11
ATOM     11  C   UNL     1       5.716   1.650   0.000  0.00  0.00    +0.000 C 
BRANCH  11  12
ATOM     12  C   UNL     1       5.001   1.238   0.000  0.00  0.00    +0.000 C 
BRANCH  12  13
ATOM     13  C   UNL     1       4.287   1.650   0.000  0.00  0.00    +0.000 C 
ATOM     14 CL   UNL     1       3.572   1.238   0.000  0.00  0.00    +0.000 Cl
ENDBRANCH  12  13
ENDBRANCH  11  12
ENDBRANCH  10  11
ENDBRANCH   9  10
ENDBRANCH   1   9
TORSDOF 6
