REMARK  Name = 
REMARK  30 active torsions:
REMARK  status: ('A' for Active; 'I' for Inactive)
REMARK    1  A    between atoms: C_8  and  C_9
REMARK    2  A    between atoms: C_9  and  C_11
REMARK    3  A    between atoms: C_11  and  C_13
REMARK    4  A    between atoms: C_13  and  C_15
REMARK    5  A    between atoms: C_15  and  C_17
REMARK    6  A    between atoms: C_21  and  C_22
REMARK    7  A    between atoms: C_24  and  O_25
REMARK    8  A    between atoms: O_25  and  C_26
REMARK    9  A    between atoms: C_26  and  C_27
REMARK   10  A    between atoms: C_30  and  C_31
REMARK   11  A    between atoms: C_44  and  C_45
REMARK   12  A    between atoms: C_47  and  O_48
REMARK   13  A    between atoms: O_48  and  C_49
REMARK   14  A    between atoms: C_49  and  C_50
REMARK   15  A    between atoms: C_53  and  C_54
REMARK   16  A    between atoms: C_67  and  C_68
REMARK   17  A    between atoms: C_70  and  O_71
REMARK   18  A    between atoms: O_71  and  C_72
REMARK   19  A    between atoms: C_72  and  C_73
REMARK   20  A    between atoms: C_76  and  C_77
REMARK   21  A    between atoms: C_90  and  C_91
REMARK   22  A    between atoms: C_93  and  O_94
REMARK   23  A    between atoms: O_94  and  C_95
REMARK   24  A    between atoms: C_95  and  C_96
REMARK   25  A    between atoms: C_99  and  C_100
REMARK   26  A    between atoms: C_113  and  C_114
REMARK   27  A    between atoms: C_116  and  O_117
REMARK   28  A    between atoms: O_117  and  C_118
REMARK   29  A    between atoms: C_118  and  C_119
REMARK   30  A    between atoms: C_122  and  C_123
REMARK                            x       y       z     vdW  Elec       q    Type
REMARK                         _______ _______ _______ _____ _____    ______ ____
ROOT
ATOM      1  O   HOH     1      -6.705   5.426   0.000  0.00  0.00    +0.000 OA
ENDROOT
TORSDOF 0
REMARK  Name = 
REMARK  30 active torsions:
REMARK  status: ('A' for Active; 'I' for Inactive)
REMARK    1  A    between atoms: C_8  and  C_9
REMARK    2  A    between atoms: C_9  and  C_11
REMARK    3  A    between atoms: C_11  and  C_13
REMARK    4  A    between atoms: C_13  and  C_15
REMARK    5  A    between atoms: C_15  and  C_17
REMARK    6  A    between atoms: C_21  and  C_22
REMARK    7  A    between atoms: C_24  and  O_25
REMARK    8  A    between atoms: O_25  and  C_26
REMARK    9  A    between atoms: C_26  and  C_27
REMARK   10  A    between atoms: C_30  and  C_31
REMARK   11  A    between atoms: C_44  and  C_45
REMARK   12  A    between atoms: C_47  and  O_48
REMARK   13  A    between atoms: O_48  and  C_49
REMARK   14  A    between atoms: C_49  and  C_50
REMARK   15  A    between atoms: C_53  and  C_54
REMARK   16  A    between atoms: C_67  and  C_68
REMARK   17  A    between atoms: C_70  and  O_71
REMARK   18  A    between atoms: O_71  and  C_72
REMARK   19  A    between atoms: C_72  and  C_73
REMARK   20  A    between atoms: C_76  and  C_77
REMARK   21  A    between atoms: C_90  and  C_91
REMARK   22  A    between atoms: C_93  and  O_94
REMARK   23  A    between atoms: O_94  and  C_95
REMARK   24  A    between atoms: C_95  and  C_96
REMARK   25  A    between atoms: C_99  and  C_100
REMARK   26  A    between atoms: C_113  and  C_114
REMARK   27  A    between atoms: C_116  and  O_117
REMARK   28  A    between atoms: O_117  and  C_118
REMARK   29  A    between atoms: C_118  and  C_119
REMARK   30  A    between atoms: C_122  and  C_123
REMARK                            x       y       z     vdW  Elec       q    Type
REMARK                         _______ _______ _______ _____ _____    ______ ____
ROOT
ATOM      1  O   HOH     1      -3.405   5.426   0.000  0.00  0.00    +0.000 OA
ENDROOT
TORSDOF 0
REMARK  Name = 
REMARK  30 active torsions:
REMARK  status: ('A' for Active; 'I' for Inactive)
REMARK    1  A    between atoms: C_8  and  C_9
REMARK    2  A    between atoms: C_9  and  C_11
REMARK    3  A    between atoms: C_11  and  C_13
REMARK    4  A    between atoms: C_13  and  C_15
REMARK    5  A    between atoms: C_15  and  C_17
REMARK    6  A    between atoms: C_21  and  C_22
REMARK    7  A    between atoms: C_24  and  O_25
REMARK    8  A    between atoms: O_25  and  C_26
REMARK    9  A    between atoms: C_26  and  C_27
REMARK   10  A    between atoms: C_30  and  C_31
REMARK   11  A    between atoms: C_44  and  C_45
REMARK   12  A    between atoms: C_47  and  O_48
REMARK   13  A    between atoms: O_48  and  C_49
REMARK   14  A    between atoms: C_49  and  C_50
REMARK   15  A    between atoms: C_53  and  C_54
REMARK   16  A    between atoms: C_67  and  C_68
REMARK   17  A    between atoms: C_70  and  O_71
REMARK   18  A    between atoms: O_71  and  C_72
REMARK   19  A    between atoms: C_72  and  C_73
REMARK   20  A    between atoms: C_76  and  C_77
REMARK   21  A    between atoms: C_90  and  C_91
REMARK   22  A    between atoms: C_93  and  O_94
REMARK   23  A    between atoms: O_94  and  C_95
REMARK   24  A    between atoms: C_95  and  C_96
REMARK   25  A    between atoms: C_99  and  C_100
REMARK   26  A    between atoms: C_113  and  C_114
REMARK   27  A    between atoms: C_116  and  O_117
REMARK   28  A    between atoms: O_117  and  C_118
REMARK   29  A    between atoms: C_118  and  C_119
REMARK   30  A    between atoms: C_122  and  C_123
REMARK                            x       y       z     vdW  Elec       q    Type
REMARK                         _______ _______ _______ _____ _____    ______ ____
ROOT
ATOM      1  O   HOH     1      -1.048   5.426   0.000  0.00  0.00    +0.000 OA
ENDROOT
TORSDOF 0
REMARK  Name = 
REMARK  30 active torsions:
REMARK  status: ('A' for Active; 'I' for Inactive)
REMARK    1  A    between atoms: C_8  and  C_9
REMARK    2  A    between atoms: C_9  and  C_11
REMARK    3  A    between atoms: C_11  and  C_13
REMARK    4  A    between atoms: C_13  and  C_15
REMARK    5  A    between atoms: C_15  and  C_17
REMARK    6  A    between atoms: C_21  and  C_22
REMARK    7  A    between atoms: C_24  and  O_25
REMARK    8  A    between atoms: O_25  and  C_26
REMARK    9  A    between atoms: C_26  and  C_27
REMARK   10  A    between atoms: C_30  and  C_31
REMARK   11  A    between atoms: C_44  and  C_45
REMARK   12  A    between atoms: C_47  and  O_48
REMARK   13  A    between atoms: O_48  and  C_49
REMARK   14  A    between atoms: C_49  and  C_50
REMARK   15  A    between atoms: C_53  and  C_54
REMARK   16  A    between atoms: C_67  and  C_68
REMARK   17  A    between atoms: C_70  and  O_71
REMARK   18  A    between atoms: O_71  and  C_72
REMARK   19  A    between atoms: C_72  and  C_73
REMARK   20  A    between atoms: C_76  and  C_77
REMARK   21  A    between atoms: C_90  and  C_91
REMARK   22  A    between atoms: C_93  and  O_94
REMARK   23  A    between atoms: O_94  and  C_95
REMARK   24  A    between atoms: C_95  and  C_96
REMARK   25  A    between atoms: C_99  and  C_100
REMARK   26  A    between atoms: C_113  and  C_114
REMARK   27  A    between atoms: C_116  and  O_117
REMARK   28  A    between atoms: O_117  and  C_118
REMARK   29  A    between atoms: C_118  and  C_119
REMARK   30  A    between atoms: C_122  and  C_123
REMARK                            x       y       z     vdW  Elec       q    Type
REMARK                         _______ _______ _______ _____ _____    ______ ____
ROOT
ATOM      1 NA   UNL     1      -4.260   2.338   0.000  0.00  0.00    +0.000 Na
ENDROOT
TORSDOF 0
REMARK  Name = 
REMARK  30 active torsions:
REMARK  status: ('A' for Active; 'I' for Inactive)
REMARK    1  A    between atoms: C_8  and  C_9
REMARK    2  A    between atoms: C_9  and  C_11
REMARK    3  A    between atoms: C_11  and  C_13
REMARK    4  A    between atoms: C_13  and  C_15
REMARK    5  A    between atoms: C_15  and  C_17
REMARK    6  A    between atoms: C_21  and  C_22
REMARK    7  A    between atoms: C_24  and  O_25
REMARK    8  A    between atoms: O_25  and  C_26
REMARK    9  A    between atoms: C_26  and  C_27
REMARK   10  A    between atoms: C_30  and  C_31
REMARK   11  A    between atoms: C_44  and  C_45
REMARK   12  A    between atoms: C_47  and  O_48
REMARK   13  A    between atoms: O_48  and  C_49
REMARK   14  A    between atoms: C_49  and  C_50
REMARK   15  A    between atoms: C_53  and  C_54
REMARK   16  A    between atoms: C_67  and  C_68
REMARK   17  A    between atoms: C_70  and  O_71
REMARK   18  A    between atoms: O_71  and  C_72
REMARK   19  A    between atoms: C_72  and  C_73
REMARK   20  A    between atoms: C_76  and  C_77
REMARK   21  A    between atoms: C_90  and  C_91
REMARK   22  A    between atoms: C_93  and  O_94
REMARK   23  A    between atoms: O_94  and  C_95
REMARK   24  A    between atoms: C_95  and  C_96
REMARK   25  A    between atoms: C_99  and  C_100
REMARK   26  A    between atoms: C_113  and  C_114
REMARK   27  A    between atoms: C_116  and  O_117
REMARK   28  A    between atoms: O_117  and  C_118
REMARK   29  A    between atoms: C_118  and  C_119
REMARK   30  A    between atoms: C_122  and  C_123
REMARK                            x       y       z     vdW  Elec       q    Type
REMARK                         _______ _______ _______ _____ _____    ______ ____
ROOT
ATOM      1 FE   UNL     1      -7.530   5.426   0.000  0.00  0.00    +0.000 Fe
ENDROOT
TORSDOF 0
REMARK  Name = 
REMARK  30 active torsions:
REMARK  status: ('A' for Active; 'I' for Inactive)
REMARK    1  A    between atoms: C_8  and  C_9
REMARK    2  A    between atoms: C_9  and  C_11
REMARK    3  A    between atoms: C_11  and  C_13
REMARK    4  A    between atoms: C_13  and  C_15
REMARK    5  A    between atoms: C_15  and  C_17
REMARK    6  A    between atoms: C_21  and  C_22
REMARK    7  A    between atoms: C_24  and  O_25
REMARK    8  A    between atoms: O_25  and  C_26
REMARK    9  A    between atoms: C_26  and  C_27
REMARK   10  A    between atoms: C_30  and  C_31
REMARK   11  A    between atoms: C_44  and  C_45
REMARK   12  A    between atoms: C_47  and  O_48
REMARK   13  A    between atoms: O_48  and  C_49
REMARK   14  A    between atoms: C_49  and  C_50
REMARK   15  A    between atoms: C_53  and  C_54
REMARK   16  A    between atoms: C_67  and  C_68
REMARK   17  A    between atoms: C_70  and  O_71
REMARK   18  A    between atoms: O_71  and  C_72
REMARK   19  A    between atoms: C_72  and  C_73
REMARK   20  A    between atoms: C_76  and  C_77
REMARK   21  A    between atoms: C_90  and  C_91
REMARK   22  A    between atoms: C_93  and  O_94
REMARK   23  A    between atoms: O_94  and  C_95
REMARK   24  A    between atoms: C_95  and  C_96
REMARK   25  A    between atoms: C_99  and  C_100
REMARK   26  A    between atoms: C_113  and  C_114
REMARK   27  A    between atoms: C_116  and  O_117
REMARK   28  A    between atoms: O_117  and  C_118
REMARK   29  A    between atoms: C_118  and  C_119
REMARK   30  A    between atoms: C_122  and  C_123
REMARK                            x       y       z     vdW  Elec       q    Type
REMARK                         _______ _______ _______ _____ _____    ______ ____
ROOT
ATOM      1 FE   UNL     1      -4.230   5.426   0.000  0.00  0.00    +0.000 Fe
ENDROOT
TORSDOF 0
REMARK  Name = 
REMARK  30 active torsions:
REMARK  status: ('A' for Active; 'I' for Inactive)
REMARK    1  A    between atoms: C_8  and  C_9
REMARK    2  A    between atoms: C_9  and  C_11
REMARK    3  A    between atoms: C_11  and  C_13
REMARK    4  A    between atoms: C_13  and  C_15
REMARK    5  A    between atoms: C_15  and  C_17
REMARK    6  A    between atoms: C_21  and  C_22
REMARK    7  A    between atoms: C_24  and  O_25
REMARK    8  A    between atoms: O_25  and  C_26
REMARK    9  A    between atoms: C_26  and  C_27
REMARK   10  A    between atoms: C_30  and  C_31
REMARK   11  A    between atoms: C_44  and  C_45
REMARK   12  A    between atoms: C_47  and  O_48
REMARK   13  A    between atoms: O_48  and  C_49
REMARK   14  A    between atoms: C_49  and  C_50
REMARK   15  A    between atoms: C_53  and  C_54
REMARK   16  A    between atoms: C_67  and  C_68
REMARK   17  A    between atoms: C_70  and  O_71
REMARK   18  A    between atoms: O_71  and  C_72
REMARK   19  A    between atoms: C_72  and  C_73
REMARK   20  A    between atoms: C_76  and  C_77
REMARK   21  A    between atoms: C_90  and  C_91
REMARK   22  A    between atoms: C_93  and  O_94
REMARK   23  A    between atoms: O_94  and  C_95
REMARK   24  A    between atoms: C_95  and  C_96
REMARK   25  A    between atoms: C_99  and  C_100
REMARK   26  A    between atoms: C_113  and  C_114
REMARK   27  A    between atoms: C_116  and  O_117
REMARK   28  A    between atoms: O_117  and  C_118
REMARK   29  A    between atoms: C_118  and  C_119
REMARK   30  A    between atoms: C_122  and  C_123
REMARK                            x       y       z     vdW  Elec       q    Type
REMARK                         _______ _______ _______ _____ _____    ______ ____
ROOT
ATOM      1  C   UNL     1      -7.118   1.513   0.000  0.00  0.00    +0.000 C 
ATOM      2  O   UNL     1      -7.118   0.688   0.000  0.00  0.00    +0.000 OA
ENDROOT
BRANCH   1   3
ATOM      3  C   UNL     1      -7.832   1.926   0.000  0.00  0.00    +0.000 C 
ATOM      4  O   UNL     1      -7.832   2.751   0.000  0.00  0.00    +0.000 OA
BRANCH   3   5
ATOM      5  C   UNL     1      -8.547   1.513   0.000  0.00  0.00    +0.000 C 
ATOM      6  O   UNL     1      -8.547   0.688   0.000  0.00  0.00    +0.000 OA
BRANCH   5   8
ATOM      7  O   UNL     1      -9.976   1.513   0.000  0.00  0.00    +0.000 OA
ATOM      8  C   UNL     1      -9.261   1.926   0.000  0.00  0.00    +0.000 C 
ENDBRANCH   5   8
ENDBRANCH   3   5
ENDBRANCH   1   3
BRANCH   1   9
ATOM      9  C   UNL     1      -6.403   1.926   0.000  0.00  0.00    +0.000 C 
ATOM     10  O   UNL     1      -6.403   2.751   0.000  0.00  0.00    +0.000 OA
BRANCH   9  11
ATOM     11  C   UNL     1      -5.689   1.513   0.000  0.00  0.00    +0.000 C 
ATOM     12  O   UNL     1      -5.689   0.688   0.000  0.00  0.00    +0.000 OA
ATOM     13  O   UNL     1      -4.974   1.926   0.000  0.00  0.00    +0.000 OA
ENDBRANCH   9  11
ENDBRANCH   1   9
TORSDOF 5
REMARK  Name = 
REMARK  30 active torsions:
REMARK  status: ('A' for Active; 'I' for Inactive)
REMARK    1  A    between atoms: C_8  and  C_9
REMARK    2  A    between atoms: C_9  and  C_11
REMARK    3  A    between atoms: C_11  and  C_13
REMARK    4  A    between atoms: C_13  and  C_15
REMARK    5  A    between atoms: C_15  and  C_17
REMARK    6  A    between atoms: C_21  and  C_22
REMARK    7  A    between atoms: C_24  and  O_25
REMARK    8  A    between atoms: O_25  and  C_26
REMARK    9  A    between atoms: C_26  and  C_27
REMARK   10  A    between atoms: C_30  and  C_31
REMARK   11  A    between atoms: C_44  and  C_45
REMARK   12  A    between atoms: C_47  and  O_48
REMARK   13  A    between atoms: O_48  and  C_49
REMARK   14  A    between atoms: C_49  and  C_50
REMARK   15  A    between atoms: C_53  and  C_54
REMARK   16  A    between atoms: C_67  and  C_68
REMARK   17  A    between atoms: C_70  and  O_71
REMARK   18  A    between atoms: O_71  and  C_72
REMARK   19  A    between atoms: C_72  and  C_73
REMARK   20  A    between atoms: C_76  and  C_77
REMARK   21  A    between atoms: C_90  and  C_91
REMARK   22  A    between atoms: C_93  and  O_94
REMARK   23  A    between atoms: O_94  and  C_95
REMARK   24  A    between atoms: C_95  and  C_96
REMARK   25  A    between atoms: C_99  and  C_100
REMARK   26  A    between atoms: C_113  and  C_114
REMARK   27  A    between atoms: C_116  and  O_117
REMARK   28  A    between atoms: O_117  and  C_118
REMARK   29  A    between atoms: C_118  and  C_119
REMARK   30  A    between atoms: C_122  and  C_123
REMARK                            x       y       z     vdW  Elec       q    Type
REMARK                         _______ _______ _______ _____ _____    ______ ____
ROOT
ATOM      1  O   UNL     1      -0.370   2.550   0.000  0.00  0.00    +0.000 OA
ENDROOT
BRANCH   1   4
ATOM      2  C   UNL     1       1.499   1.422   0.000  0.00  0.00    +0.000 C 
ATOM      3  O   UNL     1       0.692   1.594   0.000  0.00  0.00    +0.000 OA
ATOM      4  C   UNL     1       0.437   2.378   0.000  0.00  0.00    +0.000 C 
ATOM      5  C   UNL     1       0.989   2.992   0.000  0.00  0.00    +0.000 C 
ATOM      6  O   UNL     1       0.734   3.776   0.000  0.00  0.00    +0.000 OA
ATOM      7  C   UNL     1       1.796   2.820   0.000  0.00  0.00    +0.000 C 
ATOM      8  O   UNL     1       2.348   3.433   0.000  0.00  0.00    +0.000 OA
ATOM      9  C   UNL     1       2.051   2.035   0.000  0.00  0.00    +0.000 C 
ATOM     10  O   UNL     1       2.858   1.864   0.000  0.00  0.00    +0.000 OA
BRANCH   2  12
ATOM     11  O   UNL     1       2.561   0.466   0.000  0.00  0.00    +0.000 OA
ATOM     12  C   UNL     1       1.754   0.638   0.000  0.00  0.00    +0.000 C 
ENDBRANCH   2  12
ENDBRANCH   1   4
BRANCH   1  13
ATOM     13  C   UNL     1      -0.922   1.937   0.000  0.00  0.00    +0.000 C 
ATOM     14  O   UNL     1      -0.255   1.452   0.000  0.00  0.00    +0.000 OA
ATOM     15  C   UNL     1      -0.509   0.667   0.000  0.00  0.00    +0.000 C 
ATOM     16  C   UNL     1      -1.335   0.667   0.000  0.00  0.00    +0.000 C 
ATOM     17  O   UNL     1      -1.819   0.000   0.000  0.00  0.00    +0.000 OA
ATOM     18  C   UNL     1      -1.589   1.452   0.000  0.00  0.00    +0.000 C 
ATOM     19  O   UNL     1      -2.374   1.707   0.000  0.00  0.00    +0.000 OA
BRANCH  13  20
ATOM     20  C   UNL     1      -1.474   2.550   0.000  0.00  0.00    +0.000 C 
ATOM     21  O   UNL     1      -2.281   2.378   0.000  0.00  0.00    +0.000 OA
ENDBRANCH  13  20
BRANCH  15  22
ATOM     22  C   UNL     1      -0.025   0.000   0.000  0.00  0.00    +0.000 C 
ATOM     23  O   UNL     1       0.796   0.086   0.000  0.00  0.00    +0.000 OA
ENDBRANCH  15  22
ENDBRANCH   1  13
TORSDOF 5
REMARK  Name = 
REMARK  30 active torsions:
REMARK  status: ('A' for Active; 'I' for Inactive)
REMARK    1  A    between atoms: C_8  and  C_9
REMARK    2  A    between atoms: C_9  and  C_11
REMARK    3  A    between atoms: C_11  and  C_13
REMARK    4  A    between atoms: C_13  and  C_15
REMARK    5  A    between atoms: C_15  and  C_17
REMARK    6  A    between atoms: C_21  and  C_22
REMARK    7  A    between atoms: C_24  and  O_25
REMARK    8  A    between atoms: O_25  and  C_26
REMARK    9  A    between atoms: C_26  and  C_27
REMARK   10  A    between atoms: C_30  and  C_31
REMARK   11  A    between atoms: C_44  and  C_45
REMARK   12  A    between atoms: C_47  and  O_48
REMARK   13  A    between atoms: O_48  and  C_49
REMARK   14  A    between atoms: C_49  and  C_50
REMARK   15  A    between atoms: C_53  and  C_54
REMARK   16  A    between atoms: C_67  and  C_68
REMARK   17  A    between atoms: C_70  and  O_71
REMARK   18  A    between atoms: O_71  and  C_72
REMARK   19  A    between atoms: C_72  and  C_73
REMARK   20  A    between atoms: C_76  and  C_77
REMARK   21  A    between atoms: C_90  and  C_91
REMARK   22  A    between atoms: C_93  and  O_94
REMARK   23  A    between atoms: O_94  and  C_95
REMARK   24  A    between atoms: C_95  and  C_96
REMARK   25  A    between atoms: C_99  and  C_100
REMARK   26  A    between atoms: C_113  and  C_114
REMARK   27  A    between atoms: C_116  and  O_117
REMARK   28  A    between atoms: O_117  and  C_118
REMARK   29  A    between atoms: C_118  and  C_119
REMARK   30  A    between atoms: C_122  and  C_123
REMARK                            x       y       z     vdW  Elec       q    Type
REMARK                         _______ _______ _______ _____ _____    ______ ____
ROOT
ATOM      1  O   UNL     1       6.748   2.550   0.000  0.00  0.00    +0.000 OA
ENDROOT
BRANCH   1   4
ATOM      2  C   UNL     1       8.617   1.422   0.000  0.00  0.00    +0.000 C 
ATOM      3  O   UNL     1       7.810   1.594   0.000  0.00  0.00    +0.000 OA
ATOM      4  C   UNL     1       7.555   2.378   0.000  0.00  0.00    +0.000 C 
ATOM      5  C   UNL     1       8.107   2.992   0.000  0.00  0.00    +0.000 C 
ATOM      6  O   UNL     1       7.852   3.776   0.000  0.00  0.00    +0.000 OA
ATOM      7  C   UNL     1       8.914   2.820   0.000  0.00  0.00    +0.000 C 
ATOM      8  O   UNL     1       9.466   3.433   0.000  0.00  0.00    +0.000 OA
ATOM      9  C   UNL     1       9.169   2.035   0.000  0.00  0.00    +0.000 C 
ATOM     10  O   UNL     1       9.976   1.864   0.000  0.00  0.00    +0.000 OA
BRANCH   2  12
ATOM     11  O   UNL     1       9.678   0.466   0.000  0.00  0.00    +0.000 OA
ATOM     12  C   UNL     1       8.871   0.638   0.000  0.00  0.00    +0.000 C 
ENDBRANCH   2  12
ENDBRANCH   1   4
BRANCH   1  13
ATOM     13  C   UNL     1       6.196   1.937   0.000  0.00  0.00    +0.000 C 
ATOM     14  O   UNL     1       6.863   1.452   0.000  0.00  0.00    +0.000 OA
ATOM     15  C   UNL     1       6.608   0.667   0.000  0.00  0.00    +0.000 C 
ATOM     16  C   UNL     1       5.783   0.667   0.000  0.00  0.00    +0.000 C 
ATOM     17  O   UNL     1       5.298   0.000   0.000  0.00  0.00    +0.000 OA
ATOM     18  C   UNL     1       5.528   1.452   0.000  0.00  0.00    +0.000 C 
ATOM     19  O   UNL     1       4.744   1.707   0.000  0.00  0.00    +0.000 OA
BRANCH  13  20
ATOM     20  C   UNL     1       5.644   2.550   0.000  0.00  0.00    +0.000 C 
ATOM     21  O   UNL     1       4.837   2.378   0.000  0.00  0.00    +0.000 OA
ENDBRANCH  13  20
BRANCH  15  22
ATOM     22  C   UNL     1       7.093   0.000   0.000  0.00  0.00    +0.000 C 
ATOM     23  O   UNL     1       7.913   0.086   0.000  0.00  0.00    +0.000 OA
ENDBRANCH  15  22
ENDBRANCH   1  13
TORSDOF 5
REMARK  Name = 
REMARK  30 active torsions:
REMARK  status: ('A' for Active; 'I' for Inactive)
REMARK    1  A    between atoms: C_8  and  C_9
REMARK    2  A    between atoms: C_9  and  C_11
REMARK    3  A    between atoms: C_11  and  C_13
REMARK    4  A    between atoms: C_13  and  C_15
REMARK    5  A    between atoms: C_15  and  C_17
REMARK    6  A    between atoms: C_21  and  C_22
REMARK    7  A    between atoms: C_24  and  O_25
REMARK    8  A    between atoms: O_25  and  C_26
REMARK    9  A    between atoms: C_26  and  C_27
REMARK   10  A    between atoms: C_30  and  C_31
REMARK   11  A    between atoms: C_44  and  C_45
REMARK   12  A    between atoms: C_47  and  O_48
REMARK   13  A    between atoms: O_48  and  C_49
REMARK   14  A    between atoms: C_49  and  C_50
REMARK   15  A    between atoms: C_53  and  C_54
REMARK   16  A    between atoms: C_67  and  C_68
REMARK   17  A    between atoms: C_70  and  O_71
REMARK   18  A    between atoms: O_71  and  C_72
REMARK   19  A    between atoms: C_72  and  C_73
REMARK   20  A    between atoms: C_76  and  C_77
REMARK   21  A    between atoms: C_90  and  C_91
REMARK   22  A    between atoms: C_93  and  O_94
REMARK   23  A    between atoms: O_94  and  C_95
REMARK   24  A    between atoms: C_95  and  C_96
REMARK   25  A    between atoms: C_99  and  C_100
REMARK   26  A    between atoms: C_113  and  C_114
REMARK   27  A    between atoms: C_116  and  O_117
REMARK   28  A    between atoms: O_117  and  C_118
REMARK   29  A    between atoms: C_118  and  C_119
REMARK   30  A    between atoms: C_122  and  C_123
REMARK                            x       y       z     vdW  Elec       q    Type
REMARK                         _______ _______ _______ _____ _____    ______ ____
ROOT
ATOM      1  O   UNL     1      -7.729  -2.876   0.000  0.00  0.00    +0.000 OA
ENDROOT
BRANCH   1   4
ATOM      2  C   UNL     1      -5.861  -4.004   0.000  0.00  0.00    +0.000 C 
ATOM      3  O   UNL     1      -6.668  -3.832   0.000  0.00  0.00    +0.000 OA
ATOM      4  C   UNL     1      -6.922  -3.048   0.000  0.00  0.00    +0.000 C 
ATOM      5  C   UNL     1      -6.370  -2.435   0.000  0.00  0.00    +0.000 C 
ATOM      6  O   UNL     1      -6.625  -1.650   0.000  0.00  0.00    +0.000 OA
ATOM      7  C   UNL     1      -5.563  -2.606   0.000  0.00  0.00    +0.000 C 
ATOM      8  O   UNL     1      -5.011  -1.993   0.000  0.00  0.00    +0.000 OA
ATOM      9  C   UNL     1      -5.309  -3.391   0.000  0.00  0.00    +0.000 C 
ATOM     10  O   UNL     1      -4.502  -3.562   0.000  0.00  0.00    +0.000 OA
BRANCH   2  12
ATOM     11  O   UNL     1      -4.799  -4.960   0.000  0.00  0.00    +0.000 OA
ATOM     12  C   UNL     1      -5.606  -4.788   0.000  0.00  0.00    +0.000 C 
ENDBRANCH   2  12
ENDBRANCH   1   4
BRANCH   1  13
ATOM     13  C   UNL     1      -8.281  -3.489   0.000  0.00  0.00    +0.000 C 
ATOM     14  O   UNL     1      -7.614  -3.974   0.000  0.00  0.00    +0.000 OA
ATOM     15  C   UNL     1      -7.869  -4.759   0.000  0.00  0.00    +0.000 C 
ATOM     16  C   UNL     1      -8.694  -4.759   0.000  0.00  0.00    +0.000 C 
ATOM     17  O   UNL     1      -9.179  -5.426   0.000  0.00  0.00    +0.000 OA
ATOM     18  C   UNL     1      -8.949  -3.974   0.000  0.00  0.00    +0.000 C 
ATOM     19  O   UNL     1      -9.733  -3.719   0.000  0.00  0.00    +0.000 OA
BRANCH  13  20
ATOM     20  C   UNL     1      -8.834  -2.876   0.000  0.00  0.00    +0.000 C 
ATOM     21  O   UNL     1      -9.640  -3.048   0.000  0.00  0.00    +0.000 OA
ENDBRANCH  13  20
BRANCH  15  22
ATOM     22  C   UNL     1      -7.384  -5.426   0.000  0.00  0.00    +0.000 C 
ATOM     23  O   UNL     1      -6.564  -5.340   0.000  0.00  0.00    +0.000 OA
ENDBRANCH  15  22
ENDBRANCH   1  13
TORSDOF 5
REMARK  Name = 
REMARK  30 active torsions:
REMARK  status: ('A' for Active; 'I' for Inactive)
REMARK    1  A    between atoms: C_8  and  C_9
REMARK    2  A    between atoms: C_9  and  C_11
REMARK    3  A    between atoms: C_11  and  C_13
REMARK    4  A    between atoms: C_13  and  C_15
REMARK    5  A    between atoms: C_15  and  C_17
REMARK    6  A    between atoms: C_21  and  C_22
REMARK    7  A    between atoms: C_24  and  O_25
REMARK    8  A    between atoms: O_25  and  C_26
REMARK    9  A    between atoms: C_26  and  C_27
REMARK   10  A    between atoms: C_30  and  C_31
REMARK   11  A    between atoms: C_44  and  C_45
REMARK   12  A    between atoms: C_47  and  O_48
REMARK   13  A    between atoms: O_48  and  C_49
REMARK   14  A    between atoms: C_49  and  C_50
REMARK   15  A    between atoms: C_53  and  C_54
REMARK   16  A    between atoms: C_67  and  C_68
REMARK   17  A    between atoms: C_70  and  O_71
REMARK   18  A    between atoms: O_71  and  C_72
REMARK   19  A    between atoms: C_72  and  C_73
REMARK   20  A    between atoms: C_76  and  C_77
REMARK   21  A    between atoms: C_90  and  C_91
REMARK   22  A    between atoms: C_93  and  O_94
REMARK   23  A    between atoms: O_94  and  C_95
REMARK   24  A    between atoms: C_95  and  C_96
REMARK   25  A    between atoms: C_99  and  C_100
REMARK   26  A    between atoms: C_113  and  C_114
REMARK   27  A    between atoms: C_116  and  O_117
REMARK   28  A    between atoms: O_117  and  C_118
REMARK   29  A    between atoms: C_118  and  C_119
REMARK   30  A    between atoms: C_122  and  C_123
REMARK                            x       y       z     vdW  Elec       q    Type
REMARK                         _______ _______ _______ _____ _____    ______ ____
ROOT
ATOM      1  O   UNL     1      -0.612  -2.876   0.000  0.00  0.00    +0.000 OA
ENDROOT
BRANCH   1   4
ATOM      2  C   UNL     1       1.257  -4.004   0.000  0.00  0.00    +0.000 C 
ATOM      3  O   UNL     1       0.450  -3.832   0.000  0.00  0.00    +0.000 OA
ATOM      4  C   UNL     1       0.195  -3.048   0.000  0.00  0.00    +0.000 C 
ATOM      5  C   UNL     1       0.747  -2.435   0.000  0.00  0.00    +0.000 C 
ATOM      6  O   UNL     1       0.492  -1.650   0.000  0.00  0.00    +0.000 OA
ATOM      7  C   UNL     1       1.554  -2.606   0.000  0.00  0.00    +0.000 C 
ATOM      8  O   UNL     1       2.106  -1.993   0.000  0.00  0.00    +0.000 OA
ATOM      9  C   UNL     1       1.809  -3.391   0.000  0.00  0.00    +0.000 C 
ATOM     10  O   UNL     1       2.616  -3.562   0.000  0.00  0.00    +0.000 OA
BRANCH   2  12
ATOM     11  O   UNL     1       2.319  -4.960   0.000  0.00  0.00    +0.000 OA
ATOM     12  C   UNL     1       1.512  -4.788   0.000  0.00  0.00    +0.000 C 
ENDBRANCH   2  12
ENDBRANCH   1   4
BRANCH   1  13
ATOM     13  C   UNL     1      -1.164  -3.489   0.000  0.00  0.00    +0.000 C 
ATOM     14  O   UNL     1      -0.496  -3.974   0.000  0.00  0.00    +0.000 OA
ATOM     15  C   UNL     1      -0.751  -4.759   0.000  0.00  0.00    +0.000 C 
ATOM     16  C   UNL     1      -1.576  -4.759   0.000  0.00  0.00    +0.000 C 
ATOM     17  O   UNL     1      -2.061  -5.426   0.000  0.00  0.00    +0.000 OA
ATOM     18  C   UNL     1      -1.831  -3.974   0.000  0.00  0.00    +0.000 C 
ATOM     19  O   UNL     1      -2.616  -3.719   0.000  0.00  0.00    +0.000 OA
BRANCH  13  20
ATOM     20  C   UNL     1      -1.716  -2.876   0.000  0.00  0.00    +0.000 C 
ATOM     21  O   UNL     1      -2.523  -3.048   0.000  0.00  0.00    +0.000 OA
ENDBRANCH  13  20
BRANCH  15  22
ATOM     22  C   UNL     1      -0.266  -5.426   0.000  0.00  0.00    +0.000 C 
ATOM     23  O   UNL     1       0.554  -5.340   0.000  0.00  0.00    +0.000 OA
ENDBRANCH  15  22
ENDBRANCH   1  13
TORSDOF 5
REMARK  Name = 
REMARK  30 active torsions:
REMARK  status: ('A' for Active; 'I' for Inactive)
REMARK    1  A    between atoms: C_8  and  C_9
REMARK    2  A    between atoms: C_9  and  C_11
REMARK    3  A    between atoms: C_11  and  C_13
REMARK    4  A    between atoms: C_13  and  C_15
REMARK    5  A    between atoms: C_15  and  C_17
REMARK    6  A    between atoms: C_21  and  C_22
REMARK    7  A    between atoms: C_24  and  O_25
REMARK    8  A    between atoms: O_25  and  C_26
REMARK    9  A    between atoms: C_26  and  C_27
REMARK   10  A    between atoms: C_30  and  C_31
REMARK   11  A    between atoms: C_44  and  C_45
REMARK   12  A    between atoms: C_47  and  O_48
REMARK   13  A    between atoms: O_48  and  C_49
REMARK   14  A    between atoms: C_49  and  C_50
REMARK   15  A    between atoms: C_53  and  C_54
REMARK   16  A    between atoms: C_67  and  C_68
REMARK   17  A    between atoms: C_70  and  O_71
REMARK   18  A    between atoms: O_71  and  C_72
REMARK   19  A    between atoms: C_72  and  C_73
REMARK   20  A    between atoms: C_76  and  C_77
REMARK   21  A    between atoms: C_90  and  C_91
REMARK   22  A    between atoms: C_93  and  O_94
REMARK   23  A    between atoms: O_94  and  C_95
REMARK   24  A    between atoms: C_95  and  C_96
REMARK   25  A    between atoms: C_99  and  C_100
REMARK   26  A    between atoms: C_113  and  C_114
REMARK   27  A    between atoms: C_116  and  O_117
REMARK   28  A    between atoms: O_117  and  C_118
REMARK   29  A    between atoms: C_118  and  C_119
REMARK   30  A    between atoms: C_122  and  C_123
REMARK                            x       y       z     vdW  Elec       q    Type
REMARK                         _______ _______ _______ _____ _____    ______ ____
ROOT
ATOM      1  O   UNL     1       6.506  -2.876   0.000  0.00  0.00    +0.000 OA
ENDROOT
BRANCH   1   4
ATOM      2  C   UNL     1       8.375  -4.004   0.000  0.00  0.00    +0.000 C 
ATOM      3  O   UNL     1       7.568  -3.832   0.000  0.00  0.00    +0.000 OA
ATOM      4  C   UNL     1       7.313  -3.048   0.000  0.00  0.00    +0.000 C 
ATOM      5  C   UNL     1       7.865  -2.435   0.000  0.00  0.00    +0.000 C 
ATOM      6  O   UNL     1       7.610  -1.650   0.000  0.00  0.00    +0.000 OA
ATOM      7  C   UNL     1       8.672  -2.606   0.000  0.00  0.00    +0.000 C 
ATOM      8  O   UNL     1       9.224  -1.993   0.000  0.00  0.00    +0.000 OA
ATOM      9  C   UNL     1       8.927  -3.391   0.000  0.00  0.00    +0.000 C 
ATOM     10  O   UNL     1       9.734  -3.562   0.000  0.00  0.00    +0.000 OA
BRANCH   2  12
ATOM     11  O   UNL     1       9.437  -4.960   0.000  0.00  0.00    +0.000 OA
ATOM     12  C   UNL     1       8.630  -4.788   0.000  0.00  0.00    +0.000 C 
ENDBRANCH   2  12
ENDBRANCH   1   4
BRANCH   1  13
ATOM     13  C   UNL     1       5.954  -3.489   0.000  0.00  0.00    +0.000 C 
ATOM     14  O   UNL     1       6.621  -3.974   0.000  0.00  0.00    +0.000 OA
ATOM     15  C   UNL     1       6.366  -4.759   0.000  0.00  0.00    +0.000 C 
ATOM     16  C   UNL     1       5.541  -4.759   0.000  0.00  0.00    +0.000 C 
ATOM     17  O   UNL     1       5.056  -5.426   0.000  0.00  0.00    +0.000 OA
ATOM     18  C   UNL     1       5.286  -3.974   0.000  0.00  0.00    +0.000 C 
ATOM     19  O   UNL     1       4.502  -3.719   0.000  0.00  0.00    +0.000 OA
BRANCH  13  20
ATOM     20  C   UNL     1       5.402  -2.876   0.000  0.00  0.00    +0.000 C 
ATOM     21  O   UNL     1       4.595  -3.048   0.000  0.00  0.00    +0.000 OA
ENDBRANCH  13  20
BRANCH  15  22
ATOM     22  C   UNL     1       6.851  -5.426   0.000  0.00  0.00    +0.000 C 
ATOM     23  O   UNL     1       7.672  -5.340   0.000  0.00  0.00    +0.000 OA
ENDBRANCH  15  22
ENDBRANCH   1  13
TORSDOF 5
