REMARK  Name = 
REMARK  3 active torsions:
REMARK  status: ('A' for Active; 'I' for Inactive)
REMARK    1  A    between atoms: C_11  and  C_12
REMARK    2  A    between atoms: C_11  and  C_19
REMARK    3  A    between atoms: C_22  and  C_25
REMARK                            x       y       z     vdW  Elec       q    Type
REMARK                         _______ _______ _______ _____ _____    ______ ____
ROOT
ATOM      1  C   UNL     1      -0.184  -0.606   0.000  0.00  0.00    +0.000 C 
ATOM      2  C   UNL     1      -0.715  -1.238   0.000  0.00  0.00    +0.000 C 
ATOM      3  C   UNL     1      -1.245  -0.606   0.000  0.00  0.00    +0.000 C 
ATOM      4  C   UNL     1       0.000  -1.650   0.000  0.00  0.00    +0.000 C 
ATOM      5  C   UNL     1       0.000  -2.475   0.000  0.00  0.00    +0.000 C 
ATOM      6  C   UNL     1      -0.715  -2.888   0.000  0.00  0.00    +0.000 C 
ATOM      7  C   UNL     1      -1.429  -2.475   0.000  0.00  0.00    +0.000 C 
ATOM      8  C   UNL     1      -1.711  -3.250   0.000  0.00  0.00    +0.000 C 
ATOM      9  C   UNL     1      -2.241  -2.332   0.000  0.00  0.00    +0.000 C 
ATOM     10  C   UNL     1      -1.429  -1.650   0.000  0.00  0.00    +0.000 C 
ATOM     11  C   UNL     1       0.715  -2.888   0.000  0.00  0.00    +0.000 C 
ENDROOT
BRANCH  11  12
ATOM     12  C   UNL     1       0.715  -3.712   0.000  0.00  0.00    +0.000 A 
ATOM     13  C   UNL     1       1.429  -4.125   0.000  0.00  0.00    +0.000 A 
ATOM     14  C   UNL     1       1.429  -4.950   0.000  0.00  0.00    +0.000 A 
ATOM     15  C   UNL     1       0.715  -5.362   0.000  0.00  0.00    +0.000 A 
ATOM     16  O   UNL     1       0.715  -6.188   0.000  0.00  0.00    +0.000 OA
ATOM     17  C   UNL     1       0.000  -4.950   0.000  0.00  0.00    +0.000 A 
ATOM     18  C   UNL     1       0.000  -4.125   0.000  0.00  0.00    +0.000 A 
ENDBRANCH  11  12
BRANCH  11  19
ATOM     19  C   UNL     1       1.429  -2.475   0.000  0.00  0.00    +0.000 A 
ATOM     20  C   UNL     1       1.429  -1.650   0.000  0.00  0.00    +0.000 A 
ATOM     21  C   UNL     1       2.143  -1.238   0.000  0.00  0.00    +0.000 A 
ATOM     22  C   UNL     1       2.858  -1.650   0.000  0.00  0.00    +0.000 A 
ATOM     23  C   UNL     1       2.858  -2.475   0.000  0.00  0.00    +0.000 A 
ATOM     24  C   UNL     1       2.143  -2.888   0.000  0.00  0.00    +0.000 A 
BRANCH  22  25
ATOM     25  C   UNL     1       3.572  -1.238   0.000  0.00  0.00    +0.000 C 
ATOM     26  O   UNL     1       3.572  -0.412   0.000  0.00  0.00    +0.000 OA
ATOM     27  O   UNL     1       4.287  -1.650   0.000  0.00  0.00    +0.000 OA
ENDBRANCH  22  25
ENDBRANCH  11  19
TORSDOF 3
