REMARK  Name = 
REMARK  9 active torsions:
REMARK  status: ('A' for Active; 'I' for Inactive)
REMARK    1  A    between atoms: C_4  and  C_45
REMARK    2  A    between atoms: N_13  and  S_32
REMARK    3  A    between atoms: C_14  and  C_16
REMARK    4  A    between atoms: N_17  and  C_18
REMARK    5  A    between atoms: C_18  and  C_19
REMARK    6  A    between atoms: C_22  and  O_25
REMARK    7  A    between atoms: O_25  and  C_26
REMARK    8  A    between atoms: S_32  and  C_33
REMARK    9  A    between atoms: C_36  and  C_39
REMARK                            x       y       z     vdW  Elec       q    Type
REMARK                         _______ _______ _______ _____ _____    ______ ____
ROOT
ATOM      1  C   UNL     1      -1.568  -1.214   0.000  0.00  0.00    +0.000 A 
ATOM      2  C   UNL     1      -1.979  -1.931   0.000  0.00  0.00    +0.000 A 
ATOM      3  N   UNL     1      -1.568  -2.644   0.000  0.00  0.00    +0.000 NA
ATOM      4  C   UNL     1      -0.743  -2.644   0.000  0.00  0.00    +0.000 A 
ATOM      5  N   UNL     1      -0.328  -1.931   0.000  0.00  0.00    +0.000 NA
ATOM      6  C   UNL     1      -0.743  -1.214   0.000  0.00  0.00    +0.000 A 
ATOM      7  N   UNL     1      -0.486  -0.427   0.000  0.00  0.00    +0.000 NA
ATOM      8  C   UNL     1      -1.154   0.056   0.000  0.00  0.00    +0.000 A 
ATOM      9  S   UNL     1      -1.821  -0.427   0.000  0.00  0.00    +0.000 S 
ATOM     10  N   UNL     1      -1.154   0.881   0.000  0.00  0.00    +0.000 N 
ATOM     11  C   UNL     1      -1.871   1.291   0.000  0.00  0.00    +0.000 C 
ATOM     12  C   UNL     1      -1.871   2.116   0.000  0.00  0.00    +0.000 C 
ATOM     13  N   UNL     1      -1.154   2.531   0.000  0.00  0.00    +0.000 NA
ATOM     14  C   UNL     1      -0.436   2.116   0.000  0.00  0.00    +0.000 C 
ATOM     15  C   UNL     1      -0.436   1.291   0.000  0.00  0.00    +0.000 C 
ENDROOT
BRANCH  13  16
ATOM     16  S   UNL     1      -1.154   3.356   0.000  0.00  0.00    +0.000 S 
ATOM     17  O   UNL     1      -1.154   4.181   0.000  0.00  0.00    +0.000 OA
ATOM     18  O   UNL     1      -0.328   3.356   0.000  0.00  0.00    +0.000 OA
BRANCH  16  19
ATOM     19  C   UNL     1      -1.979   3.356   0.000  0.00  0.00    +0.000 A 
ATOM     20  C   UNL     1      -2.394   2.639   0.000  0.00  0.00    +0.000 A 
ATOM     21  C   UNL     1      -3.219   2.639   0.000  0.00  0.00    +0.000 A 
ATOM     22  C   UNL     1      -3.629   3.356   0.000  0.00  0.00    +0.000 A 
ATOM     23  C   UNL     1      -3.219   4.069   0.000  0.00  0.00    +0.000 A 
ATOM     24  C   UNL     1      -2.394   4.069   0.000  0.00  0.00    +0.000 A 
BRANCH  22  25
ATOM     25  C   UNL     1      -4.454   3.356   0.000  0.00  0.00    +0.000 C 
ATOM     26  F   UNL     1      -4.869   2.639   0.000  0.00  0.00    +0.000 F 
ATOM     27  F   UNL     1      -4.869   4.069   0.000  0.00  0.00    +0.000 F 
ATOM     28  F   UNL     1      -5.279   3.356   0.000  0.00  0.00    +0.000 F 
ENDBRANCH  22  25
ENDBRANCH  16  19
ENDBRANCH  13  16
BRANCH  14  29
ATOM     29  C   UNL     1       0.276   2.531   0.000  0.00  0.00    +0.000 C 
ATOM     30  N   UNL     1       0.989   2.116   0.000  0.00  0.00    +0.000 NA
ATOM     31  O   UNL     1       0.276   3.356   0.000  0.00  0.00    +0.000 OA
BRANCH  30  32
ATOM     32  C   UNL     1       1.706   2.531   0.000  0.00  0.00    +0.000 C 
BRANCH  32  33
ATOM     33  C   UNL     1       2.419   2.116   0.000  0.00  0.00    +0.000 A 
ATOM     34  C   UNL     1       3.132   2.531   0.000  0.00  0.00    +0.000 A 
ATOM     35  C   UNL     1       3.849   2.116   0.000  0.00  0.00    +0.000 A 
ATOM     36  C   UNL     1       3.849   1.291   0.000  0.00  0.00    +0.000 A 
ATOM     37  C   UNL     1       3.132   0.881   0.000  0.00  0.00    +0.000 A 
ATOM     38  C   UNL     1       2.419   1.291   0.000  0.00  0.00    +0.000 A 
ATOM     39  F   UNL     1       4.562   2.531   0.000  0.00  0.00    +0.000 F 
BRANCH  36  40
ATOM     40  O   UNL     1       4.562   0.881   0.000  0.00  0.00    +0.000 OA
BRANCH  40  41
ATOM     41  C   UNL     1       4.562   0.056   0.000  0.00  0.00    +0.000 C 
ATOM     42  F   UNL     1       5.279  -0.359   0.000  0.00  0.00    +0.000 F 
ATOM     43  F   UNL     1       3.849  -0.359   0.000  0.00  0.00    +0.000 F 
ATOM     44  F   UNL     1       4.562  -0.769   0.000  0.00  0.00    +0.000 F 
ENDBRANCH  40  41
ENDBRANCH  36  40
ENDBRANCH  32  33
ENDBRANCH  30  32
ENDBRANCH  14  29
BRANCH   4  45
ATOM     45  C   UNL     1      -0.328  -3.356   0.000  0.00  0.00    +0.000 C 
ATOM     46  C   UNL     1      -0.328  -4.181   0.000  0.00  0.00    +0.000 C 
ATOM     47  C   UNL     1       0.384  -3.771   0.000  0.00  0.00    +0.000 C 
ENDBRANCH   4  45
TORSDOF 9
