REMARK  Name = 
REMARK  5 active torsions:
REMARK  status: ('A' for Active; 'I' for Inactive)
REMARK    1  A    between atoms: C_5  and  C_20
REMARK    2  A    between atoms: C_7  and  C_8
REMARK    3  A    between atoms: C_9  and  C_10
REMARK    4  A    between atoms: N_22  and  N_23
REMARK    5  A    between atoms: C_24  and  C_26
REMARK                            x       y       z     vdW  Elec       q    Type
REMARK                         _______ _______ _______ _____ _____    ______ ____
ROOT
ATOM      1  C   UNL     1      -2.143  -3.712   0.000  0.00  0.00    +0.000 C 
ATOM      2  C   UNL     1      -2.858  -3.300   0.000  0.00  0.00    +0.000 A 
ATOM      3  C   UNL     1      -3.572  -3.712   0.000  0.00  0.00    +0.000 A 
ATOM      4  C   UNL     1      -4.287  -3.300   0.000  0.00  0.00    +0.000 A 
ATOM      5  C   UNL     1      -4.287  -2.475   0.000  0.00  0.00    +0.000 A 
ATOM      6  C   UNL     1      -3.572  -2.062   0.000  0.00  0.00    +0.000 A 
ATOM      7  C   UNL     1      -2.858  -2.475   0.000  0.00  0.00    +0.000 A 
ENDROOT
BRANCH   5   8
ATOM      8  C   UNL     1      -5.001  -2.062   0.000  0.00  0.00    +0.000 C 
ATOM      9  O   UNL     1      -5.001  -1.238   0.000  0.00  0.00    +0.000 OA
ATOM     10  N   UNL     1      -5.716  -2.475   0.000  0.00  0.00    +0.000 NA
BRANCH  10  11
ATOM     11  N   UNL     1      -6.430  -2.062   0.000  0.00  0.00    +0.000 NA
ATOM     12  C   UNL     1      -7.145  -2.475   0.000  0.00  0.00    +0.000 C 
ATOM     13  O   UNL     1      -7.145  -3.300   0.000  0.00  0.00    +0.000 OA
BRANCH  12  14
ATOM     14  C   UNL     1      -7.859  -2.062   0.000  0.00  0.00    +0.000 A 
ATOM     15  C   UNL     1      -8.574  -2.475   0.000  0.00  0.00    +0.000 A 
ATOM     16  C   UNL     1      -8.574  -3.300   0.000  0.00  0.00    +0.000 C 
ATOM     17  C   UNL     1      -9.288  -2.062   0.000  0.00  0.00    +0.000 A 
ATOM     18  C   UNL     1      -9.288  -1.238   0.000  0.00  0.00    +0.000 A 
ATOM     19  C   UNL     1      -8.574  -0.825   0.000  0.00  0.00    +0.000 A 
ATOM     20  C   UNL     1      -7.859  -1.238   0.000  0.00  0.00    +0.000 A 
ATOM     21 CL   UNL     1      -7.145  -0.825   0.000  0.00  0.00    +0.000 Cl
ENDBRANCH  12  14
ENDBRANCH  10  11
ENDBRANCH   5   8
BRANCH   7  22
ATOM     22  C   UNL     1      -2.143  -2.062   0.000  0.00  0.00    +0.000 C 
ATOM     23  C   UNL     1      -1.429  -1.650   0.000  0.00  0.00    +0.000 C 
BRANCH  23  24
ATOM     24  C   UNL     1      -0.715  -1.238   0.000  0.00  0.00    +0.000 A 
ATOM     25  C   UNL     1       0.000  -1.650   0.000  0.00  0.00    +0.000 A 
ATOM     26  C   UNL     1       0.715  -1.238   0.000  0.00  0.00    +0.000 A 
ATOM     27  C   UNL     1       0.715  -0.412   0.000  0.00  0.00    +0.000 A 
ATOM     28  C   UNL     1       1.429   0.000   0.000  0.00  0.00    +0.000 A 
ATOM     29  C   UNL     1       2.143  -0.412   0.000  0.00  0.00    +0.000 A 
ATOM     30  C   UNL     1       2.143  -1.238   0.000  0.00  0.00    +0.000 A 
ATOM     31  C   UNL     1       1.429  -1.650   0.000  0.00  0.00    +0.000 A 
ATOM     32  N   UNL     1       0.000   0.000   0.000  0.00  0.00    +0.000 NA
ATOM     33  C   UNL     1      -0.715  -0.412   0.000  0.00  0.00    +0.000 A 
ENDBRANCH  23  24
ENDBRANCH   7  22
TORSDOF 5
