REMARK  Name = 
REMARK  2 active torsions:
REMARK  status: ('A' for Active; 'I' for Inactive)
REMARK    1  A    between atoms: C_7  and  C_31
REMARK    2  A    between atoms: C_31  and  C_32
REMARK                            x       y       z     vdW  Elec       q    Type
REMARK                         _______ _______ _______ _____ _____    ______ ____
ROOT
ATOM      1  C   UNL     1      10.653  -2.610   0.000  0.00  0.00    +0.000 C 
ATOM      2  C   UNL     1      10.653  -3.435   0.000  0.00  0.00    +0.000 C 
ATOM      3  C   UNL     1      11.354  -3.848   0.000  0.00  0.00    +0.000 C 
ATOM      4  C   UNL     1      12.055  -3.435   0.000  0.00  0.00    +0.000 C 
ATOM      5  C   UNL     1      12.055  -2.610   0.000  0.00  0.00    +0.000 C 
ATOM      6  C   UNL     1      11.354  -2.198   0.000  0.00  0.00    +0.000 C 
ATOM      7  C   UNL     1      10.034  -3.848   0.000  0.00  0.00    +0.000 C 
ATOM      8  N   UNL     1      10.158  -4.466   0.000  0.00  0.00    +0.000 NA
ATOM      9  C   UNL     1      10.859  -4.631   0.000  0.00  0.00    +0.000 C 
ATOM     10  O   UNL     1      10.859  -5.456   0.000  0.00  0.00    +0.000 OA
ATOM     11  C   UNL     1      11.354  -1.373   0.000  0.00  0.00    +0.000 C 
ATOM     12  C   UNL     1       9.910  -2.198   0.000  0.00  0.00    +0.000 C 
ATOM     13  O   UNL     1      12.798  -2.198   0.000  0.00  0.00    +0.000 OA
ATOM     14  C   UNL     1      12.055  -5.085   0.000  0.00  0.00    +0.000 C 
ATOM     15  C   UNL     1      12.798  -4.673   0.000  0.00  0.00    +0.000 C 
ATOM     16  C   UNL     1      12.798  -3.848   0.000  0.00  0.00    +0.000 C 
ATOM     17  O   UNL     1      11.354  -4.755   0.000  0.00  0.00    +0.000 OA
ATOM     18  O   UNL     1      12.055  -5.910   0.000  0.00  0.00    +0.000 OA
ATOM     19  C   UNL     1      13.499  -5.085   0.000  0.00  0.00    +0.000 C 
ATOM     20  C   UNL     1      14.242  -4.673   0.000  0.00  0.00    +0.000 C 
ATOM     21  C   UNL     1      14.242  -3.848   0.000  0.00  0.00    +0.000 C 
ATOM     22  C   UNL     1      13.499  -3.435   0.000  0.00  0.00    +0.000 C 
ATOM     23  C   UNL     1      14.943  -5.085   0.000  0.00  0.00    +0.000 C 
ATOM     24  C   UNL     1      15.685  -4.673   0.000  0.00  0.00    +0.000 C 
ATOM     25  C   UNL     1      15.685  -3.848   0.000  0.00  0.00    +0.000 C 
ATOM     26  C   UNL     1      14.943  -3.435   0.000  0.00  0.00    +0.000 C 
ATOM     27  O   UNL     1      14.943  -4.260   0.000  0.00  0.00    +0.000 OA
ATOM     28  C   UNL     1      14.943  -2.610   0.000  0.00  0.00    +0.000 C 
ENDROOT
BRANCH   7  29
ATOM     29  C   UNL     1       9.292  -3.435   0.000  0.00  0.00    +0.000 C 
BRANCH  29  30
ATOM     30  C   UNL     1       8.590  -3.848   0.000  0.00  0.00    +0.000 A 
ATOM     31  C   UNL     1       7.848  -3.435   0.000  0.00  0.00    +0.000 A 
ATOM     32  C   UNL     1       7.105  -3.848   0.000  0.00  0.00    +0.000 A 
ATOM     33  C   UNL     1       7.105  -4.673   0.000  0.00  0.00    +0.000 A 
ATOM     34  C   UNL     1       7.848  -5.085   0.000  0.00  0.00    +0.000 A 
ATOM     35  C   UNL     1       8.590  -4.673   0.000  0.00  0.00    +0.000 A 
ENDBRANCH  29  30
ENDBRANCH   7  29
TORSDOF 2
