REMARK  Name = 
REMARK  10 active torsions:
REMARK  status: ('A' for Active; 'I' for Inactive)
REMARK    1  A    between atoms: C_2  and  C_3
REMARK    2  A    between atoms: C_2  and  N_20
REMARK    3  A    between atoms: C_3  and  C_4
REMARK    4  A    between atoms: C_3  and  C_12
REMARK    5  A    between atoms: C_4  and  C_5
REMARK    6  A    between atoms: C_16  and  C_18
REMARK    7  A    between atoms: C_21  and  C_23
REMARK    8  A    between atoms: C_23  and  O_26
REMARK    9  A    between atoms: O_26  and  C_27
REMARK   10  A    between atoms: C_30  and  C_33
REMARK                            x       y       z     vdW  Elec       q    Type
REMARK                         _______ _______ _______ _____ _____    ______ ____
ROOT
ATOM      1  C   UNL     1       3.572  -2.888   0.000  0.00  0.00    +0.000 C 
ATOM      2  C   UNL     1       2.858  -3.300   0.000  0.00  0.00    +0.000 C 
ENDROOT
BRANCH   2   3
ATOM      3  N   UNL     1       2.143  -2.888   0.000  0.00  0.00    +0.000 NA
ATOM      4  C   UNL     1       2.143  -2.062   0.000  0.00  0.00    +0.000 C 
ATOM      5  O   UNL     1       2.858  -1.650   0.000  0.00  0.00    +0.000 OA
BRANCH   4   6
ATOM      6  C   UNL     1       1.429  -1.650   0.000  0.00  0.00    +0.000 C 
ATOM      7  C   UNL     1       1.841  -0.935   0.000  0.00  0.00    +0.000 C 
ATOM      8  C   UNL     1       1.016  -2.365   0.000  0.00  0.00    +0.000 C 
BRANCH   6   9
ATOM      9  O   UNL     1       0.715  -1.238   0.000  0.00  0.00    +0.000 OA
BRANCH   9  10
ATOM     10  C   UNL     1       0.715  -0.412   0.000  0.00  0.00    +0.000 A 
ATOM     11  C   UNL     1       0.000   0.000   0.000  0.00  0.00    +0.000 A 
ATOM     12  C   UNL     1       0.000   0.825   0.000  0.00  0.00    +0.000 A 
ATOM     13  C   UNL     1       0.715   1.238   0.000  0.00  0.00    +0.000 A 
ATOM     14  C   UNL     1       1.429   0.825   0.000  0.00  0.00    +0.000 A 
ATOM     15  N   UNL     1       1.429   0.000   0.000  0.00  0.00    +0.000 NA
BRANCH  13  16
ATOM     16  C   UNL     1       0.715   2.062   0.000  0.00  0.00    +0.000 C 
ATOM     17  F   UNL     1       0.715   2.888   0.000  0.00  0.00    +0.000 F 
ATOM     18  F   UNL     1       1.540   2.062   0.000  0.00  0.00    +0.000 F 
ATOM     19  F   UNL     1      -0.111   2.062   0.000  0.00  0.00    +0.000 F 
ENDBRANCH  13  16
ENDBRANCH   9  10
ENDBRANCH   6   9
ENDBRANCH   4   6
ENDBRANCH   2   3
BRANCH   2  20
ATOM     20  C   UNL     1       2.858  -4.125   0.000  0.00  0.00    +0.000 C 
BRANCH  20  21
ATOM     21  C   UNL     1       2.143  -4.537   0.000  0.00  0.00    +0.000 A 
ATOM     22  C   UNL     1       2.143  -5.362   0.000  0.00  0.00    +0.000 A 
ATOM     23  C   UNL     1       1.429  -5.775   0.000  0.00  0.00    +0.000 A 
ATOM     24  C   UNL     1       0.715  -5.362   0.000  0.00  0.00    +0.000 A 
ATOM     25  C   UNL     1       0.715  -4.537   0.000  0.00  0.00    +0.000 A 
ATOM     26  C   UNL     1       1.429  -4.125   0.000  0.00  0.00    +0.000 A 
BRANCH  25  27
ATOM     27  C   UNL     1       0.000  -4.125   0.000  0.00  0.00    +0.000 C 
ATOM     28  N   UNL     1      -0.715  -3.712   0.000  0.00  0.00    +0.000 NA
ENDBRANCH  25  27
ENDBRANCH  20  21
BRANCH  20  29
ATOM     29  C   UNL     1       3.572  -4.537   0.000  0.00  0.00    +0.000 C 
BRANCH  29  30
ATOM     30  C   UNL     1       3.572  -5.362   0.000  0.00  0.00    +0.000 A 
ATOM     31  C   UNL     1       4.287  -5.775   0.000  0.00  0.00    +0.000 A 
ATOM     32  C   UNL     1       4.287  -6.600   0.000  0.00  0.00    +0.000 A 
ATOM     33  C   UNL     1       3.572  -7.013   0.000  0.00  0.00    +0.000 A 
ATOM     34  C   UNL     1       2.858  -6.600   0.000  0.00  0.00    +0.000 A 
ATOM     35  C   UNL     1       2.858  -5.775   0.000  0.00  0.00    +0.000 A 
ATOM     36 CL   UNL     1       3.572  -7.838   0.000  0.00  0.00    +0.000 Cl
ENDBRANCH  29  30
ENDBRANCH  20  29
ENDBRANCH   2  20
TORSDOF 10
