REMARK  Name = 
REMARK  5 active torsions:
REMARK  status: ('A' for Active; 'I' for Inactive)
REMARK    1  A    between atoms: C_2  and  C_25
REMARK    2  A    between atoms: N_3  and  C_4
REMARK    3  A    between atoms: C_5  and  C_10
REMARK    4  A    between atoms: C_13  and  C_14
REMARK    5  A    between atoms: C_14  and  N_15
REMARK                            x       y       z     vdW  Elec       q    Type
REMARK                         _______ _______ _______ _____ _____    ______ ____
ROOT
ATOM      1  C   UNL     1      -0.715  -2.888   0.000  0.00  0.00    +0.000 A 
ATOM      2  C   UNL     1      -0.715  -3.712   0.000  0.00  0.00    +0.000 A 
ATOM      3  C   UNL     1      -1.429  -4.125   0.000  0.00  0.00    +0.000 A 
ATOM      4  C   UNL     1      -2.143  -3.712   0.000  0.00  0.00    +0.000 A 
ATOM      5  C   UNL     1      -2.143  -2.888   0.000  0.00  0.00    +0.000 A 
ATOM      6  C   UNL     1      -1.429  -2.475   0.000  0.00  0.00    +0.000 A 
ENDROOT
BRANCH   2   7
ATOM      7  C   UNL     1       0.000  -4.125   0.000  0.00  0.00    +0.000 A 
ATOM      8  C   UNL     1       0.754  -3.789   0.000  0.00  0.00    +0.000 A 
ATOM      9  N   UNL     1       1.306  -4.402   0.000  0.00  0.00    +0.000 N 
ATOM     10  C   UNL     1       2.113  -4.574   0.000  0.00  0.00    +0.000 A 
ATOM     11  C   UNL     1       2.199  -5.394   0.000  0.00  0.00    +0.000 A 
ATOM     12  S   UNL     1       1.445  -5.730   0.000  0.00  0.00    +0.000 S 
ATOM     13  C   UNL     1       0.893  -5.117   0.000  0.00  0.00    +0.000 A 
ATOM     14  N   UNL     1       0.086  -4.946   0.000  0.00  0.00    +0.000 NA
BRANCH  10  15
ATOM     15  C   UNL     1       2.726  -4.022   0.000  0.00  0.00    +0.000 C 
BRANCH  15  16
ATOM     16  N   UNL     1       3.510  -4.277   0.000  0.00  0.00    +0.000 NA
ATOM     17  C   UNL     1       4.123  -3.725   0.000  0.00  0.00    +0.000 C 
ATOM     18  C   UNL     1       4.908  -3.980   0.000  0.00  0.00    +0.000 C 
ATOM     19  N   UNL     1       5.080  -4.787   0.000  0.00  0.00    +0.000 NA
ATOM     20  C   UNL     1       4.466  -5.339   0.000  0.00  0.00    +0.000 C 
ATOM     21  C   UNL     1       3.682  -5.084   0.000  0.00  0.00    +0.000 C 
ENDBRANCH  15  16
ENDBRANCH  10  15
ENDBRANCH   2   7
BRANCH   1  24
ATOM     22  O   UNL     1      -0.715  -1.238   0.000  0.00  0.00    +0.000 OA
ATOM     23  C   UNL     1       0.000  -1.650   0.000  0.00  0.00    +0.000 C 
ATOM     24  N   UNL     1       0.000  -2.475   0.000  0.00  0.00    +0.000 NA
BRANCH  23  25
ATOM     25  C   UNL     1       0.715  -1.238   0.000  0.00  0.00    +0.000 A 
ATOM     26  C   UNL     1       0.715  -0.412   0.000  0.00  0.00    +0.000 A 
ATOM     27  N   UNL     1       1.429   0.000   0.000  0.00  0.00    +0.000 NA
ATOM     28  C   UNL     1       2.143  -0.412   0.000  0.00  0.00    +0.000 A 
ATOM     29  C   UNL     1       2.858   0.000   0.000  0.00  0.00    +0.000 A 
ATOM     30  C   UNL     1       3.572  -0.412   0.000  0.00  0.00    +0.000 A 
ATOM     31  C   UNL     1       3.572  -1.238   0.000  0.00  0.00    +0.000 A 
ATOM     32  C   UNL     1       2.858  -1.650   0.000  0.00  0.00    +0.000 A 
ATOM     33  C   UNL     1       2.143  -1.238   0.000  0.00  0.00    +0.000 A 
ATOM     34  N   UNL     1       1.429  -1.650   0.000  0.00  0.00    +0.000 NA
ENDBRANCH  23  25
ENDBRANCH   1  24
TORSDOF 5
