REMARK  Name = 
REMARK  9 active torsions:
REMARK  status: ('A' for Active; 'I' for Inactive)
REMARK    1  A    between atoms: C_2  and  C_3
REMARK    2  A    between atoms: C_3  and  C_4
REMARK    3  A    between atoms: C_4  and  N_5
REMARK    4  A    between atoms: N_5  and  C_6
REMARK    5  A    between atoms: C_6  and  C_7
REMARK    6  A    between atoms: C_7  and  N_8
REMARK    7  A    between atoms: N_8  and  C_9
REMARK    8  A    between atoms: N_8  and  C_11
REMARK    9  A    between atoms: C_13  and  C_15
REMARK                            x       y       z     vdW  Elec       q    Type
REMARK                         _______ _______ _______ _____ _____    ______ ____
ROOT
ATOM      1  N   UNL     1      -2.143  -2.888   0.000  0.00  0.00    +0.000 N 
ATOM      2  C   UNL     1      -2.143  -3.712   0.000  0.00  0.00    +0.000 C 
ATOM      3  O   UNL     1      -1.429  -4.125   0.000  0.00  0.00    +0.000 OA
ENDROOT
BRANCH   2   4
ATOM      4  C   UNL     1      -2.858  -4.125   0.000  0.00  0.00    +0.000 A 
ATOM      5  C   UNL     1      -3.572  -3.712   0.000  0.00  0.00    +0.000 A 
ATOM      6  C   UNL     1      -4.287  -4.125   0.000  0.00  0.00    +0.000 A 
ATOM      7  C   UNL     1      -4.287  -4.950   0.000  0.00  0.00    +0.000 A 
ATOM      8  C   UNL     1      -3.572  -5.362   0.000  0.00  0.00    +0.000 A 
ATOM      9  C   UNL     1      -2.858  -4.950   0.000  0.00  0.00    +0.000 A 
ATOM     10  C   UNL     1      -2.143  -5.362   0.000  0.00  0.00    +0.000 A 
ATOM     11  C   UNL     1      -2.143  -6.188   0.000  0.00  0.00    +0.000 A 
ATOM     12  C   UNL     1      -2.858  -6.600   0.000  0.00  0.00    +0.000 A 
ATOM     13  C   UNL     1      -3.572  -6.188   0.000  0.00  0.00    +0.000 A 
ENDBRANCH   2   4
BRANCH   1  14
ATOM     14  C   UNL     1      -2.858  -2.475   0.000  0.00  0.00    +0.000 C 
BRANCH  14  15
ATOM     15  C   UNL     1      -2.858  -1.650   0.000  0.00  0.00    +0.000 C 
BRANCH  15  17
ATOM     16  C   UNL     1      -3.572  -0.412   0.000  0.00  0.00    +0.000 C 
ATOM     17  C   UNL     1      -3.572  -1.238   0.000  0.00  0.00    +0.000 C 
ENDBRANCH  15  17
ENDBRANCH  14  15
ENDBRANCH   1  14
BRANCH   1  18
ATOM     18  C   UNL     1      -1.429  -2.475   0.000  0.00  0.00    +0.000 C 
BRANCH  18  19
ATOM     19  C   UNL     1      -1.429  -1.650   0.000  0.00  0.00    +0.000 C 
BRANCH  19  20
ATOM     20  N   UNL     1      -0.715  -1.238   0.000  0.00  0.00    +0.000 NA
BRANCH  20  21
ATOM     21  C   UNL     1       0.000  -1.650   0.000  0.00  0.00    +0.000 C 
ATOM     22  C   UNL     1       0.000  -2.475   0.000  0.00  0.00    +0.000 C 
ENDBRANCH  20  21
BRANCH  20  23
ATOM     23  C   UNL     1      -0.715  -0.412   0.000  0.00  0.00    +0.000 C 
ATOM     24  C   UNL     1       0.000   0.000   0.000  0.00  0.00    +0.000 C 
ENDBRANCH  20  23
ENDBRANCH  19  20
ENDBRANCH  18  19
ENDBRANCH   1  18
TORSDOF 9
