REMARK  Name = 
REMARK  7 active torsions:
REMARK  status: ('A' for Active; 'I' for Inactive)
REMARK    1  A    between atoms: N_2  and  C_3
REMARK    2  A    between atoms: C_3  and  C_4
REMARK    3  A    between atoms: C_14  and  C_16
REMARK    4  A    between atoms: C_17  and  C_18
REMARK    5  A    between atoms: N_22  and  C_23
REMARK    6  A    between atoms: C_23  and  O_24
REMARK    7  A    between atoms: O_24  and  P_25
REMARK                            x       y       z     vdW  Elec       q    Type
REMARK                         _______ _______ _______ _____ _____    ______ ____
ROOT
ATOM      1  C   UNL     1       0.000  -2.475   0.000  0.00  0.00    +0.000 C 
ATOM      2  C   UNL     1       0.000  -1.650   0.000  0.00  0.00    +0.000 C 
ENDROOT
BRANCH   2   3
ATOM      3  C   UNL     1       0.715  -1.238   0.000  0.00  0.00    +0.000 A 
ATOM      4  C   UNL     1       0.715  -0.412   0.000  0.00  0.00    +0.000 A 
ATOM      5  N   UNL     1       1.429   0.000   0.000  0.00  0.00    +0.000 NA
ATOM      6  C   UNL     1       2.143  -0.412   0.000  0.00  0.00    +0.000 A 
ATOM      7  N   UNL     1       2.858   0.000   0.000  0.00  0.00    +0.000 N 
ATOM      8  C   UNL     1       3.572  -0.412   0.000  0.00  0.00    +0.000 C 
ATOM      9  O   UNL     1       4.287   0.000   0.000  0.00  0.00    +0.000 OA
ATOM     10  C   UNL     1       3.572  -1.238   0.000  0.00  0.00    +0.000 C 
ATOM     11  C   UNL     1       2.858  -1.650   0.000  0.00  0.00    +0.000 C 
ATOM     12  C   UNL     1       2.143  -1.238   0.000  0.00  0.00    +0.000 A 
ATOM     13  C   UNL     1       1.429  -1.650   0.000  0.00  0.00    +0.000 A 
BRANCH   7  14
ATOM     14  C   UNL     1       2.858   0.825   0.000  0.00  0.00    +0.000 C 
BRANCH  14  15
ATOM     15  O   UNL     1       3.572   1.238   0.000  0.00  0.00    +0.000 OA
BRANCH  15  16
ATOM     16  P   UNL     1       3.572   2.062   0.000  0.00  0.00    +0.000 P 
ATOM     17  O   UNL     1       3.572   2.888   0.000  0.00  0.00    +0.000 OA
ATOM     18  O   UNL     1       4.397   2.062   0.000  0.00  0.00    +0.000 OA
ATOM     19  O   UNL     1       2.747   2.062   0.000  0.00  0.00    +0.000 OA
ENDBRANCH  15  16
ENDBRANCH  14  15
ENDBRANCH   7  14
ENDBRANCH   2   3
BRANCH   1  22
ATOM     20  C   UNL     1       0.000  -4.125   0.000  0.00  0.00    +0.000 C 
ATOM     21  N   UNL     1      -0.715  -3.712   0.000  0.00  0.00    +0.000 N 
ATOM     22  C   UNL     1      -0.715  -2.888   0.000  0.00  0.00    +0.000 C 
ATOM     23  O   UNL     1      -1.429  -2.475   0.000  0.00  0.00    +0.000 OA
BRANCH  21  24
ATOM     24  C   UNL     1      -1.429  -4.125   0.000  0.00  0.00    +0.000 C 
BRANCH  24  25
ATOM     25  C   UNL     1      -1.429  -4.950   0.000  0.00  0.00    +0.000 A 
ATOM     26  C   UNL     1      -0.761  -5.435   0.000  0.00  0.00    +0.000 A 
ATOM     27  C   UNL     1       0.023  -5.180   0.000  0.00  0.00    +0.000 C 
ATOM     28  C   UNL     1      -1.016  -6.220   0.000  0.00  0.00    +0.000 A 
ATOM     29  C   UNL     1      -0.604  -6.934   0.000  0.00  0.00    +0.000 A 
ATOM     30  C   UNL     1      -1.016  -7.649   0.000  0.00  0.00    +0.000 A 
ATOM     31  C   UNL     1      -1.841  -7.649   0.000  0.00  0.00    +0.000 A 
ATOM     32  C   UNL     1      -2.254  -6.934   0.000  0.00  0.00    +0.000 A 
ATOM     33  C   UNL     1      -1.841  -6.220   0.000  0.00  0.00    +0.000 A 
ATOM     34  O   UNL     1      -2.096  -5.435   0.000  0.00  0.00    +0.000 OA
ENDBRANCH  24  25
ENDBRANCH  21  24
ENDBRANCH   1  22
TORSDOF 7
