REMARK  Name = 
REMARK  19 active torsions:
REMARK  status: ('A' for Active; 'I' for Inactive)
REMARK    1  A    between atoms: C_1  and  CA_3
REMARK    2  A    between atoms: CA_3  and  CB_4
REMARK    3  A    between atoms: CA_3  and  N_5
REMARK    4  A    between atoms: CB_4  and  CG_8
REMARK    5  A    between atoms: CG_8  and  CD_9
REMARK    6  A    between atoms: CD_9  and  CE_10
REMARK    7  A    between atoms: CE_10  and  NZ_11
REMARK    8  A    between atoms: C_12  and  C_14
REMARK    9  A    between atoms: C_14  and  N_15
REMARK   10  A    between atoms: C_14  and  C_16
REMARK   11  A    between atoms: C_17  and  C_19
REMARK   12  A    between atoms: C_19  and  C_20
REMARK   13  A    between atoms: CA_28  and  C_31
REMARK   14  A    between atoms: C_36  and  CA_38
REMARK   15  A    between atoms: CA_38  and  CB_39
REMARK   16  A    between atoms: CA_38  and  N_40
REMARK   17  A    between atoms: CB_39  and  CG_43
REMARK   18  A    between atoms: CG_43  and  CD_44
REMARK   19  A    between atoms: CD_44  and  CE_45
REMARK                            x       y       z     vdW  Elec       q    Type
REMARK                         _______ _______ _______ _____ _____    ______ ____
ROOT
ATOM      1  C   UNL     1       7.085  -9.763   0.000  0.00  0.00    +0.000 C 
ENDROOT
BRANCH   1   2
ATOM      2  C   UNL     1       7.799 -10.175   0.000  0.00  0.00    +0.000 C 
ATOM      3  S   UNL     1       8.583  -9.917   0.000  0.00  0.00    +0.000 S 
ATOM      4  N   UNL     1       7.803 -11.000   0.000  0.00  0.00    +0.000 NA
ATOM      5  CA  UNL     1       8.588 -11.252   0.000  0.00  0.00    +0.000 C 
ATOM      6  C   UNL     1       9.071 -10.582   0.000  0.00  0.00    +0.000 C 
ATOM      7  C   UNL     1       9.785 -10.170   0.000  0.00  0.00    +0.000 C 
ATOM      8  C   UNL     1       9.785 -10.995   0.000  0.00  0.00    +0.000 C 
BRANCH   5   9
ATOM      9  C   UNL     1       8.847 -12.036   0.000  0.00  0.00    +0.000 C 
ATOM     10  O   UNL     1       9.654 -12.204   0.000  0.00  0.00    +0.000 OA
ATOM     11  OXT UNL     1       8.297 -12.651   0.000  0.00  0.00    +0.000 OA
ENDBRANCH   5   9
ENDBRANCH   1   2
BRANCH   1  13
ATOM     12  NZ  UNL     1       5.656  -9.763   0.000  0.00  0.00    +0.000 NA
ATOM     13  C   UNL     1       6.370 -10.175   0.000  0.00  0.00    +0.000 C 
ATOM     14  O   UNL     1       6.370 -11.000   0.000  0.00  0.00    +0.000 OA
BRANCH  12  15
ATOM     15  CE  UNL     1       5.656  -8.938   0.000  0.00  0.00    +0.000 C 
BRANCH  15  16
ATOM     16  CD  UNL     1       6.370  -8.525   0.000  0.00  0.00    +0.000 C 
BRANCH  16  17
ATOM     17  CG  UNL     1       6.370  -7.700   0.000  0.00  0.00    +0.000 C 
BRANCH  17  18
ATOM     18  CB  UNL     1       7.085  -7.288   0.000  0.00  0.00    +0.000 C 
BRANCH  18  19
ATOM     19  CA  UNL     1       7.085  -6.463   0.000  0.00  0.00    +0.000 C 
BRANCH  19  20
ATOM     20  C   UNL     1       7.799  -6.050   0.000  0.00  0.00    +0.000 C 
ATOM     21  O   UNL     1       7.799  -5.225   0.000  0.00  0.00    +0.000 OA
ATOM     22  OXT UNL     1       9.014  -6.080   0.000  0.00  0.00    +0.000 OA
ENDBRANCH  19  20
BRANCH  19  23
ATOM     23  N   UNL     1       6.370  -6.050   0.000  0.00  0.00    +0.000 NA
ATOM     24  H   UNL     1       5.545  -6.050   0.000  0.00  0.00    +0.000 HD
ENDBRANCH  19  23
ENDBRANCH  18  19
ENDBRANCH  17  18
ENDBRANCH  16  17
ENDBRANCH  15  16
ENDBRANCH  12  15
ENDBRANCH   1  13
BRANCH   1  25
ATOM     25  N   UNL     1       7.085  -8.938   0.000  0.00  0.00    +0.000 NA
ATOM     26  C   UNL     1       7.799  -8.525   0.000  0.00  0.00    +0.000 C 
ATOM     27  O   UNL     1       7.799  -7.700   0.000  0.00  0.00    +0.000 OA
BRANCH  26  28
ATOM     28  C   UNL     1       8.514  -8.938   0.000  0.00  0.00    +0.000 C 
BRANCH  28  29
ATOM     29  C   UNL     1       9.228  -8.525   0.000  0.00  0.00    +0.000 A 
ATOM     30  C   UNL     1       9.943  -7.288   0.000  0.00  0.00    +0.000 A 
ATOM     31  C   UNL     1       9.228  -7.700   0.000  0.00  0.00    +0.000 A 
ATOM     32  C   UNL     1       9.943  -8.938   0.000  0.00  0.00    +0.000 A 
ATOM     33  C   UNL     1      10.657  -8.525   0.000  0.00  0.00    +0.000 A 
ATOM     34  C   UNL     1      10.657  -7.700   0.000  0.00  0.00    +0.000 A 
ENDBRANCH  28  29
ENDBRANCH  26  28
ENDBRANCH   1  25
TORSDOF 13
REMARK  Name = 
REMARK  19 active torsions:
REMARK  status: ('A' for Active; 'I' for Inactive)
REMARK    1  A    between atoms: C_1  and  CA_3
REMARK    2  A    between atoms: CA_3  and  CB_4
REMARK    3  A    between atoms: CA_3  and  N_5
REMARK    4  A    between atoms: CB_4  and  CG_8
REMARK    5  A    between atoms: CG_8  and  CD_9
REMARK    6  A    between atoms: CD_9  and  CE_10
REMARK    7  A    between atoms: CE_10  and  NZ_11
REMARK    8  A    between atoms: C_12  and  C_14
REMARK    9  A    between atoms: C_14  and  N_15
REMARK   10  A    between atoms: C_14  and  C_16
REMARK   11  A    between atoms: C_17  and  C_19
REMARK   12  A    between atoms: C_19  and  C_20
REMARK   13  A    between atoms: CA_28  and  C_31
REMARK   14  A    between atoms: C_36  and  CA_38
REMARK   15  A    between atoms: CA_38  and  CB_39
REMARK   16  A    between atoms: CA_38  and  N_40
REMARK   17  A    between atoms: CB_39  and  CG_43
REMARK   18  A    between atoms: CG_43  and  CD_44
REMARK   19  A    between atoms: CD_44  and  CE_45
REMARK                            x       y       z     vdW  Elec       q    Type
REMARK                         _______ _______ _______ _____ _____    ______ ____
ROOT
ATOM      1  CA  LYS A   1      13.503  -7.623   0.000  0.00  0.00    +0.000 C 
ENDROOT
BRANCH   1   2
ATOM      2  C   LYS A   1      14.218  -7.211   0.000  0.00  0.00    +0.000 C 
ATOM      3  O   LYS A   1      14.218  -6.386   0.000  0.00  0.00    +0.000 OA
ATOM      4  OXT LYS A   1      15.433  -7.240   0.000  0.00  0.00    +0.000 OA
ENDBRANCH   1   2
BRANCH   1   5
ATOM      5  N   LYS A   1      12.789  -7.211   0.000  0.00  0.00    +0.000 NA
ATOM      6  H   LYS A   1      11.964  -7.211   0.000  0.00  0.00    +0.000 HD
ENDBRANCH   1   5
BRANCH   1   7
ATOM      7  CB  LYS A   1      13.503  -8.448   0.000  0.00  0.00    +0.000 C 
BRANCH   7   8
ATOM      8  CG  LYS A   1      12.789  -8.861   0.000  0.00  0.00    +0.000 C 
BRANCH   8   9
ATOM      9  CD  LYS A   1      12.789  -9.686   0.000  0.00  0.00    +0.000 C 
BRANCH   9  10
ATOM     10  CE  LYS A   1      12.074 -10.098   0.000  0.00  0.00    +0.000 C 
ATOM     11  NZ  LYS A   1      12.074 -10.923   0.000  0.00  0.00    +0.000 NA
ENDBRANCH   9  10
ENDBRANCH   8   9
ENDBRANCH   7   8
ENDBRANCH   1   7
TORSDOF 6
