REMARK  Name = 
REMARK  5 active torsions:
REMARK  status: ('A' for Active; 'I' for Inactive)
REMARK    1  A    between atoms: C_5  and  C_11
REMARK    2  A    between atoms: C_11  and  N_12
REMARK    3  A    between atoms: C_17  and  C_19
REMARK    4  A    between atoms: N_22  and  C_24
REMARK    5  A    between atoms: C_24  and  C_25
REMARK                            x       y       z     vdW  Elec       q    Type
REMARK                         _______ _______ _______ _____ _____    ______ ____
ROOT
ATOM      1  N   UNL     1      -2.254  -0.193   0.000  0.00  0.00    +0.000 N 
ATOM      2  C   UNL     1      -1.469   0.062   0.000  0.00  0.00    +0.000 A 
ATOM      3  C   UNL     1      -1.469   0.887   0.000  0.00  0.00    +0.000 A 
ATOM      4  N   UNL     1      -0.754   1.299   0.000  0.00  0.00    +0.000 NA
ATOM      5  C   UNL     1      -0.040   0.887   0.000  0.00  0.00    +0.000 A 
ATOM      6  C   UNL     1      -0.040   0.062   0.000  0.00  0.00    +0.000 A 
ATOM      7  N   UNL     1      -0.754  -0.351   0.000  0.00  0.00    +0.000 NA
ATOM      8  N   UNL     1      -2.254   1.141   0.000  0.00  0.00    +0.000 NA
ATOM      9  N   UNL     1      -2.739   0.474   0.000  0.00  0.00    +0.000 NA
ENDROOT
BRANCH   6  10
ATOM     10  C   UNL     1       0.674  -0.351   0.000  0.00  0.00    +0.000 A 
ATOM     11  C   UNL     1       1.428  -0.015   0.000  0.00  0.00    +0.000 A 
ATOM     12  N   UNL     1       1.980  -0.628   0.000  0.00  0.00    +0.000 NA
ATOM     13  N   UNL     1       1.568  -1.343   0.000  0.00  0.00    +0.000 N 
ATOM     14  C   UNL     1       0.761  -1.171   0.000  0.00  0.00    +0.000 A 
BRANCH  13  15
ATOM     15  C   UNL     1       1.903  -2.097   0.000  0.00  0.00    +0.000 C 
BRANCH  15  16
ATOM     16  C   UNL     1       1.418  -2.764   0.000  0.00  0.00    +0.000 C 
ATOM     17  O   UNL     1       1.754  -3.518   0.000  0.00  0.00    +0.000 OA
ENDBRANCH  15  16
ENDBRANCH  13  15
ENDBRANCH   6  10
BRANCH   1  18
ATOM     18  C   UNL     1      -2.509  -0.978   0.000  0.00  0.00    +0.000 C 
BRANCH  18  23
ATOM     19  C   UNL     1      -6.034  -0.266   0.000  0.00  0.00    +0.000 A 
ATOM     20  C   UNL     1      -5.226  -0.095   0.000  0.00  0.00    +0.000 A 
ATOM     21  C   UNL     1      -4.675  -0.708   0.000  0.00  0.00    +0.000 A 
ATOM     22  C   UNL     1      -3.868  -0.536   0.000  0.00  0.00    +0.000 A 
ATOM     23  C   UNL     1      -3.316  -1.149   0.000  0.00  0.00    +0.000 A 
ATOM     24  C   UNL     1      -3.570  -1.934   0.000  0.00  0.00    +0.000 A 
ATOM     25  C   UNL     1      -4.377  -2.106   0.000  0.00  0.00    +0.000 A 
ATOM     26  C   UNL     1      -4.929  -1.492   0.000  0.00  0.00    +0.000 A 
ATOM     27  N   UNL     1      -5.736  -1.664   0.000  0.00  0.00    +0.000 NA
ATOM     28  C   UNL     1      -6.288  -1.051   0.000  0.00  0.00    +0.000 A 
ENDBRANCH  18  23
ENDBRANCH   1  18
TORSDOF 5
