REMARK  Name = 
REMARK  7 active torsions:
REMARK  status: ('A' for Active; 'I' for Inactive)
REMARK    1  A    between atoms: C_2  and  N_3
REMARK    2  A    between atoms: N_3  and  C_25
REMARK    3  A    between atoms: C_6  and  O_8
REMARK    4  A    between atoms: O_8  and  C_9
REMARK    5  A    between atoms: C_9  and  C_11
REMARK    6  A    between atoms: C_11  and  C_12
REMARK    7  A    between atoms: C_11  and  C_18
REMARK                            x       y       z     vdW  Elec       q    Type
REMARK                         _______ _______ _______ _____ _____    ______ ____
ROOT
ATOM      1  C   UNL     1       2.432  -3.179   0.000  0.00  0.00    +0.000 C 
ATOM      2  O   UNL     1       3.099  -3.664   0.000  0.00  0.00    +0.000 OA
ENDROOT
BRANCH   1   3
ATOM      3  C   UNL     1       1.764  -2.694   0.000  0.00  0.00    +0.000 A 
ATOM      4  C   UNL     1       1.011  -3.030   0.000  0.00  0.00    +0.000 A 
ATOM      5  C   UNL     1       0.343  -2.545   0.000  0.00  0.00    +0.000 A 
ATOM      6  C   UNL     1       0.430  -1.725   0.000  0.00  0.00    +0.000 A 
ATOM      7  C   UNL     1       1.183  -1.389   0.000  0.00  0.00    +0.000 A 
ATOM      8  C   UNL     1       1.851  -1.874   0.000  0.00  0.00    +0.000 A 
ENDBRANCH   1   3
BRANCH   1   9
ATOM      9  C   UNL     1       1.947  -3.847   0.000  0.00  0.00    +0.000 A 
ATOM     10  C   UNL     1       2.283  -4.601   0.000  0.00  0.00    +0.000 A 
ATOM     11  C   UNL     1       1.798  -5.268   0.000  0.00  0.00    +0.000 A 
ATOM     12  C   UNL     1       0.977  -5.182   0.000  0.00  0.00    +0.000 A 
ATOM     13  C   UNL     1       0.642  -4.428   0.000  0.00  0.00    +0.000 A 
ATOM     14  C   UNL     1       1.127  -3.760   0.000  0.00  0.00    +0.000 A 
ENDBRANCH   1   9
BRANCH   1  15
ATOM     15  C   UNL     1       2.917  -2.512   0.000  0.00  0.00    +0.000 C 
ATOM     16  O   UNL     1       3.737  -2.598   0.000  0.00  0.00    +0.000 OA
BRANCH  15  17
ATOM     17  O   UNL     1       2.581  -1.758   0.000  0.00  0.00    +0.000 OA
BRANCH  17  21
ATOM     18  N   UNL     1       3.479   0.179   0.000  0.00  0.00    +0.000 N 
ATOM     19  C   UNL     1       4.146  -0.306   0.000  0.00  0.00    +0.000 C 
ATOM     20  C   UNL     1       3.891  -1.091   0.000  0.00  0.00    +0.000 C 
ATOM     21  C   UNL     1       3.066  -1.091   0.000  0.00  0.00    +0.000 C 
ATOM     22  C   UNL     1       2.811  -0.306   0.000  0.00  0.00    +0.000 C 
BRANCH  18  24
ATOM     23  C   UNL     1       2.120   0.620   0.000  0.00  0.00    +0.000 C 
ATOM     24  C   UNL     1       2.927   0.792   0.000  0.00  0.00    +0.000 C 
ENDBRANCH  18  24
BRANCH  18  25
ATOM     25  C   UNL     1       4.031   0.792   0.000  0.00  0.00    +0.000 C 
ATOM     26  C   UNL     1       4.838   0.620   0.000  0.00  0.00    +0.000 C 
ENDBRANCH  18  25
ENDBRANCH  17  21
ENDBRANCH  15  17
ENDBRANCH   1  15
TORSDOF 7
