REMARK  Name = 
REMARK  1 active torsions:
REMARK  status: ('A' for Active; 'I' for Inactive)
REMARK    1  A    between atoms: C_14  and  C_19
REMARK                            x       y       z     vdW  Elec       q    Type
REMARK                         _______ _______ _______ _____ _____    ______ ____
ROOT
ATOM      1  C   UNL     1      -1.452  -0.386   0.000  0.00  0.00    +0.000 C 
ATOM      2  C   UNL     1      -2.167   0.027   0.000  0.00  0.00    +0.000 C 
ATOM      3  C   UNL     1      -2.167   0.842   0.000  0.00  0.00    +0.000 C 
ATOM      4  C   UNL     1      -1.452   1.254   0.000  0.00  0.00    +0.000 C 
ATOM      5  C   UNL     1       1.388   1.254   0.000  0.00  0.00    +0.000 C 
ATOM      6  C   UNL     1       2.102   0.842   0.000  0.00  0.00    +0.000 C 
ATOM      7  C   UNL     1       2.102   0.027   0.000  0.00  0.00    +0.000 C 
ATOM      8  C   UNL     1       1.938  -0.798   0.000  0.00  0.00    +0.000 C 
ATOM      9  C   UNL     1       0.838  -0.798   0.000  0.00  0.00    +0.000 C 
ATOM     10  C   UNL     1      -0.747   0.842   0.000  0.00  0.00    +0.000 C 
ATOM     11  C   UNL     1       1.388  -0.386   0.000  0.00  0.00    +0.000 C 
ATOM     12  C   UNL     1      -0.747   0.027   0.000  0.00  0.00    +0.000 C 
ATOM     13  C   UNL     1       0.673   0.842   0.000  0.00  0.00    +0.000 C 
ATOM     14  C   UNL     1      -0.032  -0.386   0.000  0.00  0.00    +0.000 C 
ATOM     15  C   UNL     1       0.673   0.027   0.000  0.00  0.00    +0.000 C 
ATOM     16  O   UNL     1      -2.899  -0.353   0.000  0.00  0.00    +0.000 OA
ATOM     17  C   UNL     1      -1.450  -1.082   0.000  0.00  0.00    +0.000 C 
ATOM     18  C   UNL     1       2.434  -1.402   0.000  0.00  0.00    +0.000 C 
ATOM     19  O   UNL     1      -0.745   1.649   0.000  0.00  0.00    +0.000 OA
ATOM     20  C   UNL     1      -1.674   0.319   0.000  0.00  0.00    +0.000 C 
ATOM     21  O   UNL     1      -1.097   0.367   0.000  0.00  0.00    +0.000 OA
ENDROOT
BRANCH  14  22
ATOM     22  C   UNL     1      -0.030  -1.226   0.000  0.00  0.00    +0.000 C 
ATOM     23  O   UNL     1       0.699  -1.645   0.000  0.00  0.00    +0.000 OA
ATOM     24  O   UNL     1      -0.757  -1.649   0.000  0.00  0.00    +0.000 OA
ENDBRANCH  14  22
TORSDOF 1
