REMARK  Name = 
REMARK  7 active torsions:
REMARK  status: ('A' for Active; 'I' for Inactive)
REMARK    1  A    between atoms: O_1  and  N_6
REMARK    2  A    between atoms: O_1  and  C_19
REMARK    3  A    between atoms: N_6  and  C_9
REMARK    4  A    between atoms: C_8  and  C_12
REMARK    5  A    between atoms: C_15  and  C_19
REMARK    6  A    between atoms: C_15  and  C_20
REMARK    7  A    between atoms: C_20  and  C_25
REMARK                            x       y       z     vdW  Elec       q    Type
REMARK                         _______ _______ _______ _____ _____    ______ ____
ROOT
ATOM      1  N   UNL     1      -0.510  -2.952   0.000  0.00  0.00    +0.000 NA
ATOM      2  C   UNL     1      -0.028  -2.288   0.000  0.00  0.00    +0.000 A 
ATOM      3  C   UNL     1      -0.510  -1.624   0.000  0.00  0.00    +0.000 A 
ATOM      4  C   UNL     1      -1.291  -1.875   0.000  0.00  0.00    +0.000 A 
ATOM      5  C   UNL     1      -1.291  -2.700   0.000  0.00  0.00    +0.000 A 
ATOM      6  C   UNL     1      -2.005  -1.463   0.000  0.00  0.00    +0.000 A 
ATOM      7  C   UNL     1      -2.005  -3.113   0.000  0.00  0.00    +0.000 A 
ATOM      8  C   UNL     1      -2.720  -1.875   0.000  0.00  0.00    +0.000 A 
ATOM      9  C   UNL     1      -2.720  -2.700   0.000  0.00  0.00    +0.000 A 
ENDROOT
BRANCH   2  12
ATOM     10  O   UNL     1       1.022  -3.736   0.000  0.00  0.00    +0.000 OA
ATOM     11  N   UNL     1       2.059  -2.700   0.000  0.00  0.00    +0.000 NA
ATOM     12  C   UNL     1       0.797  -2.288   0.000  0.00  0.00    +0.000 C 
ATOM     13  C   UNL     1       1.278  -1.624   0.000  0.00  0.00    +0.000 A 
ATOM     14  C   UNL     1       2.062  -1.880   0.000  0.00  0.00    +0.000 A 
ATOM     15  C   UNL     1       1.278  -2.952   0.000  0.00  0.00    +0.000 C 
ATOM     16  C   UNL     1       1.108  -0.817   0.000  0.00  0.00    +0.000 A 
ATOM     17  C   UNL     1       2.676  -1.329   0.000  0.00  0.00    +0.000 A 
ATOM     18  C   UNL     1       1.722  -0.266   0.000  0.00  0.00    +0.000 A 
ATOM     19  C   UNL     1       2.506  -0.522   0.000  0.00  0.00    +0.000 A 
ENDBRANCH   2  12
BRANCH   3  20
ATOM     20  N   UNL     1      -0.254  -0.840   0.000  0.00  0.00    +0.000 NA
BRANCH  20  21
ATOM     21  O   UNL     1      -0.805  -0.226   0.000  0.00  0.00    +0.000 OA
BRANCH  21  22
ATOM     22  C   UNL     1      -0.548   0.559   0.000  0.00  0.00    +0.000 C 
BRANCH  22  23
ATOM     23  C   UNL     1      -1.099   1.173   0.000  0.00  0.00    +0.000 C 
BRANCH  23  25
ATOM     24  O   UNL     1      -0.036   2.127   0.000  0.00  0.00    +0.000 OA
ATOM     25  C   UNL     1      -0.843   1.957   0.000  0.00  0.00    +0.000 C 
BRANCH  25  27
ATOM     26  O   UNL     1      -1.138   3.355   0.000  0.00  0.00    +0.000 OA
ATOM     27  C   UNL     1      -1.394   2.571   0.000  0.00  0.00    +0.000 C 
ENDBRANCH  25  27
ENDBRANCH  23  25
ENDBRANCH  22  23
ENDBRANCH  21  22
ENDBRANCH  20  21
ENDBRANCH   3  20
TORSDOF 7
