REMARK  Name = 
REMARK  5 active torsions:
REMARK  status: ('A' for Active; 'I' for Inactive)
REMARK    1  A    between atoms: C_5  and  C_7
REMARK    2  A    between atoms: C_7  and  C_8
REMARK    3  A    between atoms: C_8  and  N_9
REMARK    4  A    between atoms: C_10  and  C_12
REMARK    5  A    between atoms: C_13  and  C_14
REMARK                            x       y       z     vdW  Elec       q    Type
REMARK                         _______ _______ _______ _____ _____    ______ ____
ROOT
ATOM      1  N   UNL     1      -0.379   0.228   0.000  0.00  0.00    +0.000 NA
ATOM      2  C   UNL     1       0.335  -0.184   0.000  0.00  0.00    +0.000 C 
ATOM      3  O   UNL     1       0.335  -1.009   0.000  0.00  0.00    +0.000 OA
ENDROOT
BRANCH   2   4
ATOM      4  C   UNL     1       1.006   0.272   0.000  0.00  0.00    +0.000 C 
ATOM      5  C   UNL     1       1.830  -0.206   0.000  0.00  0.00    +0.000 C 
BRANCH   5   6
ATOM      6  C   UNL     1       2.522   0.184   0.000  0.00  0.00    +0.000 A 
ATOM      7  C   UNL     1       3.237  -0.228   0.000  0.00  0.00    +0.000 A 
ATOM      8  C   UNL     1       3.952   0.184   0.000  0.00  0.00    +0.000 A 
ATOM      9  C   UNL     1       3.952   1.009   0.000  0.00  0.00    +0.000 A 
ATOM     10  C   UNL     1       3.237   1.422   0.000  0.00  0.00    +0.000 A 
ATOM     11  C   UNL     1       2.522   1.009   0.000  0.00  0.00    +0.000 A 
ATOM     12  O   UNL     1       4.666   1.422   0.000  0.00  0.00    +0.000 OA
ATOM     13  O   UNL     1       4.666  -0.228   0.000  0.00  0.00    +0.000 OA
ENDBRANCH   5   6
ENDBRANCH   2   4
BRANCH   1  14
ATOM     14  C   UNL     1      -1.093  -0.184   0.000  0.00  0.00    +0.000 C 
BRANCH  14  15
ATOM     15  C   UNL     1      -1.808   0.228   0.000  0.00  0.00    +0.000 C 
BRANCH  15  20
ATOM     16  C   UNL     1      -3.951  -0.184   0.000  0.00  0.00    +0.000 A 
ATOM     17  C   UNL     1      -3.951  -1.009   0.000  0.00  0.00    +0.000 A 
ATOM     18  C   UNL     1      -3.237  -1.422   0.000  0.00  0.00    +0.000 A 
ATOM     19  C   UNL     1      -2.522  -1.009   0.000  0.00  0.00    +0.000 A 
ATOM     20  C   UNL     1      -2.522  -0.184   0.000  0.00  0.00    +0.000 A 
ATOM     21  C   UNL     1      -3.237   0.228   0.000  0.00  0.00    +0.000 A 
ATOM     22  O   UNL     1      -4.666  -1.422   0.000  0.00  0.00    +0.000 OA
ENDBRANCH  15  20
ENDBRANCH  14  15
ENDBRANCH   1  14
TORSDOF 5
