REMARK  Name = 
REMARK  4 active torsions:
REMARK  status: ('A' for Active; 'I' for Inactive)
REMARK    1  A    between atoms: O_2  and  C_3
REMARK    2  A    between atoms: C_3  and  C_5
REMARK    3  A    between atoms: C_5  and  C_6
REMARK    4  A    between atoms: C_6  and  C_13
REMARK                            x       y       z     vdW  Elec       q    Type
REMARK                         _______ _______ _______ _____ _____    ______ ____
ROOT
ATOM      1  C   UNL     1       1.947   1.345   0.000  0.00  0.00    +0.000 C 
ATOM      2  C   UNL     1       1.462   0.677   0.000  0.00  0.00    +0.000 C 
ATOM      3  C   UNL     1       0.677   0.932   0.000  0.00  0.00    +0.000 C 
ATOM      4  C   UNL     1      -0.148   0.932   0.000  0.00  0.00    +0.000 C 
ATOM      5  C   UNL     1      -0.148   1.757   0.000  0.00  0.00    +0.000 C 
ATOM      6  C   UNL     1       0.677   1.757   0.000  0.00  0.00    +0.000 C 
ATOM      7  C   UNL     1       1.462   2.012   0.000  0.00  0.00    +0.000 C 
ENDROOT
BRANCH   1   8
ATOM      8  C   UNL     1       2.560   0.793   0.000  0.00  0.00    +0.000 C 
ATOM      9  N   UNL     1       2.389  -0.014   0.000  0.00  0.00    +0.000 NA
ENDBRANCH   1   8
BRANCH   1  10
ATOM     10  C   UNL     1       2.560   1.897   0.000  0.00  0.00    +0.000 C 
BRANCH  10  11
ATOM     11  C   UNL     1       3.345   1.642   0.000  0.00  0.00    +0.000 C 
ATOM     12  O   UNL     1       3.516   0.835   0.000  0.00  0.00    +0.000 OA
BRANCH  11  14
ATOM     13  C   UNL     1       4.742   1.939   0.000  0.00  0.00    +0.000 C 
ATOM     14  O   UNL     1       3.958   2.194   0.000  0.00  0.00    +0.000 OA
ENDBRANCH  11  14
ENDBRANCH  10  11
ENDBRANCH   1  10
TORSDOF 4
