REMARK  Name = 
REMARK  7 active torsions:
REMARK  status: ('A' for Active; 'I' for Inactive)
REMARK    1  A    between atoms: N_4  and  CA_10
REMARK    2  A    between atoms: N_5  and  C_11
REMARK    3  A    between atoms: C_7  and  C_8
REMARK    4  A    between atoms: C_7  and  C_9
REMARK    5  A    between atoms: C_8  and  CA_10
REMARK    6  A    between atoms: C_9  and  C_11
REMARK    7  A    between atoms: CA_10  and  C_12
REMARK                            x       y       z     vdW  Elec       q    Type
REMARK                         _______ _______ _______ _____ _____    ______ ____
ROOT
ATOM      1  F   UNL     1       0.579  -0.903   0.000  0.00  0.00    +0.000 F 
ATOM      2  C   UNL     1       0.579  -0.078   0.000  0.00  0.00    +0.000 C 
ENDROOT
BRANCH   2   3
ATOM      3  C   UNL     1       1.293   0.334   0.000  0.00  0.00    +0.000 C 
BRANCH   3   4
ATOM      4  CA  UNL     1       2.008  -0.078   0.000  0.00  0.00    +0.000 C 
BRANCH   4   7
ATOM      5  O   UNL     1       3.437  -0.078   0.000  0.00  0.00    +0.000 OA
ATOM      6  OXT UNL     1       2.722   1.159   0.000  0.00  0.00    +0.000 OA
ATOM      7  C   UNL     1       2.722   0.334   0.000  0.00  0.00    +0.000 C 
ENDBRANCH   4   7
BRANCH   4   8
ATOM      8  N   UNL     1       2.008  -0.903   0.000  0.00  0.00    +0.000 NA
ATOM      9  H1  UNL     1       1.565  -1.159   0.000  0.00  0.00    +0.000 HD
ATOM     10  H2  UNL     1       2.450  -1.159   0.000  0.00  0.00    +0.000 HD
ENDBRANCH   4   8
ENDBRANCH   3   4
ENDBRANCH   2   3
BRANCH   2  11
ATOM     11  C   UNL     1      -0.136   0.334   0.000  0.00  0.00    +0.000 C 
BRANCH  11  12
ATOM     12  C   UNL     1      -0.850  -0.078   0.000  0.00  0.00    +0.000 C 
BRANCH  12  13
ATOM     13  N   UNL     1      -1.565   0.334   0.000  0.00  0.00    +0.000 NA
ATOM     14  N   UNL     1      -2.994   0.334   0.000  0.00  0.00    +0.000 N 
ATOM     15  C   UNL     1      -2.279  -0.078   0.000  0.00  0.00    +0.000 C 
ATOM     16  C   UNL     1      -2.279  -0.903   0.000  0.00  0.00    +0.000 C 
ATOM     17  H   UNL     1      -3.437   0.078   0.000  0.00  0.00    +0.000 HD
ATOM     18  H   UNL     1      -2.994   0.846   0.000  0.00  0.00    +0.000 HD
ENDBRANCH  12  13
ENDBRANCH  11  12
ENDBRANCH   2  11
TORSDOF 7
