REMARK  Name = 
REMARK  0 active torsions:
REMARK  status: ('A' for Active; 'I' for Inactive)
REMARK                            x       y       z     vdW  Elec       q    Type
REMARK                         _______ _______ _______ _____ _____    ______ ____
ROOT
ATOM      1  C   UNL     1      -2.060  -0.516   0.000  0.00  0.00    +0.000 C 
ATOM      2  C   UNL     1      -2.060  -1.347   0.000  0.00  0.00    +0.000 C 
ATOM      3  C   UNL     1      -1.349  -1.757   0.000  0.00  0.00    +0.000 C 
ATOM      4  C   UNL     1      -0.634  -1.347   0.000  0.00  0.00    +0.000 C 
ATOM      5  C   UNL     1      -0.634  -0.516   0.000  0.00  0.00    +0.000 C 
ATOM      6  C   UNL     1      -1.349  -0.106   0.000  0.00  0.00    +0.000 C 
ATOM      7  C   UNL     1       0.076  -0.106   0.000  0.00  0.00    +0.000 C 
ATOM      8  C   UNL     1       0.792  -0.516   0.000  0.00  0.00    +0.000 C 
ATOM      9  C   UNL     1       0.792  -1.347   0.000  0.00  0.00    +0.000 C 
ATOM     10  C   UNL     1       0.076  -1.757   0.000  0.00  0.00    +0.000 C 
ATOM     11  C   UNL     1       1.508  -0.106   0.000  0.00  0.00    +0.000 C 
ATOM     12  C   UNL     1       1.508   0.715   0.000  0.00  0.00    +0.000 C 
ATOM     13  C   UNL     1       0.792   1.127   0.000  0.00  0.00    +0.000 C 
ATOM     14  C   UNL     1       0.076   0.715   0.000  0.00  0.00    +0.000 C 
ATOM     15  C   UNL     1       2.287   0.968   0.000  0.00  0.00    +0.000 C 
ATOM     16  C   UNL     1       2.776   0.305   0.000  0.00  0.00    +0.000 C 
ATOM     17  C   UNL     1       2.287  -0.363   0.000  0.00  0.00    +0.000 C 
ATOM     18  O   UNL     1       2.545   1.757   0.000  0.00  0.00    +0.000 OA
ATOM     19  C   UNL     1       1.508   1.542   0.000  0.00  0.00    +0.000 C 
ATOM     20  O   UNL     1      -2.776  -1.757   0.000  0.00  0.00    +0.000 OA
ENDROOT
TORSDOF 0
