REMARK  Name = 
REMARK  7 active torsions:
REMARK  status: ('A' for Active; 'I' for Inactive)
REMARK    1  A    between atoms: C_5  and  C_14
REMARK    2  A    between atoms: C_10  and  N_11
REMARK    3  A    between atoms: C_10  and  C_19
REMARK    4  A    between atoms: N_11  and  C_15
REMARK    5  A    between atoms: C_14  and  C_15
REMARK    6  A    between atoms: C_19  and  C_20
REMARK    7  A    between atoms: C_23  and  O_26
REMARK                            x       y       z     vdW  Elec       q    Type
REMARK                         _______ _______ _______ _____ _____    ______ ____
ROOT
ATOM      1  C   UNL     1      -1.774  -1.449   0.000  0.00  0.00    +0.000 C 
ATOM      2  O   UNL     1      -1.782  -2.274   0.000  0.00  0.00    +0.000 OA
ENDROOT
BRANCH   1   7
ATOM      3  C   UNL     1      -2.500  -0.204   0.000  0.00  0.00    +0.000 A 
ATOM      4  C   UNL     1      -3.217   0.210   0.000  0.00  0.00    +0.000 A 
ATOM      5  N   UNL     1      -3.223   1.035   0.000  0.00  0.00    +0.000 NA
ATOM      6  C   UNL     1      -1.788   0.210   0.000  0.00  0.00    +0.000 A 
ATOM      7  C   UNL     1      -2.494  -1.041   0.000  0.00  0.00    +0.000 A 
ATOM      8  C   UNL     1      -2.502   1.449   0.000  0.00  0.00    +0.000 A 
ATOM      9  C   UNL     1      -1.788   1.038   0.000  0.00  0.00    +0.000 A 
ATOM     10  C   UNL     1      -3.217  -1.454   0.000  0.00  0.00    +0.000 A 
ATOM     11  C   UNL     1      -3.934  -0.210   0.000  0.00  0.00    +0.000 A 
ATOM     12  C   UNL     1      -3.934  -1.041   0.000  0.00  0.00    +0.000 A 
ATOM     13  O   UNL     1      -2.506   2.274   0.000  0.00  0.00    +0.000 OA
ATOM     14  O   UNL     1      -4.648   0.210   0.000  0.00  0.00    +0.000 OA
ENDBRANCH   1   7
BRANCH   1  15
ATOM     15  C   UNL     1      -1.057  -1.035   0.000  0.00  0.00    +0.000 C 
BRANCH  15  16
ATOM     16  N   UNL     1      -0.340  -1.449   0.000  0.00  0.00    +0.000 NA
BRANCH  16  17
ATOM     17  C   UNL     1       0.378  -1.035   0.000  0.00  0.00    +0.000 C 
ATOM     18  C   UNL     1       0.374  -0.213   0.000  0.00  0.00    +0.000 C 
BRANCH  17  19
ATOM     19  C   UNL     1       1.092  -1.446   0.000  0.00  0.00    +0.000 C 
BRANCH  19  20
ATOM     20  C   UNL     1       1.803  -1.035   0.000  0.00  0.00    +0.000 A 
ATOM     21  C   UNL     1       2.514  -1.448   0.000  0.00  0.00    +0.000 A 
ATOM     22  C   UNL     1       3.225  -1.038   0.000  0.00  0.00    +0.000 A 
ATOM     23  C   UNL     1       3.225  -0.215   0.000  0.00  0.00    +0.000 A 
ATOM     24  C   UNL     1       2.508   0.195   0.000  0.00  0.00    +0.000 A 
ATOM     25  C   UNL     1       1.800  -0.218   0.000  0.00  0.00    +0.000 A 
BRANCH  23  26
ATOM     26  O   UNL     1       3.934   0.201   0.000  0.00  0.00    +0.000 OA
ATOM     27  C   UNL     1       4.648  -0.207   0.000  0.00  0.00    +0.000 C 
ENDBRANCH  23  26
ENDBRANCH  19  20
ENDBRANCH  17  19
ENDBRANCH  16  17
ENDBRANCH  15  16
ENDBRANCH   1  15
TORSDOF 7
