REMARK  Name = 
REMARK  9 active torsions:
REMARK  status: ('A' for Active; 'I' for Inactive)
REMARK    1  A    between atoms: C_3  and  N_49
REMARK    2  A    between atoms: C_5  and  O_6
REMARK    3  A    between atoms: O_6  and  C_7
REMARK    4  A    between atoms: C_8  and  C_38
REMARK    5  A    between atoms: C_16  and  C_17
REMARK    6  A    between atoms: C_17  and  N_18
REMARK    7  A    between atoms: C_24  and  C_25
REMARK    8  A    between atoms: C_38  and  C_39
REMARK    9  A    between atoms: C_39  and  N_40
REMARK                            x       y       z     vdW  Elec       q    Type
REMARK                         _______ _______ _______ _____ _____    ______ ____
ROOT
ATOM      1  C   UNL     1      -1.533  -0.000   0.000  0.00  0.00    +0.000 C 
ATOM      2  C   UNL     1      -1.533   0.825   0.000  0.00  0.00    +0.000 C 
ATOM      3  C   UNL     1      -0.814   1.233   0.000  0.00  0.00    +0.000 C 
ATOM      4  C   UNL     1      -0.814   2.062   0.000  0.00  0.00    +0.000 C 
ATOM      5  C   UNL     1      -0.096   2.470   0.000  0.00  0.00    +0.000 C 
ATOM      6  C   UNL     1       0.627   2.058   0.000  0.00  0.00    +0.000 C 
ATOM      7  C   UNL     1       0.627   1.233   0.000  0.00  0.00    +0.000 C 
ATOM      8  C   UNL     1       1.345   0.816   0.000  0.00  0.00    +0.000 C 
ATOM      9  C   UNL     1       1.345  -0.009   0.000  0.00  0.00    +0.000 C 
ATOM     10  C   UNL     1       2.068  -0.422   0.000  0.00  0.00    +0.000 C 
ATOM     11  C   UNL     1       2.068  -1.247   0.000  0.00  0.00    +0.000 C 
ATOM     12  O   UNL     1       1.350  -1.659   0.000  0.00  0.00    +0.000 OA
ATOM     13  C   UNL     1       0.636  -1.247   0.000  0.00  0.00    +0.000 C 
ATOM     14  C   UNL     1      -0.077  -1.659   0.000  0.00  0.00    +0.000 C 
ATOM     15  C   UNL     1      -0.791  -1.247   0.000  0.00  0.00    +0.000 C 
ATOM     16  O   UNL     1      -1.505  -1.659   0.000  0.00  0.00    +0.000 OA
ATOM     17  C   UNL     1      -0.791  -0.422   0.000  0.00  0.00    +0.000 C 
ATOM     18  C   UNL     1      -0.082  -0.005   0.000  0.00  0.00    +0.000 C 
ATOM     19  O   UNL     1       0.636  -0.422   0.000  0.00  0.00    +0.000 OA
ATOM     20  C   UNL     1       1.971   1.284   0.000  0.00  0.00    +0.000 C 
ATOM     21  O   UNL     1      -0.096   3.295   0.000  0.00  0.00    +0.000 OA
ATOM     22  C   UNL     1      -1.528   2.475   0.000  0.00  0.00    +0.000 C 
ENDROOT
BRANCH  11  23
ATOM     23  C   UNL     1       2.773  -1.659   0.000  0.00  0.00    +0.000 C 
ATOM     24  C   UNL     1       3.486  -1.242   0.000  0.00  0.00    +0.000 C 
ENDBRANCH  11  23
BRANCH  10  25
ATOM     25  C   UNL     1       2.652   0.153   0.000  0.00  0.00    +0.000 C 
BRANCH  25  26
ATOM     26  N   UNL     1       3.486   0.153   0.000  0.00  0.00    +0.000 NA
ATOM     27  C   UNL     1       3.899   0.869   0.000  0.00  0.00    +0.000 C 
ATOM     28  C   UNL     1       4.724   0.869   0.000  0.00  0.00    +0.000 C 
ATOM     29  C   UNL     1       5.131   0.155   0.000  0.00  0.00    +0.000 C 
ATOM     30  C   UNL     1       4.718  -0.558   0.000  0.00  0.00    +0.000 C 
ATOM     31  C   UNL     1       3.898  -0.558   0.000  0.00  0.00    +0.000 C 
ENDBRANCH  25  26
ENDBRANCH  10  25
BRANCH   2  32
ATOM     32  C   UNL     1      -2.251   1.237   0.000  0.00  0.00    +0.000 C 
BRANCH  32  33
ATOM     33  C   UNL     1      -2.969   0.830   0.000  0.00  0.00    +0.000 C 
BRANCH  33  34
ATOM     34  N   UNL     1      -3.691   1.246   0.000  0.00  0.00    +0.000 NA
ATOM     35  C   UNL     1      -4.394   0.821   0.000  0.00  0.00    +0.000 C 
ATOM     36  C   UNL     1      -5.131   1.217   0.000  0.00  0.00    +0.000 C 
ATOM     37  C   UNL     1      -5.131   2.042   0.000  0.00  0.00    +0.000 C 
ATOM     38  C   UNL     1      -4.428   2.475   0.000  0.00  0.00    +0.000 C 
ATOM     39  C   UNL     1      -3.691   2.071   0.000  0.00  0.00    +0.000 C 
ENDBRANCH  33  34
ENDBRANCH  32  33
ENDBRANCH   2  32
BRANCH   1  40
ATOM     40  O   UNL     1      -2.256  -0.408   0.000  0.00  0.00    +0.000 OA
BRANCH  40  45
ATOM     41  C   UNL     1      -4.392  -0.820   0.000  0.00  0.00    +0.000 C 
ATOM     42  C   UNL     1      -4.392  -1.645   0.000  0.00  0.00    +0.000 C 
ATOM     43  C   UNL     1      -3.688  -2.058   0.000  0.00  0.00    +0.000 C 
ATOM     44  C   UNL     1      -2.966  -1.651   0.000  0.00  0.00    +0.000 C 
ATOM     45  C   UNL     1      -2.966  -0.826   0.000  0.00  0.00    +0.000 C 
ATOM     46  O   UNL     1      -3.676  -0.404   0.000  0.00  0.00    +0.000 OA
ATOM     47  O   UNL     1      -2.260  -2.067   0.000  0.00  0.00    +0.000 OA
ATOM     48  O   UNL     1      -5.115  -2.049   0.000  0.00  0.00    +0.000 OA
ATOM     49  C   UNL     1      -5.111  -0.399   0.000  0.00  0.00    +0.000 C 
BRANCH  43  50
ATOM     50  N   UNL     1      -3.688  -2.883   0.000  0.00  0.00    +0.000 NA
ATOM     51  C   UNL     1      -4.411  -3.291   0.000  0.00  0.00    +0.000 C 
ATOM     52  C   UNL     1      -2.983  -3.295   0.000  0.00  0.00    +0.000 C 
ENDBRANCH  43  50
ENDBRANCH  40  45
ENDBRANCH   1  40
TORSDOF 9
