REMARK  Name = 
REMARK  8 active torsions:
REMARK  status: ('A' for Active; 'I' for Inactive)
REMARK    1  A    between atoms: O_2  and  C_3
REMARK    2  A    between atoms: C_3  and  C_4
REMARK    3  A    between atoms: C_4  and  O_5
REMARK    4  A    between atoms: O_5  and  C_6
REMARK    5  A    between atoms: C_9  and  N_12
REMARK    6  A    between atoms: N_19  and  C_20
REMARK    7  A    between atoms: C_24  and  N_26
REMARK    8  A    between atoms: C_27  and  C_29
REMARK                            x       y       z     vdW  Elec       q    Type
REMARK                         _______ _______ _______ _____ _____    ______ ____
ROOT
ATOM      1  N   UNL     1       0.000  -8.250   0.000  0.00  0.00    +0.000 NA
ATOM      2  C   UNL     1       0.715  -7.838   0.000  0.00  0.00    +0.000 A 
ATOM      3  N   UNL     1       0.715  -7.013   0.000  0.00  0.00    +0.000 NA
ATOM      4  C   UNL     1       1.429  -6.600   0.000  0.00  0.00    +0.000 A 
ATOM      5  C   UNL     1       2.143  -7.013   0.000  0.00  0.00    +0.000 A 
ATOM      6  C   UNL     1       2.143  -7.838   0.000  0.00  0.00    +0.000 A 
ATOM      7  N   UNL     1       1.429  -8.250   0.000  0.00  0.00    +0.000 NA
ATOM      8  N   UNL     1       2.858  -8.250   0.000  0.00  0.00    +0.000 NA
ATOM      9  F   UNL     1       2.858  -6.600   0.000  0.00  0.00    +0.000 F 
ENDROOT
BRANCH   1  13
ATOM     10  C   UNL     1      -2.143  -7.013   0.000  0.00  0.00    +0.000 A 
ATOM     11  C   UNL     1      -1.429  -6.600   0.000  0.00  0.00    +0.000 A 
ATOM     12  C   UNL     1      -0.715  -7.013   0.000  0.00  0.00    +0.000 A 
ATOM     13  C   UNL     1      -0.715  -7.838   0.000  0.00  0.00    +0.000 A 
ATOM     14  C   UNL     1      -1.429  -8.250   0.000  0.00  0.00    +0.000 A 
ATOM     15  C   UNL     1      -2.143  -7.838   0.000  0.00  0.00    +0.000 A 
BRANCH  10  16
ATOM     16  O   UNL     1      -2.858  -6.600   0.000  0.00  0.00    +0.000 OA
BRANCH  16  17
ATOM     17  C   UNL     1      -3.572  -7.013   0.000  0.00  0.00    +0.000 C 
BRANCH  17  18
ATOM     18  C   UNL     1      -4.287  -6.600   0.000  0.00  0.00    +0.000 C 
BRANCH  18  20
ATOM     19  C   UNL     1      -5.716  -6.600   0.000  0.00  0.00    +0.000 C 
ATOM     20  O   UNL     1      -5.001  -7.013   0.000  0.00  0.00    +0.000 OA
ENDBRANCH  18  20
ENDBRANCH  17  18
ENDBRANCH  16  17
ENDBRANCH  10  16
ENDBRANCH   1  13
BRANCH   8  21
ATOM     21  C   UNL     1       3.572  -7.838   0.000  0.00  0.00    +0.000 A 
ATOM     22  C   UNL     1       3.572  -7.013   0.000  0.00  0.00    +0.000 A 
ATOM     23  C   UNL     1       4.287  -6.600   0.000  0.00  0.00    +0.000 A 
ATOM     24  C   UNL     1       5.001  -7.013   0.000  0.00  0.00    +0.000 A 
ATOM     25  C   UNL     1       5.001  -7.838   0.000  0.00  0.00    +0.000 A 
ATOM     26  C   UNL     1       4.287  -8.250   0.000  0.00  0.00    +0.000 A 
BRANCH  25  27
ATOM     27  N   UNL     1       5.716  -8.250   0.000  0.00  0.00    +0.000 NA
ATOM     28  C   UNL     1       6.430  -7.838   0.000  0.00  0.00    +0.000 C 
ATOM     29  O   UNL     1       6.430  -7.013   0.000  0.00  0.00    +0.000 OA
BRANCH  28  30
ATOM     30  C   UNL     1       7.145  -8.250   0.000  0.00  0.00    +0.000 C 
ATOM     31  C   UNL     1       7.859  -7.838   0.000  0.00  0.00    +0.000 C 
ENDBRANCH  28  30
ENDBRANCH  25  27
ENDBRANCH   8  21
TORSDOF 8
