REMARK  Name = 
REMARK  7 active torsions:
REMARK  status: ('A' for Active; 'I' for Inactive)
REMARK    1  A    between atoms: O_2  and  C_11
REMARK    2  A    between atoms: O_2  and  C_14
REMARK    3  A    between atoms: N_4  and  C_10
REMARK    4  A    between atoms: N_5  and  C_17
REMARK    5  A    between atoms: N_6  and  C_22
REMARK    6  A    between atoms: C_9  and  C_10
REMARK    7  A    between atoms: C_9  and  C_11
REMARK                            x       y       z     vdW  Elec       q    Type
REMARK                         _______ _______ _______ _____ _____    ______ ____
ROOT
ATOM      1 BR   UNL     1      -4.287   1.650   0.000  0.00  0.00    +0.000 Br
ATOM      2  N   UNL     1      -1.429   0.000   0.000  0.00  0.00    +0.000 N 
ATOM      3  N   UNL     1      -4.287   0.000   0.000  0.00  0.00    +0.000 N 
ATOM      4  N   UNL     1      -2.858   0.000   0.000  0.00  0.00    +0.000 NA
ATOM      5  N   UNL     1      -2.143   1.238   0.000  0.00  0.00    +0.000 NA
ATOM      6  C   UNL     1      -2.143   0.412   0.000  0.00  0.00    +0.000 A 
ATOM      7  C   UNL     1      -3.572   0.412   0.000  0.00  0.00    +0.000 A 
ATOM      8  C   UNL     1      -3.572   1.238   0.000  0.00  0.00    +0.000 A 
ATOM      9  C   UNL     1      -2.858   1.650   0.000  0.00  0.00    +0.000 A 
ATOM     10  H   UNL     1      -1.429  -0.511   0.000  0.00  0.00    +0.000 HD
ATOM     11  H   UNL     1      -4.730   0.256   0.000  0.00  0.00    +0.000 HD
ENDROOT
BRANCH   3  12
ATOM     12  C   UNL     1      -4.287  -0.825   0.000  0.00  0.00    +0.000 A 
ATOM     13  C   UNL     1      -3.572  -1.238   0.000  0.00  0.00    +0.000 A 
ATOM     14  C   UNL     1      -5.002  -1.238   0.000  0.00  0.00    +0.000 A 
ATOM     15  C   UNL     1      -3.572  -2.063   0.000  0.00  0.00    +0.000 A 
ATOM     16  C   UNL     1      -5.002  -2.063   0.000  0.00  0.00    +0.000 A 
ATOM     17  C   UNL     1      -4.287  -2.475   0.000  0.00  0.00    +0.000 A 
ENDBRANCH   3  12
BRANCH   2  21
ATOM     18  C   UNL     1       0.715   1.238   0.000  0.00  0.00    +0.000 A 
ATOM     19  C   UNL     1       0.000   1.650   0.000  0.00  0.00    +0.000 A 
ATOM     20  C   UNL     1       0.715   0.412   0.000  0.00  0.00    +0.000 A 
ATOM     21  C   UNL     1      -0.715   0.412   0.000  0.00  0.00    +0.000 A 
ATOM     22  C   UNL     1      -0.715   1.238   0.000  0.00  0.00    +0.000 A 
ATOM     23  C   UNL     1       0.000   0.000   0.000  0.00  0.00    +0.000 A 
BRANCH  18  24
ATOM     24  O   UNL     1       1.429   1.650   0.000  0.00  0.00    +0.000 OA
BRANCH  24  25
ATOM     25  C   UNL     1       2.143   1.238   0.000  0.00  0.00    +0.000 C 
BRANCH  25  27
ATOM     26  O   UNL     1       2.858   2.475   0.000  0.00  0.00    +0.000 OA
ATOM     27  C   UNL     1       2.858   1.650   0.000  0.00  0.00    +0.000 C 
BRANCH  27  28
ATOM     28  C   UNL     1       3.572   1.238   0.000  0.00  0.00    +0.000 C 
BRANCH  28  29
ATOM     29  N   UNL     1       4.287   1.650   0.000  0.00  0.00    +0.000 NA
ATOM     30  C   UNL     1       5.002   1.238   0.000  0.00  0.00    +0.000 C 
ATOM     31  C   UNL     1       4.287   2.475   0.000  0.00  0.00    +0.000 C 
ENDBRANCH  28  29
ENDBRANCH  27  28
ENDBRANCH  25  27
ENDBRANCH  24  25
ENDBRANCH  18  24
ENDBRANCH   2  21
TORSDOF 7
