REMARK  Name = 
REMARK  10 active torsions:
REMARK  status: ('A' for Active; 'I' for Inactive)
REMARK    1  A    between atoms: C_6  and  C_15
REMARK    2  A    between atoms: C_8  and  C_17
REMARK    3  A    between atoms: C_13  and  O_22
REMARK    4  A    between atoms: C_17  and  O_25
REMARK    5  A    between atoms: C_21  and  C_28
REMARK    6  A    between atoms: O_22  and  C_29
REMARK    7  A    between atoms: C_27  and  O_31
REMARK    8  A    between atoms: C_28  and  C_34
REMARK    9  A    between atoms: C_34  and  O_41
REMARK   10  A    between atoms: C_53  and  C_57
REMARK                            x       y       z     vdW  Elec       q    Type
REMARK                         _______ _______ _______ _____ _____    ______ ____
ROOT
ATOM      1  C   UNL     1       2.285  -0.303   0.000  0.00  0.00    +0.000 C 
ATOM      2  C   UNL     1       3.011   0.112   0.000  0.00  0.00    +0.000 C 
ATOM      3  C   UNL     1       2.285  -1.131   0.000  0.00  0.00    +0.000 C 
ATOM      4  C   UNL     1       0.856  -0.303   0.000  0.00  0.00    +0.000 A 
ATOM      5  C   UNL     1       1.706   0.453   0.000  0.00  0.00    +0.000 C 
ATOM      6  C   UNL     1       3.734  -0.303   0.000  0.00  0.00    +0.000 C 
ATOM      7  N   UNL     1       3.011   0.944   0.000  0.00  0.00    +0.000 NA
ATOM      8  C   UNL     1       3.011  -1.516   0.000  0.00  0.00    +0.000 C 
ATOM      9  N   UNL     1       1.574  -1.516   0.000  0.00  0.00    +0.000 N 
ATOM     10  C   UNL     1       0.856  -1.131   0.000  0.00  0.00    +0.000 A 
ATOM     11  C   UNL     1       0.126   0.112   0.000  0.00  0.00    +0.000 A 
ATOM     12  C   UNL     1       2.175   1.278   0.000  0.00  0.00    +0.000 C 
ATOM     13  C   UNL     1       3.734  -1.131   0.000  0.00  0.00    +0.000 C 
ATOM     14  C   UNL     1       4.416   0.112   0.000  0.00  0.00    +0.000 C 
ATOM     15  C   UNL     1       3.734   1.391   0.000  0.00  0.00    +0.000 C 
ATOM     16  O   UNL     1       3.572  -2.022   0.000  0.00  0.00    +0.000 OA
ATOM     17  C   UNL     1       1.574  -2.352   0.000  0.00  0.00    +0.000 C 
ATOM     18  C   UNL     1       0.126  -1.516   0.000  0.00  0.00    +0.000 A 
ATOM     19  C   UNL     1      -0.582  -0.303   0.000  0.00  0.00    +0.000 A 
ATOM     20  C   UNL     1       4.416   0.944   0.000  0.00  0.00    +0.000 C 
ATOM     21  C   UNL     1      -0.582  -1.131   0.000  0.00  0.00    +0.000 A 
ENDROOT
BRANCH  19  22
ATOM     22  C   UNL     1      -1.750   0.581   0.000  0.00  0.00    +0.000 C 
ATOM     23  C   UNL     1      -2.454   1.058   0.000  0.00  0.00    +0.000 A 
ATOM     24  C   UNL     1      -0.970   1.043   0.000  0.00  0.00    +0.000 C 
ATOM     25  C   UNL     1      -2.454   1.890   0.000  0.00  0.00    +0.000 A 
ATOM     26  N   UNL     1      -3.147   0.636   0.000  0.00  0.00    +0.000 NA
ATOM     27  C   UNL     1      -0.970   1.839   0.000  0.00  0.00    +0.000 C 
ATOM     28  C   UNL     1      -3.888   1.890   0.000  0.00  0.00    +0.000 A 
ATOM     29  C   UNL     1      -2.797   2.566   0.000  0.00  0.00    +0.000 C 
ATOM     30  C   UNL     1      -3.888   1.058   0.000  0.00  0.00    +0.000 A 
ATOM     31  C   UNL     1      -1.670   2.220   0.000  0.00  0.00    +0.000 C 
ATOM     32  C   UNL     1      -0.255   2.341   0.000  0.00  0.00    +0.000 C 
ATOM     33  C   UNL     1      -4.592   2.301   0.000  0.00  0.00    +0.000 A 
ATOM     34  C   UNL     1      -2.374   3.266   0.000  0.00  0.00    +0.000 C 
ATOM     35  C   UNL     1      -4.592   0.636   0.000  0.00  0.00    +0.000 A 
ATOM     36  N   UNL     1      -1.670   2.987   0.000  0.00  0.00    +0.000 NA
ATOM     37  C   UNL     1      -0.273   3.052   0.000  0.00  0.00    +0.000 C 
ATOM     38  C   UNL     1      -5.259   1.890   0.000  0.00  0.00    +0.000 A 
ATOM     39  C   UNL     1      -5.259   1.058   0.000  0.00  0.00    +0.000 A 
ATOM     40  C   UNL     1      -0.973   3.452   0.000  0.00  0.00    +0.000 C 
ATOM     41  O   UNL     1       0.244   3.859   0.000  0.00  0.00    +0.000 OA
BRANCH  37  42
ATOM     42  C   UNL     1       0.658   2.726   0.000  0.00  0.00    +0.000 C 
ATOM     43  C   UNL     1       1.315   3.121   0.000  0.00  0.00    +0.000 C 
ENDBRANCH  37  42
BRANCH  22  44
ATOM     44  C   UNL     1      -2.017  -0.184   0.000  0.00  0.00    +0.000 C 
ATOM     45  O   UNL     1      -1.645  -0.767   0.000  0.00  0.00    +0.000 OA
BRANCH  44  46
ATOM     46  O   UNL     1      -2.919  -0.450   0.000  0.00  0.00    +0.000 OA
ATOM     47  C   UNL     1      -3.020  -1.272   0.000  0.00  0.00    +0.000 C 
ENDBRANCH  44  46
ENDBRANCH  22  44
ENDBRANCH  19  22
BRANCH   8  48
ATOM     48  C   UNL     1       2.674  -2.712   0.000  0.00  0.00    +0.000 C 
ATOM     49  O   UNL     1       3.228  -3.239   0.000  0.00  0.00    +0.000 OA
BRANCH  48  50
ATOM     50  O   UNL     1       1.999  -3.104   0.000  0.00  0.00    +0.000 OA
ATOM     51  C   UNL     1       1.999  -3.859   0.000  0.00  0.00    +0.000 C 
ENDBRANCH  48  50
ENDBRANCH   8  48
BRANCH   6  52
ATOM     52  C   UNL     1       4.416  -0.710   0.000  0.00  0.00    +0.000 C 
ATOM     53  C   UNL     1       5.259  -0.493   0.000  0.00  0.00    +0.000 C 
ENDBRANCH   6  52
BRANCH  21  54
ATOM     54  O   UNL     1      -1.282  -1.516   0.000  0.00  0.00    +0.000 OA
ATOM     55  C   UNL     1      -1.282  -2.319   0.000  0.00  0.00    +0.000 C 
ENDBRANCH  21  54
BRANCH  13  56
ATOM     56  O   UNL     1       4.504  -1.571   0.000  0.00  0.00    +0.000 OA
BRANCH  56  57
ATOM     57  C   UNL     1       4.504  -2.404   0.000  0.00  0.00    +0.000 C 
ATOM     58  C   UNL     1       5.197  -2.851   0.000  0.00  0.00    +0.000 C 
ATOM     59  O   UNL     1       4.067  -2.840   0.000  0.00  0.00    +0.000 OA
ENDBRANCH  56  57
ENDBRANCH  13  56
TORSDOF 10
