REMARK  Name = 
REMARK  1 active torsions:
REMARK  status: ('A' for Active; 'I' for Inactive)
REMARK    1  A    between atoms: C_8  and  C_9
REMARK                            x       y       z     vdW  Elec       q    Type
REMARK                         _______ _______ _______ _____ _____    ______ ____
ROOT
ATOM      1  N   UNL     1       1.004   0.293   0.000  0.00  0.00    +0.000 NA
ATOM      2  C   UNL     1       1.004   1.118   0.000  0.00  0.00    +0.000 A 
ATOM      3  N   UNL     1       0.290   1.531   0.000  0.00  0.00    +0.000 NA
ATOM      4  C   UNL     1      -0.424   1.118   0.000  0.00  0.00    +0.000 A 
ATOM      5  C   UNL     1      -0.424   0.293   0.000  0.00  0.00    +0.000 A 
ATOM      6  C   UNL     1       0.290  -0.119   0.000  0.00  0.00    +0.000 A 
ATOM      7  O   UNL     1       0.290  -0.944   0.000  0.00  0.00    +0.000 OA
ATOM      8  C   UNL     1      -1.209   0.038   0.000  0.00  0.00    +0.000 A 
ATOM      9  C   UNL     1      -1.694   0.706   0.000  0.00  0.00    +0.000 A 
ATOM     10  N   UNL     1      -1.209   1.373   0.000  0.00  0.00    +0.000 NA
ATOM     11  N   UNL     1       1.719   1.531   0.000  0.00  0.00    +0.000 NA
ENDROOT
BRANCH   8  12
ATOM     12  C   UNL     1      -1.464  -0.746   0.000  0.00  0.00    +0.000 C 
ATOM     13  N   UNL     1      -1.719  -1.531   0.000  0.00  0.00    +0.000 NA
ENDBRANCH   8  12
TORSDOF 1
