REMARK  Name = 
REMARK  12 active torsions:
REMARK  status: ('A' for Active; 'I' for Inactive)
REMARK    1  A    between atoms: N_17  and  C_19
REMARK    2  A    between atoms: C_19  and  C_20
REMARK    3  A    between atoms: C_20  and  N_21
REMARK    4  A    between atoms: N_21  and  P_22
REMARK    5  A    between atoms: P_22  and  N_24
REMARK    6  A    between atoms: P_22  and  N_55
REMARK    7  A    between atoms: N_24  and  C_25
REMARK    8  A    between atoms: C_25  and  C_26
REMARK    9  A    between atoms: C_26  and  N_27
REMARK   10  A    between atoms: N_55  and  C_56
REMARK   11  A    between atoms: C_56  and  C_57
REMARK   12  A    between atoms: C_57  and  N_58
REMARK                            x       y       z     vdW  Elec       q    Type
REMARK                         _______ _______ _______ _____ _____    ______ ____
ROOT
ATOM      1  P   UNL     1      11.398   8.162   0.000  0.00  0.00    +0.000 P 
ATOM      2  S   UNL     1      11.976   8.383   0.000  0.00  0.00    +0.000 S 
ENDROOT
BRANCH   1   3
ATOM      3  N   UNL     1      10.607   7.785   0.000  0.00  0.00    +0.000 NA
BRANCH   3   4
ATOM      4  C   UNL     1      10.475   6.966   0.000  0.00  0.00    +0.000 C 
BRANCH   4   5
ATOM      5  C   UNL     1      10.497   6.096   0.000  0.00  0.00    +0.000 C 
BRANCH   5  20
ATOM      6  C   UNL     1      10.719   3.833   0.000  0.00  0.00    +0.000 C 
ATOM      7  C   UNL     1      11.043   3.075   0.000  0.00  0.00    +0.000 C 
ATOM      8  O   UNL     1      10.548   2.415   0.000  0.00  0.00    +0.000 OA
ATOM      9  C   UNL     1      11.862   2.976   0.000  0.00  0.00    +0.000 C 
ATOM     10  C   UNL     1      12.357   3.636   0.000  0.00  0.00    +0.000 A 
ATOM     11  C   UNL     1      13.176   3.538   0.000  0.00  0.00    +0.000 A 
ATOM     12  C   UNL     1      13.671   4.197   0.000  0.00  0.00    +0.000 A 
ATOM     13  C   UNL     1      13.347   4.956   0.000  0.00  0.00    +0.000 A 
ATOM     14  O   UNL     1      13.968   5.499   0.000  0.00  0.00    +0.000 OA
ATOM     15  C   UNL     1      14.676   5.076   0.000  0.00  0.00    +0.000 C 
ATOM     16  O   UNL     1      14.492   4.271   0.000  0.00  0.00    +0.000 OA
ATOM     17  C   UNL     1      12.528   5.055   0.000  0.00  0.00    +0.000 A 
ATOM     18  C   UNL     1      12.033   4.395   0.000  0.00  0.00    +0.000 A 
ATOM     19  C   UNL     1      11.213   4.493   0.000  0.00  0.00    +0.000 C 
ATOM     20  N   UNL     1      10.889   5.252   0.000  0.00  0.00    +0.000 N 
ATOM     21  C   UNL     1      10.784   6.001   0.000  0.00  0.00    +0.000 C 
ATOM     22  C   UNL     1      10.070   5.351   0.000  0.00  0.00    +0.000 C 
ATOM     23  C   UNL     1       9.575   4.691   0.000  0.00  0.00    +0.000 A 
ATOM     24  C   UNL     1       9.899   3.932   0.000  0.00  0.00    +0.000 A 
ATOM     25  C   UNL     1       9.405   3.272   0.000  0.00  0.00    +0.000 A 
ATOM     26  C   UNL     1       8.585   3.371   0.000  0.00  0.00    +0.000 A 
ATOM     27  C   UNL     1       8.261   4.129   0.000  0.00  0.00    +0.000 A 
ATOM     28  C   UNL     1       8.756   4.789   0.000  0.00  0.00    +0.000 A 
ATOM     29  O   UNL     1       8.281   5.464   0.000  0.00  0.00    +0.000 OA
ATOM     30  C   UNL     1       7.493   5.221   0.000  0.00  0.00    +0.000 C 
ATOM     31  O   UNL     1       7.481   4.396   0.000  0.00  0.00    +0.000 OA
ENDBRANCH   5  20
ENDBRANCH   4   5
ENDBRANCH   3   4
ENDBRANCH   1   3
BRANCH   1  32
ATOM     32  N   UNL     1      12.302   8.178   0.000  0.00  0.00    +0.000 NA
BRANCH  32  33
ATOM     33  C   UNL     1      13.137   7.913   0.000  0.00  0.00    +0.000 C 
BRANCH  33  34
ATOM     34  C   UNL     1      13.642   7.185   0.000  0.00  0.00    +0.000 C 
BRANCH  34  35
ATOM     35  N   UNL     1      14.389   6.683   0.000  0.00  0.00    +0.000 N 
ATOM     36  C   UNL     1      14.735   7.410   0.000  0.00  0.00    +0.000 C 
ATOM     37  C   UNL     1      13.894   6.023   0.000  0.00  0.00    +0.000 C 
ATOM     38  C   UNL     1      14.218   5.264   0.000  0.00  0.00    +0.000 A 
ATOM     39  C   UNL     1      15.037   5.166   0.000  0.00  0.00    +0.000 A 
ATOM     40  C   UNL     1      15.361   4.407   0.000  0.00  0.00    +0.000 A 
ATOM     41  C   UNL     1      14.866   3.747   0.000  0.00  0.00    +0.000 A 
ATOM     42  C   UNL     1      14.047   3.846   0.000  0.00  0.00    +0.000 A 
ATOM     43  C   UNL     1      13.723   4.604   0.000  0.00  0.00    +0.000 A 
ATOM     44  O   UNL     1      12.901   4.530   0.000  0.00  0.00    +0.000 OA
ATOM     45  C   UNL     1      12.718   3.726   0.000  0.00  0.00    +0.000 C 
ATOM     46  O   UNL     1      13.426   3.303   0.000  0.00  0.00    +0.000 OA
ATOM     47  C   UNL     1      15.532   5.826   0.000  0.00  0.00    +0.000 C 
ATOM     48  C   UNL     1      16.351   5.727   0.000  0.00  0.00    +0.000 C 
ATOM     49  O   UNL     1      16.675   4.968   0.000  0.00  0.00    +0.000 OA
ATOM     50  C   UNL     1      16.846   6.387   0.000  0.00  0.00    +0.000 C 
ATOM     51  C   UNL     1      16.522   7.146   0.000  0.00  0.00    +0.000 A 
ATOM     52  C   UNL     1      17.017   7.806   0.000  0.00  0.00    +0.000 A 
ATOM     53  C   UNL     1      16.693   8.565   0.000  0.00  0.00    +0.000 A 
ATOM     54  C   UNL     1      15.874   8.663   0.000  0.00  0.00    +0.000 A 
ATOM     55  O   UNL     1      15.776   9.572   0.000  0.00  0.00    +0.000 OA
ATOM     56  C   UNL     1      16.435   9.874   0.000  0.00  0.00    +0.000 C 
ATOM     57  O   UNL     1      17.040   9.313   0.000  0.00  0.00    +0.000 OA
ATOM     58  C   UNL     1      15.379   8.003   0.000  0.00  0.00    +0.000 A 
ATOM     59  C   UNL     1      15.703   7.244   0.000  0.00  0.00    +0.000 A 
ATOM     60  C   UNL     1      15.208   6.584   0.000  0.00  0.00    +0.000 C 
ENDBRANCH  34  35
ENDBRANCH  33  34
ENDBRANCH  32  33
ENDBRANCH   1  32
BRANCH   1  61
ATOM     61  N   UNL     1      10.704   8.721   0.000  0.00  0.00    +0.000 NA
BRANCH  61  62
ATOM     62  C   UNL     1      11.305   9.271   0.000  0.00  0.00    +0.000 C 
BRANCH  62  63
ATOM     63  C   UNL     1      11.363  10.109   0.000  0.00  0.00    +0.000 C 
BRANCH  63  64
ATOM     64  N   UNL     1      12.025  10.655   0.000  0.00  0.00    +0.000 N 
ATOM     65  C   UNL     1      12.764  10.234   0.000  0.00  0.00    +0.000 C 
ATOM     66  C   UNL     1      11.235  10.895   0.000  0.00  0.00    +0.000 C 
ATOM     67  C   UNL     1      11.048  11.698   0.000  0.00  0.00    +0.000 A 
ATOM     68  C   UNL     1      11.650  12.262   0.000  0.00  0.00    +0.000 A 
ATOM     69  C   UNL     1      11.462  13.065   0.000  0.00  0.00    +0.000 A 
ATOM     70  C   UNL     1      10.673  13.305   0.000  0.00  0.00    +0.000 A 
ATOM     71  C   UNL     1      10.071  12.741   0.000  0.00  0.00    +0.000 A 
ATOM     72  C   UNL     1      10.258  11.937   0.000  0.00  0.00    +0.000 A 
ATOM     73  O   UNL     1       9.552  11.511   0.000  0.00  0.00    +0.000 OA
ATOM     74  C   UNL     1       8.928  12.050   0.000  0.00  0.00    +0.000 C 
ATOM     75  O   UNL     1       9.249  12.811   0.000  0.00  0.00    +0.000 OA
ATOM     76  C   UNL     1      12.439  12.023   0.000  0.00  0.00    +0.000 C 
ATOM     77  C   UNL     1      13.041  12.587   0.000  0.00  0.00    +0.000 C 
ATOM     78  O   UNL     1      13.195  13.453   0.000  0.00  0.00    +0.000 OA
ATOM     79  C   UNL     1      13.831  12.347   0.000  0.00  0.00    +0.000 C 
ATOM     80  C   UNL     1      14.018  11.544   0.000  0.00  0.00    +0.000 A 
ATOM     81  C   UNL     1      14.808  11.305   0.000  0.00  0.00    +0.000 A 
ATOM     82  C   UNL     1      14.995  10.501   0.000  0.00  0.00    +0.000 A 
ATOM     83  C   UNL     1      14.393   9.937   0.000  0.00  0.00    +0.000 A 
ATOM     84  O   UNL     1      14.744   9.190   0.000  0.00  0.00    +0.000 OA
ATOM     85  C   UNL     1      15.562   9.293   0.000  0.00  0.00    +0.000 C 
ATOM     86  O   UNL     1      15.718  10.103   0.000  0.00  0.00    +0.000 OA
ATOM     87  C   UNL     1      13.604  10.176   0.000  0.00  0.00    +0.000 A 
ATOM     88  C   UNL     1      13.416  10.980   0.000  0.00  0.00    +0.000 A 
ATOM     89  C   UNL     1      12.627  11.219   0.000  0.00  0.00    +0.000 C 
ENDBRANCH  63  64
ENDBRANCH  62  63
ENDBRANCH  61  62
ENDBRANCH   1  61
TORSDOF 12
