REMARK  Name = 
REMARK  8 active torsions:
REMARK  status: ('A' for Active; 'I' for Inactive)
REMARK    1  A    between atoms: CA_1  and  N_17
REMARK    2  A    between atoms: CA_5  and  C_11
REMARK    3  A    between atoms: C_6  and  C_23
REMARK    4  A    between atoms: C_14  and  C_15
REMARK    5  A    between atoms: C_15  and  C_18
REMARK    6  A    between atoms: C_24  and  C_25
REMARK    7  A    between atoms: C_26  and  N_34
REMARK    8  A    between atoms: C_28  and  N_31
REMARK                            x       y       z     vdW  Elec       q    Type
REMARK                         _______ _______ _______ _____ _____    ______ ____
ROOT
ATOM      1  CA  UNL     1      -1.585   1.021   0.000  0.00  0.00    +0.000 C 
ATOM      2  C   UNL     1      -1.585   0.196   0.000  0.00  0.00    +0.000 C 
ATOM      3  O   UNL     1      -2.164  -0.388   0.000  0.00  0.00    +0.000 OA
ATOM      4  N   UNL     1      -0.756   0.196   0.000  0.00  0.00    +0.000 N 
ATOM      5  CA  UNL     1      -0.044  -0.216   0.000  0.00  0.00    +0.000 C 
ATOM      6  C   UNL     1       0.672   0.196   0.000  0.00  0.00    +0.000 C 
ATOM      7  C   UNL     1       0.672   1.021   0.000  0.00  0.00    +0.000 C 
ATOM      8  S   UNL     1      -0.044   1.434   0.000  0.00  0.00    +0.000 S 
ATOM      9  C   UNL     1      -0.756   1.021   0.000  0.00  0.00    +0.000 C 
ENDROOT
BRANCH   1  12
ATOM     10  C   UNL     1      -2.963   1.394   0.000  0.00  0.00    +0.000 C 
ATOM     11  O   UNL     1      -3.175   0.595   0.000  0.00  0.00    +0.000 OA
ATOM     12  N   UNL     1      -2.164   1.605   0.000  0.00  0.00    +0.000 NA
BRANCH  10  13
ATOM     13  C   UNL     1      -3.547   1.974   0.000  0.00  0.00    +0.000 C 
BRANCH  13  14
ATOM     14  C   UNL     1      -4.342   1.763   0.000  0.00  0.00    +0.000 A 
ATOM     15  C   UNL     1      -4.985   2.279   0.000  0.00  0.00    +0.000 A 
ATOM     16  C   UNL     1      -5.675   1.831   0.000  0.00  0.00    +0.000 A 
ATOM     17  C   UNL     1      -5.464   1.036   0.000  0.00  0.00    +0.000 A 
ATOM     18  S   UNL     1      -4.636   0.992   0.000  0.00  0.00    +0.000 S 
ENDBRANCH  13  14
ENDBRANCH  10  13
ENDBRANCH   1  12
BRANCH   5  19
ATOM     19  C   UNL     1      -0.044  -1.041   0.000  0.00  0.00    +0.000 C 
ATOM     20  O   UNL     1      -0.756  -1.454   0.000  0.00  0.00    +0.000 OA
ATOM     21  OXT UNL     1       0.672  -1.454   0.000  0.00  0.00    +0.000 OA
ENDBRANCH   5  19
BRANCH   6  22
ATOM     22  C   UNL     1       1.388  -0.216   0.000  0.00  0.00    +0.000 C 
ATOM     23  C   UNL     1       2.099   0.196   0.000  0.00  0.00    +0.000 C 
BRANCH  23  24
ATOM     24  C   UNL     1       2.815  -0.216   0.000  0.00  0.00    +0.000 A 
ATOM     25  C   UNL     1       2.815  -1.041   0.000  0.00  0.00    +0.000 A 
ATOM     26  C   UNL     1       3.531  -1.454   0.000  0.00  0.00    +0.000 A 
ATOM     27  C   UNL     1       4.243  -1.041   0.000  0.00  0.00    +0.000 A 
ATOM     28  C   UNL     1       4.243  -0.216   0.000  0.00  0.00    +0.000 A 
ATOM     29  C   UNL     1       3.531   0.196   0.000  0.00  0.00    +0.000 A 
BRANCH  27  30
ATOM     30  N   UNL     1       4.959  -1.454   0.000  0.00  0.00    +0.000 N 
ATOM     31  O   UNL     1       5.675  -1.041   0.000  0.00  0.00    +0.000 OA
ATOM     32  O   UNL     1       4.959  -2.279   0.000  0.00  0.00    +0.000 OA
ENDBRANCH  27  30
BRANCH  25  33
ATOM     33  N   UNL     1       2.099  -1.454   0.000  0.00  0.00    +0.000 N 
ATOM     34  O   UNL     1       1.388  -1.041   0.000  0.00  0.00    +0.000 OA
ATOM     35  O   UNL     1       2.099  -2.279   0.000  0.00  0.00    +0.000 OA
ENDBRANCH  25  33
ENDBRANCH  23  24
ENDBRANCH   6  22
TORSDOF 8
