REMARK  Name = 
REMARK  7 active torsions:
REMARK  status: ('A' for Active; 'I' for Inactive)
REMARK    1  A    between atoms: N_9  and  C_17
REMARK    2  A    between atoms: N_12  and  C_25
REMARK    3  A    between atoms: N_14  and  C_26
REMARK    4  A    between atoms: N_15  and  C_32
REMARK    5  A    between atoms: C_19  and  C_20
REMARK    6  A    between atoms: C_24  and  C_25
REMARK    7  A    between atoms: C_28  and  C_29
REMARK                            x       y       z     vdW  Elec       q    Type
REMARK                         _______ _______ _______ _____ _____    ______ ____
ROOT
ATOM      1  O   UNL     1      -1.929   0.445   0.000  0.00  0.00    +0.000 OA
ATOM      2  O   UNL     1      -4.022   0.861   0.000  0.00  0.00    +0.000 OA
ATOM      3  O   UNL     1      -2.965   2.312   0.000  0.00  0.00    +0.000 OA
ATOM      4  C   UNL     1      -3.197   0.860   0.000  0.00  0.00    +0.000 C 
ATOM      5  C   UNL     1      -2.714   0.192   0.000  0.00  0.00    +0.000 C 
ATOM      6  C   UNL     1      -2.711   1.526   0.000  0.00  0.00    +0.000 C 
ATOM      7  C   UNL     1      -1.927   1.270   0.000  0.00  0.00    +0.000 C 
ENDROOT
BRANCH   5   8
ATOM      8  N   UNL     1      -2.970  -0.593   0.000  0.00  0.00    +0.000 N 
ATOM      9  N   UNL     1      -2.970  -1.920   0.000  0.00  0.00    +0.000 NA
ATOM     10  N   UNL     1      -4.465  -0.431   0.000  0.00  0.00    +0.000 NA
ATOM     11  N   UNL     1      -5.180  -1.669   0.000  0.00  0.00    +0.000 NA
ATOM     12  C   UNL     1      -3.751  -0.844   0.000  0.00  0.00    +0.000 A 
ATOM     13  C   UNL     1      -2.489  -1.256   0.000  0.00  0.00    +0.000 A 
ATOM     14  C   UNL     1      -3.751  -1.669   0.000  0.00  0.00    +0.000 A 
ATOM     15  C   UNL     1      -4.465  -2.082   0.000  0.00  0.00    +0.000 A 
ATOM     16  C   UNL     1      -5.180  -0.844   0.000  0.00  0.00    +0.000 A 
BRANCH  15  17
ATOM     17  N   UNL     1      -4.465  -2.906   0.000  0.00  0.00    +0.000 N 
ATOM     18  H   UNL     1      -4.908  -3.162   0.000  0.00  0.00    +0.000 HD
ATOM     19  H   UNL     1      -4.022  -3.162   0.000  0.00  0.00    +0.000 HD
ENDBRANCH  15  17
ENDBRANCH   5   8
BRANCH   7  20
ATOM     20  C   UNL     1      -1.259   1.754   0.000  0.00  0.00    +0.000 C 
ATOM     21  C   UNL     1      -0.506   1.417   0.000  0.00  0.00    +0.000 C 
BRANCH  21  22
ATOM     22  C   UNL     1       0.162   1.901   0.000  0.00  0.00    +0.000 C 
BRANCH  22  24
ATOM     23  O   UNL     1       1.499   2.868   0.000  0.00  0.00    +0.000 OA
ATOM     24  N   UNL     1       0.915   1.564   0.000  0.00  0.00    +0.000 N 
ATOM     25  C   UNL     1       1.584   2.048   0.000  0.00  0.00    +0.000 C 
ATOM     26  H   UNL     1       0.968   1.055   0.000  0.00  0.00    +0.000 HD
BRANCH  25  29
ATOM     27  O   UNL     1       1.753   0.406   0.000  0.00  0.00    +0.000 OA
ATOM     28  O   UNL     1       3.260  -0.267   0.000  0.00  0.00    +0.000 OA
ATOM     29  C   UNL     1       2.337   1.711   0.000  0.00  0.00    +0.000 A 
ATOM     30  C   UNL     1       2.422   0.890   0.000  0.00  0.00    +0.000 A 
ATOM     31  C   UNL     1       3.005   2.195   0.000  0.00  0.00    +0.000 A 
ATOM     32  C   UNL     1       3.758   1.858   0.000  0.00  0.00    +0.000 A 
ATOM     33  C   UNL     1       3.175   0.553   0.000  0.00  0.00    +0.000 A 
ATOM     34  C   UNL     1       3.843   1.037   0.000  0.00  0.00    +0.000 A 
BRANCH  32  37
ATOM     35  O   UNL     1       5.180   2.005   0.000  0.00  0.00    +0.000 OA
ATOM     36  O   UNL     1       4.342   3.162   0.000  0.00  0.00    +0.000 OA
ATOM     37  N   UNL     1       4.426   2.342   0.000  0.00  0.00    +0.000 N 
ENDBRANCH  32  37
ENDBRANCH  25  29
ENDBRANCH  22  24
ENDBRANCH  21  22
ENDBRANCH   7  20
TORSDOF 7
