REMARK  Name = 
REMARK  16 active torsions:
REMARK  status: ('A' for Active; 'I' for Inactive)
REMARK    1  A    between atoms: C_2  and  C_3
REMARK    2  A    between atoms: C_2  and  C_14
REMARK    3  A    between atoms: C_3  and  C_4
REMARK    4  A    between atoms: C_4  and  C_5
REMARK    5  A    between atoms: C_5  and  C_6
REMARK    6  A    between atoms: C_5  and  O_9
REMARK    7  A    between atoms: O_9  and  S_10
REMARK    8  A    between atoms: C_29  and  N_31
REMARK    9  A    between atoms: N_31  and  C_32
REMARK   10  A    between atoms: C_32  and  C_33
REMARK   11  A    between atoms: C_33  and  C_34
REMARK   12  A    between atoms: C_34  and  N_35
REMARK   13  A    between atoms: N_35  and  C_36
REMARK   14  A    between atoms: C_36  and  C_37
REMARK   15  A    between atoms: C_37  and  C_38
REMARK   16  A    between atoms: C_38  and  C_39
REMARK                            x       y       z     vdW  Elec       q    Type
REMARK                         _______ _______ _______ _____ _____    ______ ____
ROOT
ATOM      1  C   UNL     1      -2.928   3.967   0.000  0.00  0.00    +0.000 C 
ATOM      2  C   UNL     1      -3.413   3.300   0.000  0.00  0.00    +0.000 C 
ATOM      3  C   UNL     1      -2.928   2.633   0.000  0.00  0.00    +0.000 C 
ATOM      4  C   UNL     1      -2.143   2.888   0.000  0.00  0.00    +0.000 C 
ATOM      5  C   UNL     1      -2.143   3.712   0.000  0.00  0.00    +0.000 C 
ATOM      6  C   UNL     1      -1.429   4.125   0.000  0.00  0.00    +0.000 C 
ATOM      7  C   UNL     1      -0.715   3.712   0.000  0.00  0.00    +0.000 C 
ATOM      8  C   UNL     1      -0.715   2.888   0.000  0.00  0.00    +0.000 C 
ATOM      9  C   UNL     1      -1.429   2.475   0.000  0.00  0.00    +0.000 C 
ATOM     10  C   UNL     1      -1.429   1.650   0.000  0.00  0.00    +0.000 C 
ATOM     11  C   UNL     1      -0.715   1.238   0.000  0.00  0.00    +0.000 C 
ATOM     12  C   UNL     1       0.000   1.650   0.000  0.00  0.00    +0.000 C 
ATOM     13  C   UNL     1       0.000   2.475   0.000  0.00  0.00    +0.000 C 
ATOM     14  C   UNL     1       0.715   2.888   0.000  0.00  0.00    +0.000 C 
ATOM     15  C   UNL     1       1.429   2.475   0.000  0.00  0.00    +0.000 C 
ATOM     16  C   UNL     1       1.429   1.650   0.000  0.00  0.00    +0.000 C 
ATOM     17  C   UNL     1       0.715   1.238   0.000  0.00  0.00    +0.000 C 
ATOM     18  C   UNL     1       0.000   3.300   0.000  0.00  0.00    +0.000 C 
ATOM     19  O   UNL     1      -2.143   1.238   0.000  0.00  0.00    +0.000 OA
ATOM     20  C   UNL     1      -2.230   4.533   0.000  0.00  0.00    +0.000 C 
ENDROOT
BRANCH   1  22
ATOM     21  C   UNL     1      -2.631   5.365   0.000  0.00  0.00    +0.000 C 
ATOM     22  C   UNL     1      -3.183   4.752   0.000  0.00  0.00    +0.000 C 
BRANCH  22  23
ATOM     23  C   UNL     1      -3.990   4.924   0.000  0.00  0.00    +0.000 C 
BRANCH  23  24
ATOM     24  C   UNL     1      -4.245   5.708   0.000  0.00  0.00    +0.000 C 
BRANCH  24  25
ATOM     25  C   UNL     1      -5.052   5.880   0.000  0.00  0.00    +0.000 C 
BRANCH  25  26
ATOM     26  C   UNL     1      -5.604   5.267   0.000  0.00  0.00    +0.000 C 
ATOM     27  C   UNL     1      -6.411   5.438   0.000  0.00  0.00    +0.000 C 
ATOM     28  C   UNL     1      -5.349   4.482   0.000  0.00  0.00    +0.000 C 
ENDBRANCH  25  26
BRANCH  25  29
ATOM     29  O   UNL     1      -5.307   6.664   0.000  0.00  0.00    +0.000 OA
BRANCH  29  30
ATOM     30  S   UNL     1      -6.114   6.836   0.000  0.00  0.00    +0.000 S 
ATOM     31  O   UNL     1      -6.921   7.007   0.000  0.00  0.00    +0.000 OA
ATOM     32  O   UNL     1      -6.285   6.029   0.000  0.00  0.00    +0.000 OA
ATOM     33  O   UNL     1      -5.942   7.643   0.000  0.00  0.00    +0.000 OA
ENDBRANCH  29  30
ENDBRANCH  25  29
ENDBRANCH  24  25
ENDBRANCH  23  24
ENDBRANCH  22  23
ENDBRANCH   1  22
BRANCH  16  34
ATOM     34  N   UNL     1       2.143   1.238   0.000  0.00  0.00    +0.000 NA
BRANCH  34  35
ATOM     35  C   UNL     1       2.858   1.650   0.000  0.00  0.00    +0.000 C 
BRANCH  35  36
ATOM     36  C   UNL     1       3.572   1.238   0.000  0.00  0.00    +0.000 C 
BRANCH  36  37
ATOM     37  C   UNL     1       4.287   1.650   0.000  0.00  0.00    +0.000 C 
BRANCH  37  38
ATOM     38  N   UNL     1       5.001   1.238   0.000  0.00  0.00    +0.000 NA
BRANCH  38  39
ATOM     39  C   UNL     1       5.716   1.650   0.000  0.00  0.00    +0.000 C 
BRANCH  39  40
ATOM     40  C   UNL     1       6.430   1.238   0.000  0.00  0.00    +0.000 C 
BRANCH  40  41
ATOM     41  C   UNL     1       7.145   1.650   0.000  0.00  0.00    +0.000 C 
BRANCH  41  42
ATOM     42  C   UNL     1       7.859   1.238   0.000  0.00  0.00    +0.000 C 
ATOM     43  N   UNL     1       8.574   1.650   0.000  0.00  0.00    +0.000 NA
ENDBRANCH  41  42
ENDBRANCH  40  41
ENDBRANCH  39  40
ENDBRANCH  38  39
ENDBRANCH  37  38
ENDBRANCH  36  37
ENDBRANCH  35  36
ENDBRANCH  34  35
ENDBRANCH  16  34
TORSDOF 16
