REMARK  Name = 
REMARK  5 active torsions:
REMARK  status: ('A' for Active; 'I' for Inactive)
REMARK    1  A    between atoms: C_1  and  C_2
REMARK    2  A    between atoms: C_6  and  O_8
REMARK    3  A    between atoms: O_8  and  C_9
REMARK    4  A    between atoms: C_11  and  C_15
REMARK    5  A    between atoms: C_15  and  C_16
REMARK                            x       y       z     vdW  Elec       q    Type
REMARK                         _______ _______ _______ _____ _____    ______ ____
ROOT
ATOM      1  O   UNL     1       3.466   2.001   0.000  0.00  0.00    +0.000 OA
ENDROOT
BRANCH   1   6
ATOM      2  C   UNL     1       1.322   2.413   0.000  0.00  0.00    +0.000 C 
ATOM      3  C   UNL     1       1.322   3.238   0.000  0.00  0.00    +0.000 C 
ATOM      4  C   UNL     1       2.037   3.651   0.000  0.00  0.00    +0.000 C 
ATOM      5  C   UNL     1       2.751   3.238   0.000  0.00  0.00    +0.000 C 
ATOM      6  C   UNL     1       2.751   2.413   0.000  0.00  0.00    +0.000 C 
ATOM      7  O   UNL     1       2.037   2.001   0.000  0.00  0.00    +0.000 OA
ATOM      8  O   UNL     1       3.466   3.651   0.000  0.00  0.00    +0.000 OA
ATOM      9  O   UNL     1       2.037   4.476   0.000  0.00  0.00    +0.000 OA
ATOM     10  O   UNL     1       0.608   3.651   0.000  0.00  0.00    +0.000 OA
BRANCH   2  11
ATOM     11  C   UNL     1       0.608   2.001   0.000  0.00  0.00    +0.000 C 
ATOM     12  O   UNL     1       0.608   1.176   0.000  0.00  0.00    +0.000 OA
ENDBRANCH   2  11
ENDBRANCH   1   6
BRANCH   1  13
ATOM     13  C   UNL     1       3.466   1.176   0.000  0.00  0.00    +0.000 C 
ATOM     14  C   UNL     1       4.133   0.691   0.000  0.00  0.00    +0.000 C 
ATOM     15  C   UNL     1       3.878  -0.094   0.000  0.00  0.00    +0.000 C 
ATOM     16  O   UNL     1       3.053  -0.094   0.000  0.00  0.00    +0.000 OA
ATOM     17  C   UNL     1       2.798   0.691   0.000  0.00  0.00    +0.000 C 
ATOM     18  O   UNL     1       2.014   0.946   0.000  0.00  0.00    +0.000 OA
ATOM     19  O   UNL     1       4.918   0.946   0.000  0.00  0.00    +0.000 OA
BRANCH  15  20
ATOM     20  C   UNL     1       4.363  -0.761   0.000  0.00  0.00    +0.000 C 
ATOM     21  O   UNL     1       5.184  -0.675   0.000  0.00  0.00    +0.000 OA
BRANCH  20  22
ATOM     22  C   UNL     1       4.027  -1.515   0.000  0.00  0.00    +0.000 C 
ATOM     23  O   UNL     1       4.512  -2.182   0.000  0.00  0.00    +0.000 OA
ENDBRANCH  20  22
ENDBRANCH  15  20
ENDBRANCH   1  13
TORSDOF 5
