REMARK  Name = 
REMARK  3 active torsions:
REMARK  status: ('A' for Active; 'I' for Inactive)
REMARK    1  A    between atoms: C_1  and  C_2
REMARK    2  A    between atoms: C_2  and  C_3
REMARK    3  A    between atoms: C_3  and  C_4
REMARK                            x       y       z     vdW  Elec       q    Type
REMARK                         _______ _______ _______ _____ _____    ______ ____
ROOT
ATOM      1  C   UNL     1       0.357  -0.206   0.000  0.00  0.00    +0.000 C 
ENDROOT
BRANCH   1   2
ATOM      2  C   UNL     1       1.072   0.206   0.000  0.00  0.00    +0.000 C 
ATOM      3  O   UNL     1       1.072   1.031   0.000  0.00  0.00    +0.000 OA
ATOM      4  O   UNL     1       1.786  -0.206   0.000  0.00  0.00    +0.000 OA
ENDBRANCH   1   2
BRANCH   1   5
ATOM      5  C   UNL     1      -0.357   0.206   0.000  0.00  0.00    +0.000 C 
BRANCH   5   6
ATOM      6  C   UNL     1      -1.072  -0.206   0.000  0.00  0.00    +0.000 C 
ATOM      7  C   UNL     1      -1.072  -1.031   0.000  0.00  0.00    +0.000 C 
ATOM      8  C   UNL     1      -1.786   0.206   0.000  0.00  0.00    +0.000 C 
ENDBRANCH   5   6
ENDBRANCH   1   5
TORSDOF 3
