REMARK  Name = 
REMARK  0 active torsions:
REMARK  status: ('A' for Active; 'I' for Inactive)
REMARK                            x       y       z     vdW  Elec       q    Type
REMARK                         _______ _______ _______ _____ _____    ______ ____
ROOT
ATOM      1  O   UNL     1       1.786   0.412   0.000  0.00  0.00    +0.000 OA
ATOM      2  O   UNL     1       1.786  -1.238   0.000  0.00  0.00    +0.000 OA
ATOM      3  O   UNL     1       0.357   1.238   0.000  0.00  0.00    +0.000 OA
ATOM      4  O   UNL     1      -1.786   0.000   0.000  0.00  0.00    +0.000 OA
ATOM      5  N   UNL     1      -0.357  -0.825   0.000  0.00  0.00    +0.000 NA
ATOM      6  N   UNL     1      -1.072   0.412   0.000  0.00  0.00    +0.000 N 
ATOM      7  C   UNL     1       1.072   0.000   0.000  0.00  0.00    +0.000 C 
ATOM      8  C   UNL     1       1.072  -0.825   0.000  0.00  0.00    +0.000 C 
ATOM      9  C   UNL     1       0.357   0.412   0.000  0.00  0.00    +0.000 C 
ATOM     10  C   UNL     1       0.357  -1.238   0.000  0.00  0.00    +0.000 C 
ATOM     11  C   UNL     1      -0.357   0.000   0.000  0.00  0.00    +0.000 C 
ATOM     12  H   UNL     1      -1.072   0.924   0.000  0.00  0.00    +0.000 HD
ENDROOT
TORSDOF 0
