REMARK  Name = 
REMARK  1 active torsions:
REMARK  status: ('A' for Active; 'I' for Inactive)
REMARK    1  A    between atoms: C_25  and  C_29
REMARK                            x       y       z     vdW  Elec       q    Type
REMARK                         _______ _______ _______ _____ _____    ______ ____
ROOT
ATOM      1  C   UNL     1      -1.620  -0.957   0.000  0.00  0.00    +0.000 C 
ATOM      2  C   UNL     1      -2.334  -1.370   0.000  0.00  0.00    +0.000 C 
ATOM      3  C   UNL     1      -1.620  -2.607   0.000  0.00  0.00    +0.000 C 
ATOM      4  C   UNL     1      -0.191  -2.607   0.000  0.00  0.00    +0.000 C 
ATOM      5  C   UNL     1       0.523  -2.195   0.000  0.00  0.00    +0.000 C 
ATOM      6  C   UNL     1      -0.191  -0.132   0.000  0.00  0.00    +0.000 C 
ATOM      7  C   UNL     1       2.023  -1.212   0.000  0.00  0.00    +0.000 C 
ATOM      8  C   UNL     1       2.507  -0.545   0.000  0.00  0.00    +0.000 C 
ATOM      9  C   UNL     1      -2.334  -2.195   0.000  0.00  0.00    +0.000 C 
ATOM     10  O   UNL     1      -3.049  -2.607   0.000  0.00  0.00    +0.000 OA
ATOM     11  C   UNL     1      -0.905  -2.195   0.000  0.00  0.00    +0.000 C 
ATOM     12  C   UNL     1      -0.905  -1.370   0.000  0.00  0.00    +0.000 C 
ATOM     13  C   UNL     1      -0.905  -0.545   0.000  0.00  0.00    +0.000 C 
ATOM     14  C   UNL     1      -0.191  -0.957   0.000  0.00  0.00    +0.000 C 
ATOM     15  C   UNL     1       1.238  -0.957   0.000  0.00  0.00    +0.000 C 
ATOM     16  O   UNL     1       1.238  -1.782   0.000  0.00  0.00    +0.000 OA
ATOM     17  C   UNL     1       0.523   0.280   0.000  0.00  0.00    +0.000 C 
ATOM     18  O   UNL     1       0.523   1.105   0.000  0.00  0.00    +0.000 OA
ATOM     19  C   UNL     1       1.238  -0.132   0.000  0.00  0.00    +0.000 C 
ATOM     20  C   UNL     1       1.238   0.693   0.000  0.00  0.00    +0.000 C 
ATOM     21  C   UNL     1       2.023   0.123   0.000  0.00  0.00    +0.000 C 
ATOM     22  C   UNL     1       0.523  -1.370   0.000  0.00  0.00    +0.000 C 
ENDROOT
BRANCH  21  25
ATOM     23  C   UNL     1       3.027   1.154   0.000  0.00  0.00    +0.000 C 
ATOM     24  C   UNL     1       1.769   1.600   0.000  0.00  0.00    +0.000 C 
ATOM     25  C   UNL     1       2.236   0.920   0.000  0.00  0.00    +0.000 C 
ATOM     26  O   UNL     1       3.049   1.979   0.000  0.00  0.00    +0.000 OA
ATOM     27  C   UNL     1       2.271   2.254   0.000  0.00  0.00    +0.000 C 
ATOM     28  O   UNL     1       1.995   3.020   0.000  0.00  0.00    +0.000 OA
ENDBRANCH  21  25
TORSDOF 1
