REMARK  Name = 
REMARK  6 active torsions:
REMARK  status: ('A' for Active; 'I' for Inactive)
REMARK    1  A    between atoms: P_1  and  O_2
REMARK    2  A    between atoms: P_1  and  C_8
REMARK    3  A    between atoms: O_2  and  C_7
REMARK    4  A    between atoms: N_6  and  C_16
REMARK    5  A    between atoms: C_7  and  C_10
REMARK    6  A    between atoms: C_8  and  C_9
REMARK                            x       y       z     vdW  Elec       q    Type
REMARK                         _______ _______ _______ _____ _____    ______ ____
ROOT
ATOM      1  P   UNL     1       0.357  -1.031   0.000  0.00  0.00    +0.000 P 
ATOM      2  O   UNL     1       0.770  -1.746   0.000  0.00  0.00    +0.000 OA
ATOM      3  O   UNL     1      -0.055  -0.317   0.000  0.00  0.00    +0.000 OA
ENDROOT
BRANCH   1   4
ATOM      4  C   UNL     1       1.072  -0.619   0.000  0.00  0.00    +0.000 C 
BRANCH   4   5
ATOM      5  C   UNL     1       1.072   0.206   0.000  0.00  0.00    +0.000 A 
ATOM      6  C   UNL     1       0.357   0.619   0.000  0.00  0.00    +0.000 A 
ATOM      7  C   UNL     1       1.786   0.619   0.000  0.00  0.00    +0.000 A 
ATOM      8  C   UNL     1       1.072   1.856   0.000  0.00  0.00    +0.000 A 
ATOM      9  C   UNL     1       0.357   1.444   0.000  0.00  0.00    +0.000 A 
ATOM     10  C   UNL     1       1.786   1.444   0.000  0.00  0.00    +0.000 A 
BRANCH   8  12
ATOM     11  O   UNL     1       2.501   2.681   0.000  0.00  0.00    +0.000 OA
ATOM     12  N   UNL     1       1.072   2.681   0.000  0.00  0.00    +0.000 N 
ATOM     13  C   UNL     1       1.786   3.094   0.000  0.00  0.00    +0.000 C 
ATOM     14  C   UNL     1       1.786   3.919   0.000  0.00  0.00    +0.000 C 
ATOM     15  H   UNL     1       0.629   2.937   0.000  0.00  0.00    +0.000 HD
ENDBRANCH   8  12
ENDBRANCH   4   5
ENDBRANCH   1   4
BRANCH   1  16
ATOM     16  O   UNL     1      -0.357  -1.444   0.000  0.00  0.00    +0.000 OA
BRANCH  16  17
ATOM     17  C   UNL     1      -0.357  -2.269   0.000  0.00  0.00    +0.000 C 
ATOM     18  C   UNL     1       0.357  -2.681   0.000  0.00  0.00    +0.000 C 
BRANCH  17  19
ATOM     19  C   UNL     1      -1.072  -2.681   0.000  0.00  0.00    +0.000 A 
ATOM     20  C   UNL     1      -1.072  -3.506   0.000  0.00  0.00    +0.000 A 
ATOM     21  C   UNL     1      -1.786  -2.269   0.000  0.00  0.00    +0.000 A 
ATOM     22  C   UNL     1      -1.786  -3.919   0.000  0.00  0.00    +0.000 A 
ATOM     23  C   UNL     1      -2.501  -2.681   0.000  0.00  0.00    +0.000 A 
ATOM     24  C   UNL     1      -2.501  -3.506   0.000  0.00  0.00    +0.000 A 
ENDBRANCH  17  19
ENDBRANCH  16  17
ENDBRANCH   1  16
TORSDOF 6
