REMARK  Name = 
REMARK  6 active torsions:
REMARK  status: ('A' for Active; 'I' for Inactive)
REMARK    1  A    between atoms: C_2  and  O_8
REMARK    2  A    between atoms: C_2  and  C_13
REMARK    3  A    between atoms: O_8  and  C_12
REMARK    4  A    between atoms: C_12  and  C_19
REMARK    5  A    between atoms: C_13  and  O_29
REMARK    6  A    between atoms: O_29  and  C_31
REMARK                            x       y       z     vdW  Elec       q    Type
REMARK                         _______ _______ _______ _____ _____    ______ ____
ROOT
ATOM      1  C   UNL     1       0.381   0.162   0.000  0.00  0.00    +0.000 C 
ATOM      2  C   UNL     1       1.163   0.417   0.000  0.00  0.00    +0.000 C 
ATOM      3  C   UNL     1      -1.761  -1.073   0.000  0.00  0.00    +0.000 C 
ATOM      4  C   UNL     1      -0.328  -1.073   0.000  0.00  0.00    +0.000 C 
ATOM      5  C   UNL     1       0.381  -0.663   0.000  0.00  0.00    +0.000 C 
ATOM      6  C   UNL     1      -1.047  -0.663   0.000  0.00  0.00    +0.000 C 
ATOM      7  C   UNL     1      -1.761  -1.899   0.000  0.00  0.00    +0.000 C 
ATOM      8  C   UNL     1      -0.328   0.577   0.000  0.00  0.00    +0.000 C 
ATOM      9  C   UNL     1      -1.047   0.162   0.000  0.00  0.00    +0.000 C 
ATOM     10  C   UNL     1      -2.470  -0.663   0.000  0.00  0.00    +0.000 C 
ATOM     11  C   UNL     1      -2.470  -2.313   0.000  0.00  0.00    +0.000 C 
ATOM     12  C   UNL     1       1.645  -0.248   0.000  0.00  0.00    +0.000 C 
ATOM     13  C   UNL     1       1.163  -0.914   0.000  0.00  0.00    +0.000 C 
ATOM     14  C   UNL     1      -0.328  -1.899   0.000  0.00  0.00    +0.000 C 
ATOM     15  C   UNL     1      -3.189  -1.073   0.000  0.00  0.00    +0.000 C 
ATOM     16  C   UNL     1      -3.189  -1.899   0.000  0.00  0.00    +0.000 C 
ATOM     17  C   UNL     1      -1.047  -2.313   0.000  0.00  0.00    +0.000 C 
ATOM     18  O   UNL     1      -3.903  -2.313   0.000  0.00  0.00    +0.000 OA
ATOM     19  C   UNL     1       0.381   0.987   0.000  0.00  0.00    +0.000 C 
ATOM     20  O   UNL     1      -1.756   0.577   0.000  0.00  0.00    +0.000 OA
ATOM     21  C   UNL     1      -1.771  -0.248   0.000  0.00  0.00    +0.000 C 
ENDROOT
BRANCH   2  22
ATOM     22  C   UNL     1       1.423   1.199   0.000  0.00  0.00    +0.000 C 
ATOM     23  O   UNL     1       0.878   1.821   0.000  0.00  0.00    +0.000 OA
BRANCH  22  24
ATOM     24  O   UNL     1       2.224   1.373   0.000  0.00  0.00    +0.000 OA
BRANCH  24  25
ATOM     25  C   UNL     1       2.485   2.145   0.000  0.00  0.00    +0.000 C 
ATOM     26  C   UNL     1       3.281   2.313   0.000  0.00  0.00    +0.000 C 
ENDBRANCH  24  25
ENDBRANCH  22  24
ENDBRANCH   2  22
BRANCH   2  27
ATOM     27  O   UNL     1       1.949   0.634   0.000  0.00  0.00    +0.000 OA
BRANCH  27  28
ATOM     28  C   UNL     1       2.528   0.055   0.000  0.00  0.00    +0.000 C 
ATOM     29  O   UNL     1       2.321  -0.741   0.000  0.00  0.00    +0.000 OA
BRANCH  28  30
ATOM     30  C   UNL     1       3.324   0.263   0.000  0.00  0.00    +0.000 C 
ATOM     31 CL   UNL     1       3.537   1.059   0.000  0.00  0.00    +0.000 Cl
ATOM     32 CL   UNL     1       3.903  -0.316   0.000  0.00  0.00    +0.000 Cl
ENDBRANCH  28  30
ENDBRANCH  27  28
ENDBRANCH   2  27
TORSDOF 6
