REMARK  Name = 
REMARK  1 active torsions:
REMARK  status: ('A' for Active; 'I' for Inactive)
REMARK    1  A    between atoms: C_8  and  C_9
REMARK                            x       y       z     vdW  Elec       q    Type
REMARK                         _______ _______ _______ _____ _____    ______ ____
ROOT
ATOM      1  C   UNL     1      -0.269   0.325   0.000  0.00  0.00    +0.000 C 
ATOM      2  C   UNL     1       0.143   1.040   0.000  0.00  0.00    +0.000 C 
ATOM      3  O   UNL     1      -0.269   1.754   0.000  0.00  0.00    +0.000 OA
ATOM      4  C   UNL     1       0.969   1.040   0.000  0.00  0.00    +0.000 C 
ATOM      5  O   UNL     1       1.381   1.754   0.000  0.00  0.00    +0.000 OA
ATOM      6  C   UNL     1       1.381   0.325   0.000  0.00  0.00    +0.000 C 
ATOM      7  O   UNL     1       2.206   0.325   0.000  0.00  0.00    +0.000 OA
ATOM      8  C   UNL     1       0.969  -0.389   0.000  0.00  0.00    +0.000 C 
ATOM      9  O   UNL     1       0.143  -0.389   0.000  0.00  0.00    +0.000 OA
ATOM     10  N   UNL     1      -0.754  -0.342   0.000  0.00  0.00    +0.000 NA
ATOM     11  C   UNL     1      -1.539  -0.087   0.000  0.00  0.00    +0.000 C 
ATOM     12  O   UNL     1      -2.206  -0.572   0.000  0.00  0.00    +0.000 OA
ATOM     13  N   UNL     1      -1.539   0.738   0.000  0.00  0.00    +0.000 N 
ATOM     14  C   UNL     1      -0.754   0.993   0.000  0.00  0.00    +0.000 C 
ATOM     15  O   UNL     1      -0.754   1.818   0.000  0.00  0.00    +0.000 OA
ATOM     16  C   UNL     1      -2.206   1.223   0.000  0.00  0.00    +0.000 C 
ENDROOT
BRANCH   8  17
ATOM     17  C   UNL     1       1.381  -1.103   0.000  0.00  0.00    +0.000 C 
ATOM     18  O   UNL     1       0.969  -1.818   0.000  0.00  0.00    +0.000 OA
ENDBRANCH   8  17
TORSDOF 1
