REMARK  Name = 
REMARK  5 active torsions:
REMARK  status: ('A' for Active; 'I' for Inactive)
REMARK    1  A    between atoms: N_4  and  C_5
REMARK    2  A    between atoms: C_14  and  C_20
REMARK    3  A    between atoms: C_15  and  C_16
REMARK    4  A    between atoms: C_24  and  C_25
REMARK    5  A    between atoms: C_27  and  P_28
REMARK                            x       y       z     vdW  Elec       q    Type
REMARK                         _______ _______ _______ _____ _____    ______ ____
ROOT
ATOM      1  C   UNL     1      -0.154   2.392   0.000  0.00  0.00    +0.000 A 
ATOM      2  N   UNL     1       0.560   1.979   0.000  0.00  0.00    +0.000 NA
ATOM      3  C   UNL     1       0.560   1.154   0.000  0.00  0.00    +0.000 A 
ATOM      4  N   UNL     1       1.274   0.742   0.000  0.00  0.00    +0.000 NA
ATOM      5  N   UNL     1      -0.154   0.742   0.000  0.00  0.00    +0.000 NA
ATOM      6  C   UNL     1      -0.869   1.154   0.000  0.00  0.00    +0.000 A 
ATOM      7  C   UNL     1      -0.869   1.979   0.000  0.00  0.00    +0.000 A 
ENDROOT
BRANCH   6   8
ATOM      8  C   UNL     1      -1.583   0.742   0.000  0.00  0.00    +0.000 A 
ATOM      9  C   UNL     1      -1.669  -0.079   0.000  0.00  0.00    +0.000 A 
ATOM     10  C   UNL     1      -1.117  -0.692   0.000  0.00  0.00    +0.000 A 
ATOM     11  C   UNL     1      -1.373  -1.476   0.000  0.00  0.00    +0.000 A 
ATOM     12  C   UNL     1      -2.179  -1.648   0.000  0.00  0.00    +0.000 A 
ATOM     13  C   UNL     1      -2.731  -1.035   0.000  0.00  0.00    +0.000 A 
ATOM     14  C   UNL     1      -2.477  -0.250   0.000  0.00  0.00    +0.000 A 
ATOM     15  N   UNL     1      -2.889   0.464   0.000  0.00  0.00    +0.000 NA
ATOM     16  C   UNL     1      -2.337   1.077   0.000  0.00  0.00    +0.000 A 
BRANCH  13  17
ATOM     17  P   UNL     1      -3.538  -1.206   0.000  0.00  0.00    +0.000 P 
ATOM     18  C   UNL     1      -4.230  -0.757   0.000  0.00  0.00    +0.000 C 
ATOM     19  O   UNL     1      -3.582  -2.030   0.000  0.00  0.00    +0.000 OA
ATOM     20  C   UNL     1      -3.393  -0.572   0.000  0.00  0.00    +0.000 C 
ENDBRANCH  13  17
BRANCH  12  21
ATOM     21  C   UNL     1      -2.434  -2.432   0.000  0.00  0.00    +0.000 C 
ATOM     22  N   UNL     1      -2.689  -3.217   0.000  0.00  0.00    +0.000 NA
ENDBRANCH  12  21
ENDBRANCH   6   8
BRANCH   4  23
ATOM     23  C   UNL     1       1.989   1.154   0.000  0.00  0.00    +0.000 C 
ATOM     24  C   UNL     1       2.703   0.742   0.000  0.00  0.00    +0.000 C 
ATOM     25  N   UNL     1       3.418   1.154   0.000  0.00  0.00    +0.000 NA
ATOM     26  C   UNL     1       3.418   1.979   0.000  0.00  0.00    +0.000 C 
ATOM     27  C   UNL     1       3.700   2.755   0.000  0.00  0.00    +0.000 C 
ATOM     28  C   UNL     1       4.230   1.836   0.000  0.00  0.00    +0.000 C 
ATOM     29  C   UNL     1       2.703   2.392   0.000  0.00  0.00    +0.000 C 
ATOM     30  C   UNL     1       1.989   1.979   0.000  0.00  0.00    +0.000 C 
ENDBRANCH   4  23
BRANCH   7  31
ATOM     31  C   UNL     1      -1.583   2.392   0.000  0.00  0.00    +0.000 C 
ATOM     32  F   UNL     1      -2.298   2.804   0.000  0.00  0.00    +0.000 F 
ATOM     33  F   UNL     1      -1.583   3.217   0.000  0.00  0.00    +0.000 F 
ATOM     34  F   UNL     1      -2.298   1.979   0.000  0.00  0.00    +0.000 F 
ENDBRANCH   7  31
TORSDOF 5
