REMARK  Name = 
REMARK  5 active torsions:
REMARK  status: ('A' for Active; 'I' for Inactive)
REMARK    1  A    between atoms: C_1  and  O_12
REMARK    2  A    between atoms: C_1  and  C_17
REMARK    3  A    between atoms: C_4  and  C_19
REMARK    4  A    between atoms: C_9  and  O_12
REMARK    5  A    between atoms: C_11  and  C_16
REMARK                            x       y       z     vdW  Elec       q    Type
REMARK                         _______ _______ _______ _____ _____    ______ ____
ROOT
ATOM      1  O   UNL     1      -0.089  -0.892   0.000  0.00  0.00    +0.000 OA
ENDROOT
BRANCH   1   5
ATOM      2  C   UNL     1      -2.229   0.358   0.000  0.00  0.00    +0.000 C 
ATOM      3  C   UNL     1      -2.233  -0.467   0.000  0.00  0.00    +0.000 C 
ATOM      4  C   UNL     1      -1.520  -0.885   0.000  0.00  0.00    +0.000 C 
ATOM      5  C   UNL     1      -0.803  -0.474   0.000  0.00  0.00    +0.000 C 
ATOM      6  O   UNL     1      -0.798   0.351   0.000  0.00  0.00    +0.000 OA
ATOM      7  C   UNL     1      -1.512   0.765   0.000  0.00  0.00    +0.000 C 
ATOM      8  O   UNL     1      -1.524  -1.710   0.000  0.00  0.00    +0.000 OA
ATOM      9  O   UNL     1      -2.950  -0.878   0.000  0.00  0.00    +0.000 OA
ATOM     10 CL   UNL     1      -2.942   0.772   0.000  0.00  0.00    +0.000 Cl
BRANCH   7  11
ATOM     11  C   UNL     1      -1.507   1.590   0.000  0.00  0.00    +0.000 C 
ATOM     12  O   UNL     1      -0.790   2.001   0.000  0.00  0.00    +0.000 OA
ENDBRANCH   7  11
ENDBRANCH   1   5
BRANCH   1  13
ATOM     13  C   UNL     1       0.616  -0.473   0.000  0.00  0.00    +0.000 C 
ATOM     14  C   UNL     1       0.827  -1.265   0.000  0.00  0.00    +0.000 C 
ATOM     15  C   UNL     1       1.646  -1.313   0.000  0.00  0.00    +0.000 C 
ATOM     16  C   UNL     1       1.938  -0.547   0.000  0.00  0.00    +0.000 C 
ATOM     17  O   UNL     1       1.304  -0.029   0.000  0.00  0.00    +0.000 OA
ATOM     18  O   UNL     1       2.097  -2.001   0.000  0.00  0.00    +0.000 OA
ATOM     19  O   UNL     1       0.306  -1.907   0.000  0.00  0.00    +0.000 OA
BRANCH  13  20
ATOM     20  C   UNL     1       0.413   0.322   0.000  0.00  0.00    +0.000 C 
ATOM     21 CL   UNL     1       0.819   1.042   0.000  0.00  0.00    +0.000 Cl
ENDBRANCH  13  20
BRANCH  16  22
ATOM     22  C   UNL     1       2.735  -0.331   0.000  0.00  0.00    +0.000 C 
ATOM     23 CL   UNL     1       2.950   0.470   0.000  0.00  0.00    +0.000 Cl
ENDBRANCH  16  22
ENDBRANCH   1  13
TORSDOF 5
