REMARK  Name = 
REMARK  141 active torsions:
REMARK  status: ('A' for Active; 'I' for Inactive)
REMARK    1  A    between atoms: C_1  and  C_2
REMARK    2  A    between atoms: C_1  and  C_243
REMARK    3  A    between atoms: C_2  and  N_3
REMARK    4  A    between atoms: C_2  and  C_90
REMARK    5  A    between atoms: C_4  and  C_5
REMARK    6  A    between atoms: C_5  and  C_6
REMARK    7  A    between atoms: C_5  and  N_14
REMARK    8  A    between atoms: C_6  and  C_7
REMARK    9  A    between atoms: C_15  and  C_16
REMARK   10  A    between atoms: C_16  and  N_17
REMARK   11  A    between atoms: C_16  and  C_84
REMARK   12  A    between atoms: C_18  and  C_19
REMARK   13  A    between atoms: C_19  and  N_20
REMARK   14  A    between atoms: C_19  and  C_79
REMARK   15  A    between atoms: C_21  and  C_23
REMARK   16  A    between atoms: C_27  and  C_28
REMARK   17  A    between atoms: C_28  and  C_29
REMARK   18  A    between atoms: C_38  and  C_39
REMARK   19  A    between atoms: C_39  and  C_40
REMARK   20  A    between atoms: C_40  and  C_41
REMARK   21  A    between atoms: C_41  and  N_42
REMARK   22  A    between atoms: C_49  and  C_50
REMARK   23  A    between atoms: C_50  and  C_51
REMARK   24  A    between atoms: C_51  and  C_52
REMARK   25  A    between atoms: C_57  and  C_74
REMARK   26  A    between atoms: C_60  and  N_69
REMARK   27  A    between atoms: C_79  and  C_80
REMARK   28  A    between atoms: N_91  and  CA_92
REMARK   29  A    between atoms: CA_92  and  C_93
REMARK   30  A    between atoms: CA_92  and  CB_237
REMARK   31  A    between atoms: N_94  and  CA_95
REMARK   32  A    between atoms: CA_95  and  C_96
REMARK   33  A    between atoms: CA_95  and  CB_228
REMARK   34  A    between atoms: CA_99  and  C_100
REMARK   35  A    between atoms: N_101  and  C_102
REMARK   36  A    between atoms: C_102  and  C_103
REMARK   37  A    between atoms: C_102  and  C_218
REMARK   38  A    between atoms: N_104  and  C_105
REMARK   39  A    between atoms: C_105  and  C_106
REMARK   40  A    between atoms: C_105  and  C_214
REMARK   41  A    between atoms: C_106  and  C_107
REMARK   42  A    between atoms: C_107  and  C_108
REMARK   43  A    between atoms: C_108  and  C_109
REMARK   44  A    between atoms: C_109  and  N_110
REMARK   45  A    between atoms: C_111  and  C_112
REMARK   46  A    between atoms: C_112  and  C_113
REMARK   47  A    between atoms: C_113  and  O_114
REMARK   48  A    between atoms: O_114  and  C_115
REMARK   49  A    between atoms: C_115  and  C_116
REMARK   50  A    between atoms: C_116  and  O_117
REMARK   51  A    between atoms: O_117  and  C_118
REMARK   52  A    between atoms: C_118  and  C_119
REMARK   53  A    between atoms: C_119  and  O_120
REMARK   54  A    between atoms: O_120  and  C_121
REMARK   55  A    between atoms: C_121  and  C_122
REMARK   56  A    between atoms: C_122  and  O_123
REMARK   57  A    between atoms: O_123  and  C_124
REMARK   58  A    between atoms: C_124  and  C_125
REMARK   59  A    between atoms: C_125  and  O_126
REMARK   60  A    between atoms: O_126  and  C_127
REMARK   61  A    between atoms: C_127  and  C_128
REMARK   62  A    between atoms: C_128  and  O_129
REMARK   63  A    between atoms: O_129  and  C_130
REMARK   64  A    between atoms: C_130  and  C_131
REMARK   65  A    between atoms: C_131  and  O_132
REMARK   66  A    between atoms: O_132  and  C_133
REMARK   67  A    between atoms: C_133  and  C_134
REMARK   68  A    between atoms: C_134  and  O_135
REMARK   69  A    between atoms: O_135  and  C_136
REMARK   70  A    between atoms: C_136  and  C_137
REMARK   71  A    between atoms: C_137  and  O_138
REMARK   72  A    between atoms: O_138  and  C_139
REMARK   73  A    between atoms: C_139  and  C_140
REMARK   74  A    between atoms: C_140  and  O_141
REMARK   75  A    between atoms: O_141  and  C_142
REMARK   76  A    between atoms: C_142  and  C_143
REMARK   77  A    between atoms: C_143  and  O_144
REMARK   78  A    between atoms: O_144  and  C_145
REMARK   79  A    between atoms: C_145  and  C_146
REMARK   80  A    between atoms: C_146  and  O_147
REMARK   81  A    between atoms: O_147  and  C_148
REMARK   82  A    between atoms: C_148  and  C_149
REMARK   83  A    between atoms: C_149  and  O_150
REMARK   84  A    between atoms: O_150  and  C_151
REMARK   85  A    between atoms: C_151  and  C_152
REMARK   86  A    between atoms: C_152  and  O_153
REMARK   87  A    between atoms: O_153  and  C_154
REMARK   88  A    between atoms: C_154  and  C_155
REMARK   89  A    between atoms: C_155  and  O_156
REMARK   90  A    between atoms: O_156  and  C_157
REMARK   91  A    between atoms: C_157  and  C_158
REMARK   92  A    between atoms: C_158  and  O_159
REMARK   93  A    between atoms: O_159  and  C_160
REMARK   94  A    between atoms: C_160  and  C_161
REMARK   95  A    between atoms: C_161  and  O_162
REMARK   96  A    between atoms: O_162  and  C_163
REMARK   97  A    between atoms: C_163  and  C_164
REMARK   98  A    between atoms: C_164  and  O_165
REMARK   99  A    between atoms: O_165  and  C_166
REMARK  100  A    between atoms: C_166  and  C_167
REMARK  101  A    between atoms: C_167  and  O_168
REMARK  102  A    between atoms: O_168  and  C_169
REMARK  103  A    between atoms: C_169  and  C_170
REMARK  104  A    between atoms: C_170  and  O_171
REMARK  105  A    between atoms: O_171  and  C_172
REMARK  106  A    between atoms: C_172  and  C_173
REMARK  107  A    between atoms: C_173  and  O_174
REMARK  108  A    between atoms: O_174  and  C_175
REMARK  109  A    between atoms: C_175  and  C_176
REMARK  110  A    between atoms: C_176  and  O_177
REMARK  111  A    between atoms: O_177  and  C_178
REMARK  112  A    between atoms: C_178  and  C_179
REMARK  113  A    between atoms: C_179  and  O_180
REMARK  114  A    between atoms: O_180  and  C_181
REMARK  115  A    between atoms: C_181  and  C_182
REMARK  116  A    between atoms: C_182  and  O_183
REMARK  117  A    between atoms: O_183  and  C_184
REMARK  118  A    between atoms: C_184  and  C_185
REMARK  119  A    between atoms: C_185  and  N_186
REMARK  120  A    between atoms: C_187  and  C_189
REMARK  121  A    between atoms: C_189  and  C_190
REMARK  122  A    between atoms: C_190  and  C_191
REMARK  123  A    between atoms: C_191  and  C_192
REMARK  124  A    between atoms: C_191  and  N_195
REMARK  125  A    between atoms: C_196  and  C_197
REMARK  126  A    between atoms: C_197  and  C_198
REMARK  127  A    between atoms: C_198  and  C_199
REMARK  128  A    between atoms: C_199  and  C_200
REMARK  129  A    between atoms: C_200  and  C_201
REMARK  130  A    between atoms: C_201  and  C_202
REMARK  131  A    between atoms: C_202  and  C_203
REMARK  132  A    between atoms: C_203  and  C_204
REMARK  133  A    between atoms: C_204  and  C_205
REMARK  134  A    between atoms: C_205  and  C_206
REMARK  135  A    between atoms: C_206  and  C_207
REMARK  136  A    between atoms: C_207  and  C_208
REMARK  137  A    between atoms: C_208  and  C_209
REMARK  138  A    between atoms: C_209  and  C_210
REMARK  139  A    between atoms: CB_228  and  CG_229
REMARK  140  A    between atoms: CB_237  and  CG_238
REMARK  141  A    between atoms: CG_238  and  CD_239
REMARK                            x       y       z     vdW  Elec       q    Type
REMARK                         _______ _______ _______ _____ _____    ______ ____
ROOT
ATOM      1  C   TYR A   3       3.519  14.897   0.000  0.00  0.00    +0.000 C 
ATOM      2  O   TYR A   3       3.519  15.722   0.000  0.00  0.00    +0.000 OA
ATOM      3  N   PRO A   4       2.812  14.471   0.000  0.00  0.00    +0.000 N 
ATOM      4  CA  PRO A   4       2.742  13.649   0.000  0.00  0.00    +0.000 C 
ATOM      5  CB  PRO A   4       1.939  13.462   0.000  0.00  0.00    +0.000 C 
ATOM      6  CG  PRO A   4       1.512  14.168   0.000  0.00  0.00    +0.000 C 
ATOM      7  CD  PRO A   4       2.053  14.792   0.000  0.00  0.00    +0.000 C 
ENDROOT
BRANCH   4   8
ATOM      8  C   PRO A   4       3.366  13.109   0.000  0.00  0.00    +0.000 C 
ATOM      9  N   UNK A   5       3.210  12.299   0.000  0.00  0.00    +0.000 NA
ATOM     10  O   PRO A   4       4.145  13.379   0.000  0.00  0.00    +0.000 OA
BRANCH   9  11
ATOM     11  C   UNK A   5       2.569  11.778   0.000  0.00  0.00    +0.000 C 
BRANCH  11  12
ATOM     12  C   UNK A   5       2.700  10.964   0.000  0.00  0.00    +0.000 C 
ATOM     13  C   UNK A   5       2.060  10.443   0.000  0.00  0.00    +0.000 C 
ATOM     14  C   UNK A   5       2.190   9.629   0.000  0.00  0.00    +0.000 C 
ATOM     15  C   UNK A   5       2.961   9.335   0.000  0.00  0.00    +0.000 C 
ATOM     16  C   UNK A   5       3.601   9.855   0.000  0.00  0.00    +0.000 C 
ATOM     17  C   UNK A   5       3.471  10.669   0.000  0.00  0.00    +0.000 C 
ENDBRANCH  11  12
BRANCH  11  18
ATOM     18  C   UNK A   5       1.799  12.073   0.000  0.00  0.00    +0.000 C 
ATOM     19  N   UNK A   6       1.159  11.552   0.000  0.00  0.00    +0.000 NA
ATOM     20  O   UNK A   5       1.668  12.887   0.000  0.00  0.00    +0.000 OA
BRANCH  19  21
ATOM     21  C   UNK A   6       0.388  11.847   0.000  0.00  0.00    +0.000 C 
BRANCH  21  22
ATOM     22  C   UNK A   6       0.257  12.661   0.000  0.00  0.00    +0.000 C 
ATOM     23  O   UNK A   6       0.897  13.181   0.000  0.00  0.00    +0.000 OA
ATOM     24  O   UNK A   6      -0.513  12.956   0.000  0.00  0.00    +0.000 OA
ENDBRANCH  21  22
BRANCH  21  25
ATOM     25  C   UNK A   6      -0.252  11.326   0.000  0.00  0.00    +0.000 C 
BRANCH  25  26
ATOM     26  C   UNK A   6      -0.122  10.512   0.000  0.00  0.00    +0.000 C 
BRANCH  26  27
ATOM     27  C   UNK A   6      -0.762   9.991   0.000  0.00  0.00    +0.000 C 
BRANCH  27  28
ATOM     28  C   UNK A   6      -0.631   9.177   0.000  0.00  0.00    +0.000 C 
BRANCH  28  29
ATOM     29  N   UNK A   6      -1.272   8.656   0.000  0.00  0.00    +0.000 NA
ATOM     30  C   UNK A   6      -1.141   7.842   0.000  0.00  0.00    +0.000 C 
ATOM     31  O   UNK A   6      -0.370   7.547   0.000  0.00  0.00    +0.000 OA
BRANCH  30  32
ATOM     32  C   UNK A   6      -1.781   7.321   0.000  0.00  0.00    +0.000 C 
BRANCH  32  33
ATOM     33  C   UNK A   6      -1.651   6.507   0.000  0.00  0.00    +0.000 C 
BRANCH  33  34
ATOM     34  O   UNK A   6      -2.291   5.986   0.000  0.00  0.00    +0.000 OA
BRANCH  34  35
ATOM     35  C   UNK A   6      -2.160   5.172   0.000  0.00  0.00    +0.000 C 
BRANCH  35  36
ATOM     36  C   UNK A   6      -2.801   4.651   0.000  0.00  0.00    +0.000 C 
BRANCH  36  37
ATOM     37  O   UNK A   6      -2.575   3.592   0.000  0.00  0.00    +0.000 OA
BRANCH  37  38
ATOM     38  C   UNK A   6      -2.627   2.785   0.000  0.00  0.00    +0.000 C 
BRANCH  38  39
ATOM     39  C   UNK A   6      -3.265   2.262   0.000  0.00  0.00    +0.000 C 
BRANCH  39  40
ATOM     40  O   UNK A   6      -3.130   1.448   0.000  0.00  0.00    +0.000 OA
BRANCH  40  41
ATOM     41  C   UNK A   6      -3.768   0.924   0.000  0.00  0.00    +0.000 C 
BRANCH  41  42
ATOM     42  C   UNK A   6      -3.634   0.111   0.000  0.00  0.00    +0.000 C 
BRANCH  42  43
ATOM     43  O   UNK A   6      -4.272  -0.413   0.000  0.00  0.00    +0.000 OA
BRANCH  43  44
ATOM     44  C   UNK A   6      -4.138  -1.227   0.000  0.00  0.00    +0.000 C 
BRANCH  44  45
ATOM     45  C   UNK A   6      -4.776  -1.750   0.000  0.00  0.00    +0.000 C 
BRANCH  45  46
ATOM     46  O   UNK A   6      -4.642  -2.564   0.000  0.00  0.00    +0.000 OA
BRANCH  46  47
ATOM     47  C   UNK A   6      -5.280  -3.087   0.000  0.00  0.00    +0.000 C 
BRANCH  47  48
ATOM     48  C   UNK A   6      -5.145  -3.901   0.000  0.00  0.00    +0.000 C 
BRANCH  48  49
ATOM     49  O   UNK A   6      -5.783  -4.424   0.000  0.00  0.00    +0.000 OA
BRANCH  49  50
ATOM     50  C   UNK A   6      -5.649  -5.238   0.000  0.00  0.00    +0.000 C 
BRANCH  50  51
ATOM     51  C   UNK A   6      -6.287  -5.761   0.000  0.00  0.00    +0.000 C 
BRANCH  51  52
ATOM     52  O   UNK A   6      -6.153  -6.576   0.000  0.00  0.00    +0.000 OA
BRANCH  52  53
ATOM     53  C   UNK A   6      -6.791  -7.099   0.000  0.00  0.00    +0.000 C 
BRANCH  53  54
ATOM     54  C   UNK A   6      -6.657  -7.913   0.000  0.00  0.00    +0.000 C 
BRANCH  54  55
ATOM     55  O   UNK A   6      -7.294  -8.436   0.000  0.00  0.00    +0.000 OA
BRANCH  55  56
ATOM     56  C   UNK A   6      -7.160  -9.250   0.000  0.00  0.00    +0.000 C 
BRANCH  56  57
ATOM     57  C   UNK A   6      -7.798  -9.773   0.000  0.00  0.00    +0.000 C 
BRANCH  57  58
ATOM     58  O   UNK A   6      -7.664 -10.587   0.000  0.00  0.00    +0.000 OA
BRANCH  58  59
ATOM     59  C   UNK A   6      -8.302 -11.110   0.000  0.00  0.00    +0.000 C 
BRANCH  59  60
ATOM     60  C   UNK A   6      -8.168 -11.924   0.000  0.00  0.00    +0.000 C 
BRANCH  60  61
ATOM     61  O   UNK A   6      -8.806 -12.448   0.000  0.00  0.00    +0.000 OA
BRANCH  61  62
ATOM     62  C   UNK A   6      -8.672 -13.262   0.000  0.00  0.00    +0.000 C 
BRANCH  62  63
ATOM     63  C   UNK A   6      -9.309 -13.785   0.000  0.00  0.00    +0.000 C 
BRANCH  63  64
ATOM     64  O   UNK A   6      -9.175 -14.599   0.000  0.00  0.00    +0.000 OA
BRANCH  64  65
ATOM     65  C   UNK A   6      -9.813 -15.122   0.000  0.00  0.00    +0.000 C 
BRANCH  65  66
ATOM     66  C   UNK A   6      -9.679 -15.936   0.000  0.00  0.00    +0.000 C 
BRANCH  66  67
ATOM     67  O   UNK A   6     -10.317 -16.459   0.000  0.00  0.00    +0.000 OA
BRANCH  67  68
ATOM     68  C   UNK A   6     -10.183 -17.273   0.000  0.00  0.00    +0.000 C 
BRANCH  68  69
ATOM     69  C   UNK A   6     -10.821 -17.796   0.000  0.00  0.00    +0.000 C 
BRANCH  69  70
ATOM     70  O   UNK A   6     -10.687 -18.610   0.000  0.00  0.00    +0.000 OA
BRANCH  70  71
ATOM     71  C   UNK A   6      -9.915 -18.901   0.000  0.00  0.00    +0.000 C 
BRANCH  71  72
ATOM     72  C   UNK A   6      -9.277 -18.378   0.000  0.00  0.00    +0.000 C 
BRANCH  72  73
ATOM     73  O   UNK A   6      -9.411 -17.564   0.000  0.00  0.00    +0.000 OA
BRANCH  73  74
ATOM     74  C   UNK A   6      -8.773 -17.041   0.000  0.00  0.00    +0.000 C 
BRANCH  74  75
ATOM     75  C   UNK A   6      -8.907 -16.227   0.000  0.00  0.00    +0.000 C 
BRANCH  75  76
ATOM     76  O   UNK A   6      -8.269 -15.704   0.000  0.00  0.00    +0.000 OA
BRANCH  76  77
ATOM     77  C   UNK A   6      -8.403 -14.890   0.000  0.00  0.00    +0.000 C 
BRANCH  77  78
ATOM     78  C   UNK A   6      -7.765 -14.366   0.000  0.00  0.00    +0.000 C 
BRANCH  78  79
ATOM     79  O   UNK A   6      -7.900 -13.552   0.000  0.00  0.00    +0.000 OA
BRANCH  79  80
ATOM     80  C   UNK A   6      -7.262 -13.029   0.000  0.00  0.00    +0.000 C 
BRANCH  80  81
ATOM     81  C   UNK A   6      -7.396 -12.215   0.000  0.00  0.00    +0.000 C 
BRANCH  81  82
ATOM     82  O   UNK A   6      -6.758 -11.692   0.000  0.00  0.00    +0.000 OA
BRANCH  82  83
ATOM     83  C   UNK A   6      -6.892 -10.878   0.000  0.00  0.00    +0.000 C 
BRANCH  83  84
ATOM     84  C   UNK A   6      -6.254 -10.355   0.000  0.00  0.00    +0.000 C 
BRANCH  84  85
ATOM     85  O   UNK A   6      -6.388  -9.541   0.000  0.00  0.00    +0.000 OA
BRANCH  85  86
ATOM     86  C   UNK A   6      -5.750  -9.018   0.000  0.00  0.00    +0.000 C 
BRANCH  86  87
ATOM     87  C   UNK A   6      -5.885  -8.204   0.000  0.00  0.00    +0.000 C 
BRANCH  87  88
ATOM     88  O   UNK A   6      -5.247  -7.680   0.000  0.00  0.00    +0.000 OA
BRANCH  88  89
ATOM     89  C   UNK A   6      -5.381  -6.866   0.000  0.00  0.00    +0.000 C 
BRANCH  89  90
ATOM     90  C   UNK A   6      -4.743  -6.343   0.000  0.00  0.00    +0.000 C 
BRANCH  90  91
ATOM     91  O   UNK A   6      -4.877  -5.529   0.000  0.00  0.00    +0.000 OA
BRANCH  91  92
ATOM     92  C   UNK A   6      -4.239  -5.006   0.000  0.00  0.00    +0.000 C 
BRANCH  92  93
ATOM     93  C   UNK A   6      -4.373  -4.192   0.000  0.00  0.00    +0.000 C 
BRANCH  93  94
ATOM     94  O   UNK A   6      -3.559  -4.058   0.000  0.00  0.00    +0.000 OA
BRANCH  94  95
ATOM     95  C   UNK A   6      -3.036  -4.696   0.000  0.00  0.00    +0.000 C 
BRANCH  95  96
ATOM     96  C   UNK A   6      -2.222  -4.561   0.000  0.00  0.00    +0.000 C 
BRANCH  96  97
ATOM     97  O   UNK A   6      -1.699  -5.199   0.000  0.00  0.00    +0.000 OA
BRANCH  97  98
ATOM     98  C   UNK A   6      -0.885  -5.065   0.000  0.00  0.00    +0.000 C 
BRANCH  98  99
ATOM     99  C   UNK A   6      -0.362  -5.703   0.000  0.00  0.00    +0.000 C 
BRANCH  99 100
ATOM    100  O   UNK A   6       0.452  -5.569   0.000  0.00  0.00    +0.000 OA
BRANCH 100 101
ATOM    101  C   UNK A   6       0.975  -6.207   0.000  0.00  0.00    +0.000 C 
BRANCH 101 102
ATOM    102  C   UNK A   6       1.790  -6.073   0.000  0.00  0.00    +0.000 C 
BRANCH 102 103
ATOM    103  O   UNK A   6       2.313  -6.711   0.000  0.00  0.00    +0.000 OA
BRANCH 103 104
ATOM    104  C   UNK A   6       1.673  -7.231   0.000  0.00  0.00    +0.000 C 
BRANCH 104 105
ATOM    105  C   UNK A   1       1.803  -8.046   0.000  0.00  0.00    +0.000 C 
BRANCH 105 106
ATOM    106  N   UNK A   1       1.163  -8.566   0.000  0.00  0.00    +0.000 NA
ATOM    107  C   UNK A   1       1.293  -9.381   0.000  0.00  0.00    +0.000 C 
ATOM    108  O   UNK A   1       2.064  -9.675   0.000  0.00  0.00    +0.000 OA
BRANCH 107 109
ATOM    109  C   UNK A   1       0.653  -9.901   0.000  0.00  0.00    +0.000 C 
BRANCH 109 110
ATOM    110  C   UNK A   1       0.784 -10.716   0.000  0.00  0.00    +0.000 C 
BRANCH 110 111
ATOM    111  C   UNK A   1       0.143 -11.236   0.000  0.00  0.00    +0.000 C 
BRANCH 111 112
ATOM    112  C   UNK A   1       0.274 -12.050   0.000  0.00  0.00    +0.000 C 
ATOM    113  O   UNK A   1       1.045 -12.345   0.000  0.00  0.00    +0.000 OA
ATOM    114  O   UNK A   1      -0.366 -12.571   0.000  0.00  0.00    +0.000 OA
ENDBRANCH 111 112
BRANCH 111 115
ATOM    115  N   UNK A   1      -0.627 -10.942   0.000  0.00  0.00    +0.000 NA
ATOM    116  C   UNK A   0      -1.267 -11.462   0.000  0.00  0.00    +0.000 C 
ATOM    117  O   UNK A   0      -2.038 -11.168   0.000  0.00  0.00    +0.000 OA
BRANCH 116 118
ATOM    118  C   UNK A   0      -1.137 -12.277   0.000  0.00  0.00    +0.000 C 
BRANCH 118 119
ATOM    119  C   UNK A   0      -1.777 -12.797   0.000  0.00  0.00    +0.000 C 
BRANCH 119 120
ATOM    120  C   UNK A   0      -1.647 -13.611   0.000  0.00  0.00    +0.000 C 
BRANCH 120 121
ATOM    121  C   UNK A   0      -2.287 -14.132   0.000  0.00  0.00    +0.000 C 
BRANCH 121 122
ATOM    122  C   UNK A   0      -2.156 -14.946   0.000  0.00  0.00    +0.000 C 
BRANCH 122 123
ATOM    123  C   UNK A   0      -2.796 -15.467   0.000  0.00  0.00    +0.000 C 
BRANCH 123 124
ATOM    124  C   UNK A   0      -2.666 -16.281   0.000  0.00  0.00    +0.000 C 
BRANCH 124 125
ATOM    125  C   UNK A   0      -3.306 -16.802   0.000  0.00  0.00    +0.000 C 
BRANCH 125 126
ATOM    126  C   UNK A   0      -3.176 -17.616   0.000  0.00  0.00    +0.000 C 
BRANCH 126 127
ATOM    127  C   UNK A   0      -3.816 -18.137   0.000  0.00  0.00    +0.000 C 
BRANCH 127 128
ATOM    128  C   UNK A   0      -3.685 -18.951   0.000  0.00  0.00    +0.000 C 
BRANCH 128 129
ATOM    129  C   UNK A   0      -4.326 -19.472   0.000  0.00  0.00    +0.000 C 
BRANCH 129 130
ATOM    130  C   UNK A   0      -4.195 -20.286   0.000  0.00  0.00    +0.000 C 
BRANCH 130 131
ATOM    131  C   UNK A   0      -4.916 -20.688   0.000  0.00  0.00    +0.000 C 
ATOM    132  C   UNK A   0      -4.916 -21.512   0.000  0.00  0.00    +0.000 C 
ENDBRANCH 130 131
ENDBRANCH 129 130
ENDBRANCH 128 129
ENDBRANCH 127 128
ENDBRANCH 126 127
ENDBRANCH 125 126
ENDBRANCH 124 125
ENDBRANCH 123 124
ENDBRANCH 122 123
ENDBRANCH 121 122
ENDBRANCH 120 121
ENDBRANCH 119 120
ENDBRANCH 118 119
ENDBRANCH 116 118
ENDBRANCH 111 115
ENDBRANCH 110 111
ENDBRANCH 109 110
ENDBRANCH 107 109
ENDBRANCH 105 106
ENDBRANCH 104 105
ENDBRANCH 103 104
ENDBRANCH 102 103
ENDBRANCH 101 102
ENDBRANCH 100 101
ENDBRANCH  99 100
ENDBRANCH  98  99
ENDBRANCH  97  98
ENDBRANCH  96  97
ENDBRANCH  95  96
ENDBRANCH  94  95
ENDBRANCH  93  94
ENDBRANCH  92  93
ENDBRANCH  91  92
ENDBRANCH  90  91
ENDBRANCH  89  90
ENDBRANCH  88  89
ENDBRANCH  87  88
ENDBRANCH  86  87
ENDBRANCH  85  86
ENDBRANCH  84  85
ENDBRANCH  83  84
ENDBRANCH  82  83
ENDBRANCH  81  82
ENDBRANCH  80  81
ENDBRANCH  79  80
ENDBRANCH  78  79
ENDBRANCH  77  78
ENDBRANCH  76  77
ENDBRANCH  75  76
ENDBRANCH  74  75
ENDBRANCH  73  74
ENDBRANCH  72  73
ENDBRANCH  71  72
ENDBRANCH  70  71
ENDBRANCH  69  70
ENDBRANCH  68  69
ENDBRANCH  67  68
ENDBRANCH  66  67
ENDBRANCH  65  66
ENDBRANCH  64  65
ENDBRANCH  63  64
ENDBRANCH  62  63
ENDBRANCH  61  62
ENDBRANCH  60  61
ENDBRANCH  59  60
ENDBRANCH  58  59
ENDBRANCH  57  58
ENDBRANCH  56  57
ENDBRANCH  55  56
ENDBRANCH  54  55
ENDBRANCH  53  54
ENDBRANCH  52  53
ENDBRANCH  51  52
ENDBRANCH  50  51
ENDBRANCH  49  50
ENDBRANCH  48  49
ENDBRANCH  47  48
ENDBRANCH  46  47
ENDBRANCH  45  46
ENDBRANCH  44  45
ENDBRANCH  43  44
ENDBRANCH  42  43
ENDBRANCH  41  42
ENDBRANCH  40  41
ENDBRANCH  39  40
ENDBRANCH  38  39
ENDBRANCH  37  38
ENDBRANCH  36  37
ENDBRANCH  35  36
ENDBRANCH  34  35
ENDBRANCH  33  34
ENDBRANCH  32  33
ENDBRANCH  30  32
ENDBRANCH  28  29
ENDBRANCH  27  28
ENDBRANCH  26  27
ENDBRANCH  25  26
ENDBRANCH  21  25
ENDBRANCH  19  21
ENDBRANCH  11  18
ENDBRANCH   9  11
ENDBRANCH   4   8
BRANCH   1 133
ATOM    133  CA  TYR A   3       4.241  14.498   0.000  0.00  0.00    +0.000 C 
BRANCH 133 135
ATOM    134  C   GLU A   2       4.932  15.749   0.000  0.00  0.00    +0.000 C 
ATOM    135  N   TYR A   3       4.932  14.925   0.000  0.00  0.00    +0.000 NA
ATOM    136  O   GLU A   2       4.210  16.148   0.000  0.00  0.00    +0.000 OA
BRANCH 134 137
ATOM    137  CA  GLU A   2       5.638  16.175   0.000  0.00  0.00    +0.000 C 
BRANCH 137 139
ATOM    138  C   UNK A   1       7.038  16.203   0.000  0.00  0.00    +0.000 C 
ATOM    139  N   GLU A   2       6.361  15.777   0.000  0.00  0.00    +0.000 NA
ATOM    140  O   UNK A   1       7.789  15.804   0.000  0.00  0.00    +0.000 OA
BRANCH 138 141
ATOM    141  C   UNK A   1       7.038  17.706   0.000  0.00  0.00    +0.000 C 
BRANCH 141 142
ATOM    142  N   UNK A   1       5.722  18.433   0.000  0.00  0.00    +0.000 NA
ATOM    143  C   UNK A   1       5.015  18.007   0.000  0.00  0.00    +0.000 C 
ATOM    144  O   UNK A   1       5.015  17.182   0.000  0.00  0.00    +0.000 OA
BRANCH 143 145
ATOM    145  C   UNK A   1       4.293  18.406   0.000  0.00  0.00    +0.000 C 
BRANCH 145 146
ATOM    146  N   UNK A   1       3.587  17.979   0.000  0.00  0.00    +0.000 NA
ATOM    147  C   UNK A   1       2.864  18.378   0.000  0.00  0.00    +0.000 C 
ATOM    148  O   UNK A   1       2.864  19.203   0.000  0.00  0.00    +0.000 OA
BRANCH 147 149
ATOM    149  C   UNK A   1       2.174  17.952   0.000  0.00  0.00    +0.000 C 
BRANCH 149 150
ATOM    150  C   UNK A   1       2.174  17.127   0.000  0.00  0.00    +0.000 C 
ATOM    151  C   UNK A   1       1.467  16.701   0.000  0.00  0.00    +0.000 C 
ATOM    152  C   UNK A   1       2.174  16.302   0.000  0.00  0.00    +0.000 C 
ATOM    153  C   UNK A   1       2.896  16.728   0.000  0.00  0.00    +0.000 C 
ENDBRANCH 149 150
BRANCH 149 154
ATOM    154  N   UNK A   1       1.436  18.351   0.000  0.00  0.00    +0.000 NA
ATOM    155  C   UNK A   1       0.729  17.924   0.000  0.00  0.00    +0.000 C 
ATOM    156  O   UNK A   1       0.729  17.099   0.000  0.00  0.00    +0.000 OA
BRANCH 155 157
ATOM    157  C   UNK A   1       0.007  18.323   0.000  0.00  0.00    +0.000 C 
BRANCH 157 158
ATOM    158  N   UNK A   1      -0.699  17.897   0.000  0.00  0.00    +0.000 N 
ATOM    159  C   UNK A   1      -1.422  18.296   0.000  0.00  0.00    +0.000 C 
ATOM    160  O   UNK A   1      -1.422  19.120   0.000  0.00  0.00    +0.000 OA
ATOM    161  C   UNK A   0      -0.699  17.072   0.000  0.00  0.00    +0.000 C 
BRANCH 159 162
ATOM    162  C   UNK A   1      -2.128  17.869   0.000  0.00  0.00    +0.000 C 
ATOM    163  N   UNK A   1      -2.850  18.268   0.000  0.00  0.00    +0.000 NA
ATOM    164  C   UNK A   1      -3.557  17.842   0.000  0.00  0.00    +0.000 C 
ATOM    165  O   UNK A   1      -3.557  18.667   0.000  0.00  0.00    +0.000 OA
ATOM    166  C   UNK A   1      -4.279  18.241   0.000  0.00  0.00    +0.000 C 
ATOM    167  N   UNK A   1      -4.986  17.814   0.000  0.00  0.00    +0.000 NA
ATOM    168  C   UNK A   1      -5.708  18.213   0.000  0.00  0.00    +0.000 C 
ATOM    169  O   UNK A   1      -5.708  19.038   0.000  0.00  0.00    +0.000 OA
ATOM    170  C   UNK A   1      -6.414  17.787   0.000  0.00  0.00    +0.000 C 
ATOM    171  N   UNK A   1      -7.136  18.185   0.000  0.00  0.00    +0.000 NA
ATOM    172  C   UNK A   1      -7.843  17.759   0.000  0.00  0.00    +0.000 C 
ATOM    173  O   UNK A   1      -7.797  18.583   0.000  0.00  0.00    +0.000 OA
ATOM    174  C   UNK A   1      -8.498  18.261   0.000  0.00  0.00    +0.000 C 
ATOM    175  N   UNK A   1      -9.298  18.062   0.000  0.00  0.00    +0.000 NA
ATOM    176  C   UNK A   1      -9.642  17.312   0.000  0.00  0.00    +0.000 C 
ATOM    177  C   UNK A   1      -9.270  16.576   0.000  0.00  0.00    +0.000 C 
ATOM    178  N   UNK A   1      -8.462  16.408   0.000  0.00  0.00    +0.000 NA
ATOM    179  C   UNK A   1      -7.827  16.934   0.000  0.00  0.00    +0.000 C 
ATOM    180  C   UNK A   1      -7.105  16.536   0.000  0.00  0.00    +0.000 C 
ATOM    181  C   UNK A   1      -6.398  16.962   0.000  0.00  0.00    +0.000 C 
ATOM    182  C   UNK A   1      -5.676  16.563   0.000  0.00  0.00    +0.000 C 
ATOM    183  C   UNK A   1      -4.970  16.989   0.000  0.00  0.00    +0.000 C 
ATOM    184  C   UNK A   1      -4.247  16.591   0.000  0.00  0.00    +0.000 C 
ATOM    185  N   UNK A   1      -3.541  17.017   0.000  0.00  0.00    +0.000 NA
ATOM    186  C   UNK A   1      -2.819  16.618   0.000  0.00  0.00    +0.000 C 
ATOM    187  C   UNK A   1      -2.128  17.044   0.000  0.00  0.00    +0.000 C 
ATOM    188  O   UNK A   1      -2.819  15.793   0.000  0.00  0.00    +0.000 OA
ATOM    189  O   UNK A   1      -7.750  16.113   0.000  0.00  0.00    +0.000 OA
ATOM    190  O   UNK A   1     -10.467  17.312   0.000  0.00  0.00    +0.000 OA
BRANCH 180 191
ATOM    191  N   UNK A   1      -7.105  15.711   0.000  0.00  0.00    +0.000 NA
ATOM    192  C   UNK A   0      -7.795  15.284   0.000  0.00  0.00    +0.000 C 
ATOM    193  C   UNK A   0      -8.518  15.683   0.000  0.00  0.00    +0.000 C 
ATOM    194  O   UNK A   0      -7.795  14.460   0.000  0.00  0.00    +0.000 OA
ENDBRANCH 180 191
BRANCH 177 195
ATOM    195  C   UNK A   1      -9.771  15.921   0.000  0.00  0.00    +0.000 C 
ATOM    196  C   UNK A   1     -10.589  16.028   0.000  0.00  0.00    +0.000 C 
ATOM    197  C   UNK A   1      -9.455  15.159   0.000  0.00  0.00    +0.000 C 
ENDBRANCH 177 195
BRANCH 174 198
ATOM    198  C   UNK A   1      -8.330  19.069   0.000  0.00  0.00    +0.000 C 
BRANCH 198 199
ATOM    199  C   UNK A   1      -8.945  19.618   0.000  0.00  0.00    +0.000 C 
BRANCH 199 200
ATOM    200  C   UNK A   1      -9.729  19.360   0.000  0.00  0.00    +0.000 C 
ATOM    201  O   UNK A   1     -10.344  19.909   0.000  0.00  0.00    +0.000 OA
ATOM    202  O   UNK A   1      -9.897  18.552   0.000  0.00  0.00    +0.000 OA
ENDBRANCH 199 200
ENDBRANCH 198 199
ENDBRANCH 174 198
BRANCH 170 203
ATOM    203  C   UNK A   1      -6.414  18.612   0.000  0.00  0.00    +0.000 C 
BRANCH 203 204
ATOM    204  C   UNK A   1      -7.152  19.010   0.000  0.00  0.00    +0.000 C 
BRANCH 204 205
ATOM    205  C   UNK A   1      -7.152  19.835   0.000  0.00  0.00    +0.000 C 
BRANCH 205 206
ATOM    206  N   UNK A   1      -6.478  20.261   0.000  0.00  0.00    +0.000 NA
ATOM    207  C   UNK A   1      -6.478  21.086   0.000  0.00  0.00    +0.000 C 
ATOM    208  N   UNK A   1      -5.771  21.512   0.000  0.00  0.00    +0.000 NA
ATOM    209  N   UNK A   1      -7.200  21.485   0.000  0.00  0.00    +0.000 NA
ENDBRANCH 205 206
ENDBRANCH 204 205
ENDBRANCH 203 204
ENDBRANCH 170 203
BRANCH 166 210
ATOM    210  C   UNK A   1      -4.279  19.065   0.000  0.00  0.00    +0.000 C 
BRANCH 210 211
ATOM    211  C   UNK A   1      -3.589  19.492   0.000  0.00  0.00    +0.000 A 
ATOM    212  C   UNK A   1      -2.866  19.093   0.000  0.00  0.00    +0.000 A 
ATOM    213  C   UNK A   1      -2.160  19.519   0.000  0.00  0.00    +0.000 A 
ATOM    214  C   UNK A   1      -2.160  20.344   0.000  0.00  0.00    +0.000 A 
ATOM    215  C   UNK A   1      -2.898  20.743   0.000  0.00  0.00    +0.000 A 
ATOM    216  C   UNK A   1      -3.589  20.317   0.000  0.00  0.00    +0.000 A 
ENDBRANCH 210 211
ENDBRANCH 166 210
ENDBRANCH 159 162
ENDBRANCH 157 158
BRANCH 157 217
ATOM    217  C   UNK A   1       0.007  19.148   0.000  0.00  0.00    +0.000 C 
BRANCH 217 218
ATOM    218  C   UNK A   1       0.697  19.574   0.000  0.00  0.00    +0.000 C 
ATOM    219  O   UNK A   1       1.420  19.175   0.000  0.00  0.00    +0.000 OA
ATOM    220  O   UNK A   1       0.697  20.399   0.000  0.00  0.00    +0.000 OA
ENDBRANCH 217 218
ENDBRANCH 157 217
ENDBRANCH 155 157
ENDBRANCH 149 154
ENDBRANCH 147 149
ENDBRANCH 145 146
BRANCH 145 221
ATOM    221  C   UNK A   1       4.293  19.230   0.000  0.00  0.00    +0.000 C 
BRANCH 221 222
ATOM    222  C   UNK A   1       4.984  19.657   0.000  0.00  0.00    +0.000 A 
ATOM    223  C   UNK A   1       4.984  20.481   0.000  0.00  0.00    +0.000 A 
ATOM    224  C   UNK A   1       5.674  20.907   0.000  0.00  0.00    +0.000 A 
ATOM    225  C   UNK A   1       6.396  20.509   0.000  0.00  0.00    +0.000 A 
ATOM    226  C   UNK A   1       6.396  19.684   0.000  0.00  0.00    +0.000 A 
ATOM    227  C   UNK A   1       5.706  19.258   0.000  0.00  0.00    +0.000 A 
ATOM    228  O   UNK A   1       7.103  20.935   0.000  0.00  0.00    +0.000 OA
ENDBRANCH 221 222
ENDBRANCH 145 221
ENDBRANCH 143 145
ENDBRANCH 141 142
BRANCH 141 229
ATOM    229  C   UNK A   1       7.744  18.133   0.000  0.00  0.00    +0.000 C 
BRANCH 229 230
ATOM    230  C   UNK A   1       8.467  17.734   0.000  0.00  0.00    +0.000 A 
ATOM    231  C   UNK A   1       9.214  18.084   0.000  0.00  0.00    +0.000 A 
ATOM    232  C   UNK A   1       9.777  17.481   0.000  0.00  0.00    +0.000 A 
ATOM    233  N   UNK A   1       9.379  16.759   0.000  0.00  0.00    +0.000 NA
ATOM    234  C   UNK A   1       8.569  16.915   0.000  0.00  0.00    +0.000 A 
ATOM    235  N   UNK A   1      10.581  17.669   0.000  0.00  0.00    +0.000 NA
ATOM    236  C   UNK A   1      10.821  18.458   0.000  0.00  0.00    +0.000 A 
ATOM    237  C   UNK A   1      10.257  19.060   0.000  0.00  0.00    +0.000 A 
ATOM    238  C   UNK A   1       9.454  18.873   0.000  0.00  0.00    +0.000 A 
ENDBRANCH 229 230
ENDBRANCH 141 229
ENDBRANCH 138 141
ENDBRANCH 137 139
BRANCH 137 239
ATOM    239  CB  GLU A   2       5.638  17.000   0.000  0.00  0.00    +0.000 C 
BRANCH 239 240
ATOM    240  CG  GLU A   2       4.916  16.574   0.000  0.00  0.00    +0.000 C 
BRANCH 240 241
ATOM    241  CD  GLU A   2       4.194  16.973   0.000  0.00  0.00    +0.000 C 
ATOM    242  OE1 GLU A   2       3.487  16.547   0.000  0.00  0.00    +0.000 OA
ATOM    243  OE2 GLU A   2       4.194  17.798   0.000  0.00  0.00    +0.000 OA
ENDBRANCH 240 241
ENDBRANCH 239 240
ENDBRANCH 137 239
ENDBRANCH 134 137
ENDBRANCH 133 135
BRANCH 133 244
ATOM    244  CB  TYR A   3       4.241  13.673   0.000  0.00  0.00    +0.000 C 
BRANCH 244 245
ATOM    245  CG  TYR A   3       4.979  13.275   0.000  0.00  0.00    +0.000 A 
ATOM    246  CD1 TYR A   3       4.979  12.450   0.000  0.00  0.00    +0.000 A 
ATOM    247  CE1 TYR A   3       5.717  12.051   0.000  0.00  0.00    +0.000 A 
ATOM    248  CZ  TYR A   3       6.424  12.478   0.000  0.00  0.00    +0.000 A 
ATOM    249  CE2 TYR A   3       6.424  13.302   0.000  0.00  0.00    +0.000 A 
ATOM    250  CD2 TYR A   3       5.686  13.701   0.000  0.00  0.00    +0.000 A 
ATOM    251  OH  TYR A   3       7.146  12.079   0.000  0.00  0.00    +0.000 OA
ENDBRANCH 244 245
ENDBRANCH 133 244
ENDBRANCH   1 133
TORSDOF 141
