REMARK  Name = 
REMARK  2 active torsions:
REMARK  status: ('A' for Active; 'I' for Inactive)
REMARK    1  A    between atoms: N_11  and  C1*_12
REMARK    2  A    between atoms: C4*_15  and  C5*_17
REMARK                            x       y       z     vdW  Elec       q    Type
REMARK                         _______ _______ _______ _____ _____    ______ ____
ROOT
ATOM      1  O   UNL     1      -0.184   2.633   0.000  0.00  0.00    +0.000 OA
ATOM      2  N   UNL     1       1.058   1.560   0.000  0.00  0.00    +0.000 NA
ATOM      3  N   UNL     1      -0.380  -0.026   0.000  0.00  0.00    +0.000 NA
ATOM      4  N   UNL     1      -1.538   0.910   0.000  0.00  0.00    +0.000 NA
ATOM      5  C   UNL     1       0.270   0.487   0.000  0.00  0.00    +0.000 A 
ATOM      6  C   UNL     1       0.275   1.312   0.000  0.00  0.00    +0.000 A 
ATOM      7  C   UNL     1       1.533   0.894   0.000  0.00  0.00    +0.000 A 
ATOM      8  C   UNL     1      -0.369   1.830   0.000  0.00  0.00    +0.000 C 
ATOM      9  C   UNL     1      -1.178   1.650   0.000  0.00  0.00    +0.000 C 
ATOM     10  C   UNL     1      -1.183   0.159   0.000  0.00  0.00    +0.000 C 
ATOM     11  N   UNL     1       1.047   0.228   0.000  0.00  0.00    +0.000 N 
ENDROOT
BRANCH  11  12
ATOM     12  C1* UNL     1       1.047  -0.597   0.000  0.00  0.00    +0.000 C 
ATOM     13  C3* UNL     1       0.540  -1.828   0.000  0.00  0.00    +0.000 C 
ATOM     14  C2* UNL     1       1.243  -1.400   0.000  0.00  0.00    +0.000 C 
ATOM     15  C4* UNL     1      -0.089  -1.294   0.000  0.00  0.00    +0.000 C 
ATOM     16  O4* UNL     1       0.228  -0.533   0.000  0.00  0.00    +0.000 OA
ATOM     17  O3* UNL     1       0.471  -2.653   0.000  0.00  0.00    +0.000 OA
BRANCH  15  18
ATOM     18  C5* UNL     1      -0.893  -1.485   0.000  0.00  0.00    +0.000 C 
ATOM     19  O5* UNL     1      -1.125  -2.278   0.000  0.00  0.00    +0.000 OA
ENDBRANCH  15  18
ENDBRANCH  11  12
TORSDOF 2
