REMARK  Name = 
REMARK  0 active torsions:
REMARK  status: ('A' for Active; 'I' for Inactive)
REMARK                            x       y       z     vdW  Elec       q    Type
REMARK                         _______ _______ _______ _____ _____    ______ ____
ROOT
ATOM      1  P   UNL     1       0.000   0.000   0.000  0.00  0.00    +0.000 P 
ATOM      2  O   UNL     1       0.715   0.412   0.000  0.00  0.00    +0.000 OA
ATOM      3  O   UNL     1      -0.715  -0.412   0.000  0.00  0.00    +0.000 OA
ATOM      4  O   UNL     1      -0.412   0.715   0.000  0.00  0.00    +0.000 OA
ATOM      5  O   UNL     1       0.412  -0.715   0.000  0.00  0.00    +0.000 OA
ENDROOT
TORSDOF 0
