REMARK  Name = 
REMARK  5 active torsions:
REMARK  status: ('A' for Active; 'I' for Inactive)
REMARK    1  A    between atoms: C_3  and  O_26
REMARK    2  A    between atoms: C_11  and  O_15
REMARK    3  A    between atoms: C_12  and  O_15
REMARK    4  A    between atoms: C_18  and  O_32
REMARK    5  A    between atoms: C_24  and  O_34
REMARK                            x       y       z     vdW  Elec       q    Type
REMARK                         _______ _______ _______ _____ _____    ______ ____
ROOT
ATOM      1  C   UNL     1      -2.126   1.046   0.000  0.00  0.00    +0.000 C 
ATOM      2  C   UNL     1      -0.712   1.046   0.000  0.00  0.00    +0.000 C 
ATOM      3  C   UNL     1      -2.126   1.861   0.000  0.00  0.00    +0.000 C 
ATOM      4  C   UNL     1      -1.419   0.643   0.000  0.00  0.00    +0.000 C 
ATOM      5  N   UNL     1      -0.005   0.643   0.000  0.00  0.00    +0.000 NA
ATOM      6  C   UNL     1      -0.712   1.861   0.000  0.00  0.00    +0.000 C 
ATOM      7  C   UNL     1      -1.419   2.274   0.000  0.00  0.00    +0.000 C 
ATOM      8  C   UNL     1       0.702   1.046   0.000  0.00  0.00    +0.000 C 
ATOM      9  C   UNL     1       0.034  -2.667   0.000  0.00  0.00    +0.000 C 
ATOM     10  C   UNL     1      -0.682  -3.069   0.000  0.00  0.00    +0.000 C 
ATOM     11  C   UNL     1       1.429  -2.667   0.000  0.00  0.00    +0.000 C 
ATOM     12  C   UNL     1       1.429   0.643   0.000  0.00  0.00    +0.000 C 
ATOM     13  C   UNL     1      -1.419  -2.657   0.000  0.00  0.00    +0.000 C 
ATOM     14  C   UNL     1      -2.843   0.643   0.000  0.00  0.00    +0.000 C 
ATOM     15  C   UNL     1      -1.429  -1.841   0.000  0.00  0.00    +0.000 C 
ATOM     16  C   UNL     1      -2.126  -1.429   0.000  0.00  0.00    +0.000 C 
ATOM     17  C   UNL     1       2.136  -0.604   0.000  0.00  0.00    +0.000 C 
ATOM     18  O   UNL     1      -1.419  -0.162   0.000  0.00  0.00    +0.000 OA
ATOM     19  C   UNL     1       1.429  -0.192   0.000  0.00  0.00    +0.000 C 
ATOM     20  O   UNL     1       0.702   1.861   0.000  0.00  0.00    +0.000 OA
ATOM     21  O   UNL     1      -1.419   3.099   0.000  0.00  0.00    +0.000 OA
ATOM     22  C   UNL     1       1.429  -1.841   0.000  0.00  0.00    +0.000 C 
ATOM     23  C   UNL     1      -2.126  -0.604   0.000  0.00  0.00    +0.000 C 
ATOM     24  C   UNL     1       2.136  -1.429   0.000  0.00  0.00    +0.000 C 
ATOM     25  C   UNL     1      -2.843  -0.192   0.000  0.00  0.00    +0.000 C 
ATOM     26  O   UNL     1      -0.682  -1.429   0.000  0.00  0.00    +0.000 OA
ATOM     27  C   UNL     1       0.044  -1.841   0.000  0.00  0.00    +0.000 C 
ATOM     28  C   UNL     1       2.136   1.046   0.000  0.00  0.00    +0.000 C 
ATOM     29  C   UNL     1      -2.146  -3.059   0.000  0.00  0.00    +0.000 C 
ATOM     30  C   UNL     1      -3.560  -0.614   0.000  0.00  0.00    +0.000 C 
ENDROOT
BRANCH   3  31
ATOM     31  O   UNL     1      -2.843   2.284   0.000  0.00  0.00    +0.000 OA
ATOM     32  C   UNL     1      -3.564   1.871   0.000  0.00  0.00    +0.000 C 
ENDBRANCH   3  31
BRANCH  16  33
ATOM     33  O   UNL     1      -2.843  -1.851   0.000  0.00  0.00    +0.000 OA
ATOM     34  C   UNL     1      -3.590  -1.429   0.000  0.00  0.00    +0.000 C 
ENDBRANCH  16  33
BRANCH  22  35
ATOM     35  O   UNL     1       0.702  -1.419   0.000  0.00  0.00    +0.000 OA
ATOM     36  C   UNL     1       0.702  -0.604   0.000  0.00  0.00    +0.000 C 
ENDBRANCH  22  35
BRANCH  11  37
ATOM     37  O   UNL     1       2.146  -3.079   0.000  0.00  0.00    +0.000 OA
BRANCH  37  38
ATOM     38  C   UNL     1       2.873  -2.676   0.000  0.00  0.00    +0.000 C 
ATOM     39  O   UNL     1       2.873  -1.841   0.000  0.00  0.00    +0.000 OA
ATOM     40  N   UNL     1       3.590  -3.099   0.000  0.00  0.00    +0.000 NA
ENDBRANCH  37  38
ENDBRANCH  11  37
TORSDOF 5
