REMARK  Name = 
REMARK  35 active torsions:
REMARK  status: ('A' for Active; 'I' for Inactive)
REMARK    1  A    between atoms: C_2  and  C_4
REMARK    2  A    between atoms: C_4  and  C_5
REMARK    3  A    between atoms: C_5  and  C_6
REMARK    4  A    between atoms: C_6  and  N_7
REMARK    5  A    between atoms: C_6  and  C_65
REMARK    6  A    between atoms: N_10  and  C_11
REMARK    7  A    between atoms: C_11  and  C_12
REMARK    8  A    between atoms: C_11  and  C_62
REMARK    9  A    between atoms: C_12  and  C_13
REMARK   10  A    between atoms: C_13  and  C_14
REMARK   11  A    between atoms: C_14  and  C_15
REMARK   12  A    between atoms: C_15  and  N_16
REMARK   13  A    between atoms: C_17  and  C_19
REMARK   14  A    between atoms: C_19  and  C_20
REMARK   15  A    between atoms: C_20  and  C_21
REMARK   16  A    between atoms: C_21  and  C_22
REMARK   17  A    between atoms: C_22  and  C_23
REMARK   18  A    between atoms: C_23  and  N_24
REMARK   19  A    between atoms: C_25  and  C_27
REMARK   20  A    between atoms: C_27  and  C_28
REMARK   21  A    between atoms: C_28  and  C_29
REMARK   22  A    between atoms: C_34  and  C_35
REMARK   23  A    between atoms: C_35  and  N_36
REMARK   24  A    between atoms: N_36  and  C_37
REMARK   25  A    between atoms: N_36  and  C_57
REMARK   26  A    between atoms: C_37  and  C_38
REMARK   27  A    between atoms: C_38  and  N_39
REMARK   28  A    between atoms: N_39  and  C_40
REMARK   29  A    between atoms: N_39  and  C_44
REMARK   30  A    between atoms: C_40  and  C_41
REMARK   31  A    between atoms: C_44  and  C_45
REMARK   32  A    between atoms: C_47  and  C_48
REMARK   33  A    between atoms: C_48  and  C_49
REMARK   34  A    between atoms: C_49  and  C_50
REMARK   35  A    between atoms: C_57  and  C_58
REMARK                            x       y       z     vdW  Elec       q    Type
REMARK                         _______ _______ _______ _____ _____    ______ ____
ROOT
ATOM      1  C   UNK A   1      27.864 -17.738   0.000  0.00  0.00    +0.000 C 
ENDROOT
BRANCH   1   2
ATOM      2  C   UNK A   1      28.579 -17.325   0.000  0.00  0.00    +0.000 A 
ATOM      3  C   UNK A   1      29.293 -17.738   0.000  0.00  0.00    +0.000 A 
ATOM      4  C   UNK A   1      30.008 -17.325   0.000  0.00  0.00    +0.000 A 
ATOM      5  C   UNK A   1      30.008 -16.500   0.000  0.00  0.00    +0.000 A 
ATOM      6  O   UNK A   1      30.722 -16.087   0.000  0.00  0.00    +0.000 OA
ATOM      7  C   UNK A   1      29.293 -16.087   0.000  0.00  0.00    +0.000 A 
ATOM      8  C   UNK A   1      28.579 -16.500   0.000  0.00  0.00    +0.000 A 
BRANCH   7   9
ATOM      9  C   UNK A   1      29.293 -15.262   0.000  0.00  0.00    +0.000 C 
BRANCH   9  10
ATOM     10  N   UNK A   1      30.008 -14.850   0.000  0.00  0.00    +0.000 NA
BRANCH  10  11
ATOM     11  C   UNK A   1      30.722 -15.262   0.000  0.00  0.00    +0.000 C 
BRANCH  11  12
ATOM     12  C   UNK A   1      31.437 -14.850   0.000  0.00  0.00    +0.000 C 
BRANCH  12  13
ATOM     13  N   UNK A   1      32.151 -15.262   0.000  0.00  0.00    +0.000 NA
BRANCH  13  14
ATOM     14  C   UNK A   1      32.866 -14.850   0.000  0.00  0.00    +0.000 C 
BRANCH  14  15
ATOM     15  C   UNK A   1      32.866 -14.025   0.000  0.00  0.00    +0.000 C 
ATOM     16  O   UNK A   1      33.580 -13.613   0.000  0.00  0.00    +0.000 OA
ATOM     17  O   UNK A   1      32.151 -13.613   0.000  0.00  0.00    +0.000 OA
ENDBRANCH  14  15
ENDBRANCH  13  14
BRANCH  13  18
ATOM     18  C   UNK A   1      32.151 -16.087   0.000  0.00  0.00    +0.000 C 
BRANCH  18  19
ATOM     19  C   UNK A   1      32.866 -16.500   0.000  0.00  0.00    +0.000 A 
ATOM     20  C   UNK A   1      33.580 -16.087   0.000  0.00  0.00    +0.000 A 
ATOM     21  C   UNK A   1      34.295 -16.500   0.000  0.00  0.00    +0.000 A 
ATOM     22  C   UNK A   1      34.295 -17.325   0.000  0.00  0.00    +0.000 A 
ATOM     23  C   UNK A   1      33.580 -17.738   0.000  0.00  0.00    +0.000 A 
ATOM     24  C   UNK A   1      32.866 -17.325   0.000  0.00  0.00    +0.000 A 
ATOM     25  O   UNK A   1      32.151 -17.738   0.000  0.00  0.00    +0.000 OA
BRANCH  21  26
ATOM     26  C   UNK A   1      35.009 -16.087   0.000  0.00  0.00    +0.000 C 
BRANCH  26  27
ATOM     27  C   UNK A   1      35.009 -15.262   0.000  0.00  0.00    +0.000 C 
BRANCH  27  28
ATOM     28  C   UNK A   1      34.295 -14.850   0.000  0.00  0.00    +0.000 C 
ATOM     29  O   UNK A   1      33.580 -15.262   0.000  0.00  0.00    +0.000 OA
ATOM     30  O   UNK A   1      34.295 -14.025   0.000  0.00  0.00    +0.000 OA
ENDBRANCH  27  28
ENDBRANCH  26  27
ENDBRANCH  21  26
ENDBRANCH  18  19
ENDBRANCH  13  18
ENDBRANCH  12  13
ENDBRANCH  11  12
ENDBRANCH  10  11
BRANCH  10  31
ATOM     31  C   UNK A   1      30.008 -14.025   0.000  0.00  0.00    +0.000 C 
BRANCH  31  32
ATOM     32  C   UNK A   1      29.293 -13.613   0.000  0.00  0.00    +0.000 C 
ATOM     33  O   UNK A   1      28.579 -14.025   0.000  0.00  0.00    +0.000 OA
ATOM     34  O   UNK A   1      29.293 -12.787   0.000  0.00  0.00    +0.000 OA
ENDBRANCH  31  32
ENDBRANCH  10  31
ENDBRANCH   9  10
ENDBRANCH   7   9
ENDBRANCH   1   2
BRANCH   1  35
ATOM     35  C   UNK A   1      27.150 -17.325   0.000  0.00  0.00    +0.000 C 
BRANCH  35  37
ATOM     36  N   UNK A   1      25.721 -17.325   0.000  0.00  0.00    +0.000 NA
ATOM     37  C   UNK A   1      26.435 -17.738   0.000  0.00  0.00    +0.000 C 
ATOM     38  O   UNK A   1      26.435 -18.562   0.000  0.00  0.00    +0.000 OA
BRANCH  36  39
ATOM     39  C   UNK A   1      25.006 -17.738   0.000  0.00  0.00    +0.000 C 
BRANCH  39  40
ATOM     40  C   UNK A   1      24.292 -17.325   0.000  0.00  0.00    +0.000 C 
BRANCH  40  41
ATOM     41  C   UNK A   1      23.578 -17.738   0.000  0.00  0.00    +0.000 C 
BRANCH  41  42
ATOM     42  C   UNK A   1      22.863 -17.325   0.000  0.00  0.00    +0.000 C 
BRANCH  42  43
ATOM     43  C   UNK A   1      22.149 -17.738   0.000  0.00  0.00    +0.000 C 
BRANCH  43  45
ATOM     44  N   UNK A   1      20.720 -17.738   0.000  0.00  0.00    +0.000 NA
ATOM     45  C   UNK A   1      21.434 -17.325   0.000  0.00  0.00    +0.000 C 
ATOM     46  O   UNK A   1      21.434 -16.500   0.000  0.00  0.00    +0.000 OA
BRANCH  44  47
ATOM     47  C   UNK A   1      20.005 -17.325   0.000  0.00  0.00    +0.000 C 
BRANCH  47  48
ATOM     48  C   UNK A   1      19.291 -17.738   0.000  0.00  0.00    +0.000 C 
BRANCH  48  49
ATOM     49  C   UNK A   1      18.576 -17.325   0.000  0.00  0.00    +0.000 C 
BRANCH  49  50
ATOM     50  C   UNK A   1      17.862 -17.738   0.000  0.00  0.00    +0.000 C 
BRANCH  50  51
ATOM     51  C   UNK A   1      17.147 -17.325   0.000  0.00  0.00    +0.000 C 
BRANCH  51  55
ATOM     52  N   UNK A   1      15.004 -17.738   0.000  0.00  0.00    +0.000 NA
ATOM     53  C   UNK A   0      15.718 -17.325   0.000  0.00  0.00    +0.000 C 
ATOM     54  O   UNK A   0      15.718 -16.500   0.000  0.00  0.00    +0.000 OA
ATOM     55  N   UNK A   1      16.433 -17.738   0.000  0.00  0.00    +0.000 NA
BRANCH  52  56
ATOM     56  C   UNK A   1      14.289 -17.325   0.000  0.00  0.00    +0.000 C 
BRANCH  56  57
ATOM     57  C   UNK A   1      14.289 -16.500   0.000  0.00  0.00    +0.000 C 
ATOM     58  O   UNK A   1      15.004 -16.087   0.000  0.00  0.00    +0.000 OA
ATOM     59  O   UNK A   1      13.575 -16.087   0.000  0.00  0.00    +0.000 OA
ENDBRANCH  56  57
BRANCH  56  60
ATOM     60  C   UNK A   1      13.575 -17.738   0.000  0.00  0.00    +0.000 C 
BRANCH  60  61
ATOM     61  C   UNK A   1      12.861 -17.325   0.000  0.00  0.00    +0.000 C 
BRANCH  61  63
ATOM     62  O   UNK A   1      11.431 -17.325   0.000  0.00  0.00    +0.000 OA
ATOM     63  C   UNK A   1      12.146 -17.738   0.000  0.00  0.00    +0.000 C 
ATOM     64  O   UNK A   1      12.146 -18.562   0.000  0.00  0.00    +0.000 OA
ENDBRANCH  61  63
ENDBRANCH  60  61
ENDBRANCH  56  60
ENDBRANCH  52  56
ENDBRANCH  51  55
BRANCH  51  65
ATOM     65  C   UNK A   1      17.147 -16.500   0.000  0.00  0.00    +0.000 C 
ATOM     66  O   UNK A   1      17.862 -16.087   0.000  0.00  0.00    +0.000 OA
ATOM     67  O   UNK A   1      16.433 -16.087   0.000  0.00  0.00    +0.000 OA
ENDBRANCH  51  65
ENDBRANCH  50  51
ENDBRANCH  49  50
ENDBRANCH  48  49
ENDBRANCH  47  48
ENDBRANCH  44  47
ENDBRANCH  43  45
ENDBRANCH  42  43
ENDBRANCH  41  42
ENDBRANCH  40  41
ENDBRANCH  39  40
ENDBRANCH  36  39
ENDBRANCH  35  37
ENDBRANCH   1  35
TORSDOF 35
