REMARK  Name = 
REMARK  5 active torsions:
REMARK  status: ('A' for Active; 'I' for Inactive)
REMARK    1  A    between atoms: C_9  and  O_10
REMARK    2  A    between atoms: O_10  and  C_11
REMARK    3  A    between atoms: C_11  and  C_12
REMARK    4  A    between atoms: N_15  and  C_16
REMARK    5  A    between atoms: C_16  and  C_17
REMARK                            x       y       z     vdW  Elec       q    Type
REMARK                         _______ _______ _______ _____ _____    ______ ____
ROOT
ATOM      1  C   UNL     1       0.715   2.062   0.000  0.00  0.00    +0.000 C 
ATOM      2  C   UNL     1       0.000   2.475   0.000  0.00  0.00    +0.000 C 
ATOM      3  C   UNL     1       0.000   3.300   0.000  0.00  0.00    +0.000 C 
ATOM      4  N   UNL     1       0.715   3.712   0.000  0.00  0.00    +0.000 NA
ATOM      5  C   UNL     1       1.429   3.300   0.000  0.00  0.00    +0.000 C 
ATOM      6  C   UNL     1       1.429   2.475   0.000  0.00  0.00    +0.000 C 
ENDROOT
BRANCH   1   7
ATOM      7  C   UNL     1       0.715   1.238   0.000  0.00  0.00    +0.000 C 
BRANCH   7   8
ATOM      8  O   UNL     1       1.429   0.825   0.000  0.00  0.00    +0.000 OA
BRANCH   8  17
ATOM      9  N   UNL     1      -1.429  -1.650   0.000  0.00  0.00    +0.000 NA
ATOM     10  C   UNL     1      -0.715  -1.238   0.000  0.00  0.00    +0.000 A 
ATOM     11  N   UNL     1       0.000  -1.650   0.000  0.00  0.00    +0.000 NA
ATOM     12  C   UNL     1       0.715  -1.238   0.000  0.00  0.00    +0.000 A 
ATOM     13  C   UNL     1       0.715  -0.412   0.000  0.00  0.00    +0.000 A 
ATOM     14  C   UNL     1       0.000   0.000   0.000  0.00  0.00    +0.000 A 
ATOM     15  N   UNL     1       0.000   0.825   0.000  0.00  0.00    +0.000 NA
ATOM     16  N   UNL     1      -0.715  -0.412   0.000  0.00  0.00    +0.000 NA
ATOM     17  C   UNL     1       1.429   0.000   0.000  0.00  0.00    +0.000 A 
ATOM     18  C   UNL     1       2.143  -0.412   0.000  0.00  0.00    +0.000 A 
ATOM     19  C   UNL     1       2.143  -1.238   0.000  0.00  0.00    +0.000 A 
ATOM     20  C   UNL     1       1.429  -1.650   0.000  0.00  0.00    +0.000 A 
ENDBRANCH   8  17
ENDBRANCH   7   8
ENDBRANCH   1   7
BRANCH   4  21
ATOM     21  C   UNL     1       0.715   4.537   0.000  0.00  0.00    +0.000 C 
BRANCH  21  22
ATOM     22  C   UNL     1       1.429   4.950   0.000  0.00  0.00    +0.000 A 
ATOM     23  C   UNL     1       1.429   5.775   0.000  0.00  0.00    +0.000 A 
ATOM     24 CL   UNL     1       0.715   6.188   0.000  0.00  0.00    +0.000 Cl
ATOM     25  C   UNL     1       2.143   6.188   0.000  0.00  0.00    +0.000 A 
ATOM     26  C   UNL     1       2.858   5.775   0.000  0.00  0.00    +0.000 A 
ATOM     27  C   UNL     1       2.858   4.950   0.000  0.00  0.00    +0.000 A 
ATOM     28  C   UNL     1       2.143   4.537   0.000  0.00  0.00    +0.000 A 
ATOM     29 CL   UNL     1       2.143   3.712   0.000  0.00  0.00    +0.000 Cl
ENDBRANCH  21  22
ENDBRANCH   4  21
TORSDOF 5
