REMARK  Name = 
REMARK  6 active torsions:
REMARK  status: ('A' for Active; 'I' for Inactive)
REMARK    1  A    between atoms: C_3  and  C_23
REMARK    2  A    between atoms: N_5  and  C_13
REMARK    3  A    between atoms: C_8  and  C_19
REMARK    4  A    between atoms: C_13  and  C_14
REMARK    5  A    between atoms: C_14  and  C_15
REMARK    6  A    between atoms: C_15  and  N_16
REMARK                            x       y       z     vdW  Elec       q    Type
REMARK                         _______ _______ _______ _____ _____    ______ ____
ROOT
ATOM      1  C   UNL     1       1.062   0.062   0.000  0.00  0.00    +0.000 C 
ATOM      2  C   UNL     1       1.727   0.549   0.000  0.00  0.00    +0.000 C 
ATOM      3  N   UNL     1       1.470   1.334   0.000  0.00  0.00    +0.000 NA
ATOM      4  C   UNL     1       0.644   1.332   0.000  0.00  0.00    +0.000 C 
ATOM      5  C   UNL     1       0.391   0.545   0.000  0.00  0.00    +0.000 C 
ATOM      6  O   UNL     1       2.513   0.297   0.000  0.00  0.00    +0.000 OA
ATOM      7  O   UNL     1       0.156   1.998   0.000  0.00  0.00    +0.000 OA
ENDROOT
BRANCH   5  10
ATOM      8  N   UNL     1      -1.635  -0.427   0.000  0.00  0.00    +0.000 NA
ATOM      9  C   UNL     1      -0.809  -0.429   0.000  0.00  0.00    +0.000 A 
ATOM     10  C   UNL     1      -0.391   0.287   0.000  0.00  0.00    +0.000 A 
ATOM     11  C   UNL     1      -1.632   0.998   0.000  0.00  0.00    +0.000 A 
ATOM     12  C   UNL     1      -0.809   0.993   0.000  0.00  0.00    +0.000 A 
ATOM     13  C   UNL     1      -0.394   1.703   0.000  0.00  0.00    +0.000 A 
ATOM     14  C   UNL     1      -0.803   2.418   0.000  0.00  0.00    +0.000 A 
ATOM     15  C   UNL     1      -1.629   2.419   0.000  0.00  0.00    +0.000 A 
ATOM     16  C   UNL     1      -2.040   1.708   0.000  0.00  0.00    +0.000 A 
ENDBRANCH   5  10
BRANCH   1  21
ATOM     17  C   UNL     1       0.356  -1.181   0.000  0.00  0.00    +0.000 A 
ATOM     18  N   UNL     1       0.356  -2.007   0.000  0.00  0.00    +0.000 N 
ATOM     19  C   UNL     1       1.782  -2.007   0.000  0.00  0.00    +0.000 A 
ATOM     20  C   UNL     1       1.781  -1.181   0.000  0.00  0.00    +0.000 A 
ATOM     21  C   UNL     1       1.064  -0.764   0.000  0.00  0.00    +0.000 A 
ATOM     22  C   UNL     1       2.495  -2.417   0.000  0.00  0.00    +0.000 A 
ATOM     23  C   UNL     1       3.213  -2.004   0.000  0.00  0.00    +0.000 A 
ATOM     24  C   UNL     1       3.210  -1.172   0.000  0.00  0.00    +0.000 A 
ATOM     25  C   UNL     1       2.494  -0.763   0.000  0.00  0.00    +0.000 A 
BRANCH  18  26
ATOM     26  C   UNL     1      -0.357  -2.419   0.000  0.00  0.00    +0.000 C 
BRANCH  26  27
ATOM     27  C   UNL     1      -1.070  -2.006   0.000  0.00  0.00    +0.000 C 
BRANCH  27  28
ATOM     28  C   UNL     1      -1.784  -2.419   0.000  0.00  0.00    +0.000 C 
BRANCH  28  29
ATOM     29  N   UNL     1      -2.497  -2.006   0.000  0.00  0.00    +0.000 NA
ATOM     30  C   UNL     1      -2.496  -1.180   0.000  0.00  0.00    +0.000 C 
ATOM     31  C   UNL     1      -3.213  -2.418   0.000  0.00  0.00    +0.000 C 
ENDBRANCH  28  29
ENDBRANCH  27  28
ENDBRANCH  26  27
ENDBRANCH  18  26
ENDBRANCH   1  21
TORSDOF 6
