REMARK  Name = 
REMARK  11 active torsions:
REMARK  status: ('A' for Active; 'I' for Inactive)
REMARK    1  A    between atoms: O_3  and  C_24
REMARK    2  A    between atoms: O_3  and  C_27
REMARK    3  A    between atoms: O_5  and  C_22
REMARK    4  A    between atoms: O_5  and  C_30
REMARK    5  A    between atoms: C_18  and  C_27
REMARK    6  A    between atoms: C_28  and  C_29
REMARK    7  A    between atoms: C_30  and  C_31
REMARK    8  A    between atoms: C_31  and  C_32
REMARK    9  A    between atoms: C_32  and  C_33
REMARK   10  A    between atoms: C_33  and  C_34
REMARK   11  A    between atoms: C_34  and  C_35
REMARK                            x       y       z     vdW  Elec       q    Type
REMARK                         _______ _______ _______ _____ _____    ______ ____
ROOT
ATOM      1 FE   UNL     1      -0.206  -4.793   0.000  0.00  0.00    +0.000 Fe
ENDROOT
TORSDOF 0
REMARK  Name = 
REMARK  11 active torsions:
REMARK  status: ('A' for Active; 'I' for Inactive)
REMARK    1  A    between atoms: O_3  and  C_24
REMARK    2  A    between atoms: O_3  and  C_27
REMARK    3  A    between atoms: O_5  and  C_22
REMARK    4  A    between atoms: O_5  and  C_30
REMARK    5  A    between atoms: C_18  and  C_27
REMARK    6  A    between atoms: C_28  and  C_29
REMARK    7  A    between atoms: C_30  and  C_31
REMARK    8  A    between atoms: C_31  and  C_32
REMARK    9  A    between atoms: C_32  and  C_33
REMARK   10  A    between atoms: C_33  and  C_34
REMARK   11  A    between atoms: C_34  and  C_35
REMARK                            x       y       z     vdW  Elec       q    Type
REMARK                         _______ _______ _______ _____ _____    ______ ____
ROOT
ATOM      1  O   UNL     1       0.327   0.000   0.000  0.00  0.00    +0.000 OA
ATOM      2  O   UNL     1      -1.102  -1.650   0.000  0.00  0.00    +0.000 OA
ATOM      3  O   UNL     1       0.327  -2.475   0.000  0.00  0.00    +0.000 OA
ATOM      4  O   UNL     1       1.756  -1.650   0.000  0.00  0.00    +0.000 OA
ATOM      5  C   UNL     1      -0.388  -0.412   0.000  0.00  0.00    +0.000 C 
ATOM      6  C   UNL     1      -0.388  -1.238   0.000  0.00  0.00    +0.000 C 
ATOM      7  C   UNL     1       0.327  -1.650   0.000  0.00  0.00    +0.000 C 
ATOM      8  C   UNL     1       1.041  -1.238   0.000  0.00  0.00    +0.000 C 
ATOM      9  C   UNL     1       1.041  -0.412   0.000  0.00  0.00    +0.000 C 
ENDROOT
BRANCH   9  10
ATOM     10  O   UNL     1       1.756   0.000   0.000  0.00  0.00    +0.000 OA
BRANCH  10  11
ATOM     11  C   UNL     1       1.756   0.825   0.000  0.00  0.00    +0.000 C 
BRANCH  11  13
ATOM     12  O   UNL     1       3.185   0.825   0.000  0.00  0.00    +0.000 OA
ATOM     13  C   UNL     1       2.470   1.238   0.000  0.00  0.00    +0.000 C 
BRANCH  13  15
ATOM     14  O   UNL     1       1.756   2.475   0.000  0.00  0.00    +0.000 OA
ATOM     15  C   UNL     1       2.470   2.062   0.000  0.00  0.00    +0.000 C 
BRANCH  15  17
ATOM     16  O   UNL     1       3.899   2.062   0.000  0.00  0.00    +0.000 OA
ATOM     17  C   UNL     1       3.185   2.475   0.000  0.00  0.00    +0.000 C 
BRANCH  17  19
ATOM     18  O   UNL     1       2.470   3.712   0.000  0.00  0.00    +0.000 OA
ATOM     19  C   UNL     1       3.185   3.300   0.000  0.00  0.00    +0.000 C 
BRANCH  19  21
ATOM     20  O   UNL     1       3.899   4.537   0.000  0.00  0.00    +0.000 OA
ATOM     21  C   UNL     1       3.899   3.712   0.000  0.00  0.00    +0.000 C 
ENDBRANCH  19  21
ENDBRANCH  17  19
ENDBRANCH  15  17
ENDBRANCH  13  15
ENDBRANCH  11  13
ENDBRANCH  10  11
ENDBRANCH   9  10
BRANCH   5  22
ATOM     22  C   UNL     1      -1.102   0.000   0.000  0.00  0.00    +0.000 C 
BRANCH  22  23
ATOM     23  O   UNL     1      -1.102   0.825   0.000  0.00  0.00    +0.000 OA
BRANCH  23  29
ATOM     24  O   UNL     1      -1.817   2.062   0.000  0.00  0.00    +0.000 OA
ATOM     25  O   UNL     1      -2.531   0.000   0.000  0.00  0.00    +0.000 OA
ATOM     26  O   UNL     1      -3.960   0.825   0.000  0.00  0.00    +0.000 OA
ATOM     27  O   UNL     1      -3.960   2.475   0.000  0.00  0.00    +0.000 OA
ATOM     28  C   UNL     1      -2.531   0.825   0.000  0.00  0.00    +0.000 C 
ATOM     29  C   UNL     1      -1.817   1.238   0.000  0.00  0.00    +0.000 C 
ATOM     30  C   UNL     1      -3.245   1.238   0.000  0.00  0.00    +0.000 C 
ATOM     31  C   UNL     1      -3.245   2.062   0.000  0.00  0.00    +0.000 C 
ATOM     32  C   UNL     1      -2.531   2.475   0.000  0.00  0.00    +0.000 C 
BRANCH  32  34
ATOM     33  O   UNL     1      -1.817   3.712   0.000  0.00  0.00    +0.000 OA
ATOM     34  C   UNL     1      -2.531   3.300   0.000  0.00  0.00    +0.000 C 
ENDBRANCH  32  34
ENDBRANCH  23  29
ENDBRANCH  22  23
ENDBRANCH   5  22
TORSDOF 11
