REMARK  Name = 
REMARK  6 active torsions:
REMARK  status: ('A' for Active; 'I' for Inactive)
REMARK    1  A    between atoms: C_1  and  C_2
REMARK    2  A    between atoms: C_5  and  C_9
REMARK    3  A    between atoms: C_9  and  N_14
REMARK    4  A    between atoms: C_13  and  C_15
REMARK    5  A    between atoms: C_15  and  N_16
REMARK    6  A    between atoms: N_19  and  C_23
REMARK                            x       y       z     vdW  Elec       q    Type
REMARK                         _______ _______ _______ _____ _____    ______ ____
ROOT
ATOM      1  C   UNL     1      -1.490  -2.910   0.000  0.00  0.00    +0.000 C 
ENDROOT
BRANCH   1   2
ATOM      2  N   UNL     1      -0.776  -2.497   0.000  0.00  0.00    +0.000 NA
ATOM      3  C   UNL     1      -0.061  -2.910   0.000  0.00  0.00    +0.000 C 
ATOM      4  C   UNL     1       0.653  -2.497   0.000  0.00  0.00    +0.000 C 
ATOM      5  N   UNL     1       0.653  -1.672   0.000  0.00  0.00    +0.000 N 
ATOM      6  C   UNL     1      -0.061  -1.260   0.000  0.00  0.00    +0.000 C 
ATOM      7  C   UNL     1      -0.776  -1.672   0.000  0.00  0.00    +0.000 C 
ATOM      8  O   UNL     1       1.367  -2.910   0.000  0.00  0.00    +0.000 OA
BRANCH   5   9
ATOM      9  C   UNL     1       1.367  -1.260   0.000  0.00  0.00    +0.000 A 
ATOM     10  C   UNL     1       2.082  -1.672   0.000  0.00  0.00    +0.000 A 
ATOM     11  C   UNL     1       2.796  -1.260   0.000  0.00  0.00    +0.000 A 
ATOM     12  C   UNL     1       2.796  -0.435   0.000  0.00  0.00    +0.000 A 
ATOM     13  C   UNL     1       2.082  -0.022   0.000  0.00  0.00    +0.000 A 
ATOM     14  C   UNL     1       1.367  -0.435   0.000  0.00  0.00    +0.000 A 
ATOM     15 CL   UNL     1       3.511  -1.672   0.000  0.00  0.00    +0.000 Cl
ENDBRANCH   5   9
ENDBRANCH   1   2
BRANCH   1  19
ATOM     16  C   UNL     1      -3.098  -1.505   0.000  0.00  0.00    +0.000 A 
ATOM     17  N   UNL     1      -3.511  -2.220   0.000  0.00  0.00    +0.000 NA
ATOM     18  C   UNL     1      -2.959  -2.833   0.000  0.00  0.00    +0.000 A 
ATOM     19  C   UNL     1      -2.205  -2.497   0.000  0.00  0.00    +0.000 A 
ATOM     20  N   UNL     1      -2.291  -1.677   0.000  0.00  0.00    +0.000 N 
BRANCH  20  21
ATOM     21  C   UNL     1      -1.678  -1.125   0.000  0.00  0.00    +0.000 C 
BRANCH  21  25
ATOM     22  C   UNL     1      -2.193   1.296   0.000  0.00  0.00    +0.000 A 
ATOM     23  C   UNL     1      -1.408   1.041   0.000  0.00  0.00    +0.000 A 
ATOM     24  C   UNL     1      -1.237   0.234   0.000  0.00  0.00    +0.000 A 
ATOM     25  C   UNL     1      -1.850  -0.318   0.000  0.00  0.00    +0.000 A 
ATOM     26  C   UNL     1      -2.634  -0.063   0.000  0.00  0.00    +0.000 A 
ATOM     27  C   UNL     1      -2.806   0.744   0.000  0.00  0.00    +0.000 A 
BRANCH  22  28
ATOM     28  C   UNL     1      -2.364   2.103   0.000  0.00  0.00    +0.000 C 
ATOM     29  N   UNL     1      -2.536   2.910   0.000  0.00  0.00    +0.000 NA
ENDBRANCH  22  28
ENDBRANCH  21  25
ENDBRANCH  20  21
ENDBRANCH   1  19
TORSDOF 6
