REMARK  Name = 
REMARK  5 active torsions:
REMARK  status: ('A' for Active; 'I' for Inactive)
REMARK    1  A    between atoms: C_13  and  C_19
REMARK    2  A    between atoms: C_18  and  C_20
REMARK    3  A    between atoms: C_18  and  N_29
REMARK    4  A    between atoms: C_23  and  N_28
REMARK    5  A    between atoms: C_24  and  O_31
REMARK                            x       y       z     vdW  Elec       q    Type
REMARK                         _______ _______ _______ _____ _____    ______ ____
ROOT
ATOM      1  C   UNL     1       0.578  -0.498   0.000  0.00  0.00    +0.000 C 
ATOM      2  C   UNL     1      -0.242  -0.584   0.000  0.00  0.00    +0.000 C 
ATOM      3  C   UNL     1       1.063  -1.165   0.000  0.00  0.00    +0.000 C 
ATOM      4  C   UNL     1      -1.398  -1.424   0.000  0.00  0.00    +0.000 C 
ATOM      5  C   UNL     1      -0.578  -1.338   0.000  0.00  0.00    +0.000 C 
ATOM      6  C   UNL     1      -0.093  -2.005   0.000  0.00  0.00    +0.000 C 
ATOM      7  N   UNL     1       0.727  -1.919   0.000  0.00  0.00    +0.000 N 
ATOM      8  O   UNL     1      -0.429  -2.759   0.000  0.00  0.00    +0.000 OA
ENDROOT
BRANCH   4  12
ATOM      9  C   UNL     1      -1.548  -0.003   0.000  0.00  0.00    +0.000 A 
ATOM     10  C   UNL     1      -2.033   0.664   0.000  0.00  0.00    +0.000 A 
ATOM     11  C   UNL     1      -2.704  -0.843   0.000  0.00  0.00    +0.000 A 
ATOM     12  C   UNL     1      -1.883  -0.757   0.000  0.00  0.00    +0.000 A 
ATOM     13  C   UNL     1      -2.853   0.578   0.000  0.00  0.00    +0.000 A 
ATOM     14  C   UNL     1      -3.189  -0.175   0.000  0.00  0.00    +0.000 A 
BRANCH  13  20
ATOM     15  C   UNL     1      -3.751   3.340   0.000  0.00  0.00    +0.000 C 
ATOM     16  C   UNL     1      -3.083   2.030   0.000  0.00  0.00    +0.000 A 
ATOM     17  C   UNL     1      -4.163   1.246   0.000  0.00  0.00    +0.000 A 
ATOM     18  C   UNL     1      -3.751   2.515   0.000  0.00  0.00    +0.000 A 
ATOM     19  N   UNL     1      -4.418   2.030   0.000  0.00  0.00    +0.000 NA
ATOM     20  N   UNL     1      -3.338   1.246   0.000  0.00  0.00    +0.000 N 
ENDBRANCH  13  20
BRANCH  14  22
ATOM     21  C   UNL     1      -4.494   0.406   0.000  0.00  0.00    +0.000 C 
ATOM     22  O   UNL     1      -4.009  -0.262   0.000  0.00  0.00    +0.000 OA
ENDBRANCH  14  22
ENDBRANCH   4  12
BRANCH   7  24
ATOM     23  C   UNL     1       0.877  -3.340   0.000  0.00  0.00    +0.000 C 
ATOM     24  C   UNL     1       1.212  -2.587   0.000  0.00  0.00    +0.000 C 
BRANCH  24  29
ATOM     25  C   UNL     1       2.518  -3.168   0.000  0.00  0.00    +0.000 A 
ATOM     26  C   UNL     1       2.368  -1.747   0.000  0.00  0.00    +0.000 A 
ATOM     27  C   UNL     1       3.338  -3.081   0.000  0.00  0.00    +0.000 A 
ATOM     28  C   UNL     1       3.189  -1.660   0.000  0.00  0.00    +0.000 A 
ATOM     29  C   UNL     1       2.033  -2.500   0.000  0.00  0.00    +0.000 A 
ATOM     30  C   UNL     1       3.674  -2.328   0.000  0.00  0.00    +0.000 A 
ATOM     31  F   UNL     1       4.494  -2.241   0.000  0.00  0.00    +0.000 F 
ENDBRANCH  24  29
ENDBRANCH   7  24
TORSDOF 5
