REMARK  Name = 
REMARK  5 active torsions:
REMARK  status: ('A' for Active; 'I' for Inactive)
REMARK    1  A    between atoms: O_1  and  C_10
REMARK    2  A    between atoms: O_1  and  C_27
REMARK    3  A    between atoms: C_10  and  C_22
REMARK    4  A    between atoms: C_22  and  C_26
REMARK    5  A    between atoms: C_27  and  C_28
REMARK                            x       y       z     vdW  Elec       q    Type
REMARK                         _______ _______ _______ _____ _____    ______ ____
ROOT
ATOM      1  O   UNL     1      -3.678  -2.438   0.000  0.00  0.00    +0.000 OA
ATOM      2  C   UNL     1       0.772   0.080   0.000  0.00  0.00    +0.000 C 
ATOM      3  C   UNL     1       0.772  -0.745   0.000  0.00  0.00    +0.000 C 
ATOM      4  C   UNL     1       0.057  -1.158   0.000  0.00  0.00    +0.000 C 
ATOM      5  C   UNL     1      -0.657  -0.745   0.000  0.00  0.00    +0.000 C 
ATOM      6  C   UNL     1       1.552   0.331   0.000  0.00  0.00    +0.000 C 
ATOM      7  C   UNL     1       0.057   0.492   0.000  0.00  0.00    +0.000 C 
ATOM      8  C   UNL     1      -1.408  -1.163   0.000  0.00  0.00    +0.000 C 
ATOM      9  C   UNL     1       1.552  -0.997   0.000  0.00  0.00    +0.000 C 
ATOM     10  C   UNL     1      -0.657   0.080   0.000  0.00  0.00    +0.000 C 
ATOM     11  C   UNL     1       2.034  -0.333   0.000  0.00  0.00    +0.000 C 
ATOM     12  C   UNL     1       0.071  -2.017   0.000  0.00  0.00    +0.000 C 
ATOM     13  C   UNL     1       0.772   0.905   0.000  0.00  0.00    +0.000 C 
ATOM     14  C   UNL     1      -1.415  -2.023   0.000  0.00  0.00    +0.000 C 
ATOM     15  C   UNL     1      -0.670  -2.452   0.000  0.00  0.00    +0.000 C 
ATOM     16  C   UNL     1      -2.172  -0.698   0.000  0.00  0.00    +0.000 C 
ATOM     17  C   UNL     1      -1.402  -0.338   0.000  0.00  0.00    +0.000 C 
ATOM     18  C   UNL     1      -2.955  -1.133   0.000  0.00  0.00    +0.000 C 
ATOM     19  C   UNL     1      -2.186  -2.476   0.000  0.00  0.00    +0.000 C 
ATOM     20  C   UNL     1      -2.962  -2.029   0.000  0.00  0.00    +0.000 C 
ENDROOT
BRANCH   6  22
ATOM     21  O   UNL     1       2.710   1.169   0.000  0.00  0.00    +0.000 OA
ATOM     22  C   UNL     1       2.373   0.416   0.000  0.00  0.00    +0.000 C 
BRANCH  22  24
ATOM     23  O   UNL     1       3.678  -0.167   0.000  0.00  0.00    +0.000 OA
ATOM     24  C   UNL     1       2.857  -0.252   0.000  0.00  0.00    +0.000 C 
ENDBRANCH  22  24
ENDBRANCH   6  22
BRANCH   6  25
ATOM     25  O   UNL     1       1.299   1.116   0.000  0.00  0.00    +0.000 OA
BRANCH  25  27
ATOM     26  O   UNL     1       2.257   2.177   0.000  0.00  0.00    +0.000 OA
ATOM     27  C   UNL     1       1.472   1.923   0.000  0.00  0.00    +0.000 C 
BRANCH  27  28
ATOM     28  C   UNL     1       0.860   2.476   0.000  0.00  0.00    +0.000 C 
ATOM     29  C   UNL     1       0.074   2.223   0.000  0.00  0.00    +0.000 C 
ENDBRANCH  27  28
ENDBRANCH  25  27
ENDBRANCH   6  25
TORSDOF 5
