REMARK  Name = 
REMARK  4 active torsions:
REMARK  status: ('A' for Active; 'I' for Inactive)
REMARK    1  A    between atoms: C_3  and  C_6
REMARK    2  A    between atoms: C_6  and  C_9
REMARK    3  A    between atoms: C_9  and  C_10
REMARK    4  A    between atoms: C_14  and  C_17
REMARK                            x       y       z     vdW  Elec       q    Type
REMARK                         _______ _______ _______ _____ _____    ______ ____
ROOT
ATOM      1  N   UNL     1       0.330   2.066   0.000  0.00  0.00    +0.000 NA
ATOM      2  C   UNL     1       0.330   0.416   0.000  0.00  0.00    +0.000 A 
ATOM      3  C   UNL     1       1.043   0.825   0.000  0.00  0.00    +0.000 A 
ATOM      4  C   UNL     1      -0.383   0.825   0.000  0.00  0.00    +0.000 A 
ATOM      5  C   UNL     1       1.043   1.650   0.000  0.00  0.00    +0.000 A 
ATOM      6  C   UNL     1      -0.383   1.650   0.000  0.00  0.00    +0.000 A 
ATOM      7  C   UNL     1       1.782   0.383   0.000  0.00  0.00    +0.000 A 
ATOM      8  C   UNL     1       1.782   2.092   0.000  0.00  0.00    +0.000 A 
ATOM      9  C   UNL     1       2.528   0.805   0.000  0.00  0.00    +0.000 A 
ATOM     10  C   UNL     1       2.528   1.670   0.000  0.00  0.00    +0.000 A 
ENDROOT
BRANCH   6  11
ATOM     11  C   UNL     1      -1.096   2.066   0.000  0.00  0.00    +0.000 A 
ATOM     12  C   UNL     1      -1.815   1.650   0.000  0.00  0.00    +0.000 A 
ATOM     13  C   UNL     1      -1.096   2.891   0.000  0.00  0.00    +0.000 A 
ATOM     14  C   UNL     1      -2.528   2.066   0.000  0.00  0.00    +0.000 A 
ATOM     15  C   UNL     1      -1.815   3.300   0.000  0.00  0.00    +0.000 A 
ATOM     16  C   UNL     1      -2.528   2.891   0.000  0.00  0.00    +0.000 A 
ENDBRANCH   6  11
BRANCH   2  17
ATOM     17  C   UNL     1       0.330  -0.409   0.000  0.00  0.00    +0.000 C 
BRANCH  17  18
ATOM     18  C   UNL     1      -0.383  -0.825   0.000  0.00  0.00    +0.000 C 
BRANCH  18  20
ATOM     19  N   UNL     1      -0.383  -3.300   0.000  0.00  0.00    +0.000 NA
ATOM     20  C   UNL     1      -0.383  -1.650   0.000  0.00  0.00    +0.000 C 
ATOM     21  C   UNL     1      -1.096  -2.059   0.000  0.00  0.00    +0.000 C 
ATOM     22  C   UNL     1       0.330  -2.059   0.000  0.00  0.00    +0.000 C 
ATOM     23  C   UNL     1      -1.096  -2.884   0.000  0.00  0.00    +0.000 C 
ATOM     24  C   UNL     1       0.330  -2.884   0.000  0.00  0.00    +0.000 C 
ENDBRANCH  18  20
ENDBRANCH  17  18
ENDBRANCH   2  17
TORSDOF 4
