REMARK  Name = 
REMARK  7 active torsions:
REMARK  status: ('A' for Active; 'I' for Inactive)
REMARK    1  A    between atoms: P_2  and  O_4
REMARK    2  A    between atoms: O_4  and  C_18
REMARK    3  A    between atoms: O_5  and  C_20
REMARK    4  A    between atoms: O_5  and  C_25
REMARK    5  A    between atoms: N_14  and  C_19
REMARK    6  A    between atoms: C_16  and  C_23
REMARK    7  A    between atoms: C_21  and  C_24
REMARK                            x       y       z     vdW  Elec       q    Type
REMARK                         _______ _______ _______ _____ _____    ______ ____
ROOT
ATOM      1  S   UNL     1       2.627   0.165   0.000  0.00  0.00    +0.000 S 
ATOM      2  O   UNL     1       0.185   2.115   0.000  0.00  0.00    +0.000 OA
ATOM      3  O   UNL     1       1.611  -1.090   0.000  0.00  0.00    +0.000 OA
ATOM      4  C   UNL     1       0.792   1.304   0.000  0.00  0.00    +0.000 C 
ATOM      5  C   UNL     1       0.579   0.507   0.000  0.00  0.00    +0.000 C 
ATOM      6  C   UNL     1      -1.355   0.638   0.000  0.00  0.00    +0.000 C 
ATOM      7  C   UNL     1      -1.441  -0.183   0.000  0.00  0.00    +0.000 C 
ATOM      8  C   UNL     1      -0.687  -0.518   0.000  0.00  0.00    +0.000 C 
ATOM      9  C   UNL     1       1.985  -0.355   0.000  0.00  0.00    +0.000 C 
ATOM     10  C   UNL     1       2.331   0.935   0.000  0.00  0.00    +0.000 C 
ENDROOT
BRANCH   9  13
ATOM     11  O   UNL     1       2.060  -1.782   0.000  0.00  0.00    +0.000 OA
ATOM     12  N   UNL     1       3.259  -1.003   0.000  0.00  0.00    +0.000 N 
ATOM     13  C   UNL     1       2.435  -1.046   0.000  0.00  0.00    +0.000 C 
ATOM     14  H   UNL     1       3.537  -1.432   0.000  0.00  0.00    +0.000 HD
ATOM     15  H   UNL     1       3.491  -0.547   0.000  0.00  0.00    +0.000 HD
ENDBRANCH   9  13
BRANCH   4  18
ATOM     16  O   UNL     1       1.803   2.314   0.000  0.00  0.00    +0.000 OA
ATOM     17  O   UNL     1       0.423   2.684   0.000  0.00  0.00    +0.000 OA
ATOM     18  C   UNL     1       1.006   2.101   0.000  0.00  0.00    +0.000 C 
ENDBRANCH   4  18
BRANCH   7  19
ATOM     19  N   UNL     1      -2.155  -0.595   0.000  0.00  0.00    +0.000 NA
ATOM     20  H   UNL     1      -2.598  -0.340   0.000  0.00  0.00    +0.000 HD
ATOM     21  H   UNL     1      -2.155  -1.107   0.000  0.00  0.00    +0.000 HD
ENDBRANCH   7  19
BRANCH   8  22
ATOM     22  O   UNL     1      -0.516  -1.325   0.000  0.00  0.00    +0.000 OA
BRANCH  22  24
ATOM     23  O   UNL     1      -1.914  -1.622   0.000  0.00  0.00    +0.000 OA
ATOM     24  C   UNL     1      -1.129  -1.877   0.000  0.00  0.00    +0.000 C 
ATOM     25  C   UNL     1      -0.957  -2.684   0.000  0.00  0.00    +0.000 C 
ENDBRANCH  22  24
ENDBRANCH   8  22
BRANCH   6  26
ATOM     26  O   UNL     1      -1.968   1.190   0.000  0.00  0.00    +0.000 OA
BRANCH  26  27
ATOM     27  P   UNL     1      -2.752   0.935   0.000  0.00  0.00    +0.000 P 
ATOM     28  O   UNL     1      -3.537   0.680   0.000  0.00  0.00    +0.000 OA
ATOM     29  O   UNL     1      -3.007   1.719   0.000  0.00  0.00    +0.000 OA
ATOM     30  O   UNL     1      -2.498   0.150   0.000  0.00  0.00    +0.000 OA
ENDBRANCH  26  27
ENDBRANCH   6  26
TORSDOF 7
