REMARK  Name = 
REMARK  3 active torsions:
REMARK  status: ('A' for Active; 'I' for Inactive)
REMARK    1  A    between atoms: C_6  and  C_7
REMARK    2  A    between atoms: C_9  and  C_10
REMARK    3  A    between atoms: C_10  and  C_11
REMARK                            x       y       z     vdW  Elec       q    Type
REMARK                         _______ _______ _______ _____ _____    ______ ____
ROOT
ATOM      1  C   UNL     1      -1.786   0.412   0.000  0.00  0.00    +0.000 A 
ATOM      2  C   UNL     1      -2.501   0.000   0.000  0.00  0.00    +0.000 A 
ATOM      3  C   UNL     1      -2.501  -0.825   0.000  0.00  0.00    +0.000 A 
ATOM      4  C   UNL     1      -1.786  -1.238   0.000  0.00  0.00    +0.000 A 
ATOM      5  C   UNL     1      -1.072  -0.825   0.000  0.00  0.00    +0.000 A 
ATOM      6  C   UNL     1      -1.072   0.000   0.000  0.00  0.00    +0.000 A 
ATOM      7  O   UNL     1      -0.357  -1.238   0.000  0.00  0.00    +0.000 OA
ENDROOT
BRANCH   6   8
ATOM      8  C   UNL     1      -0.357   0.412   0.000  0.00  0.00    +0.000 C 
ATOM      9  C   UNL     1       0.357   0.000   0.000  0.00  0.00    +0.000 C 
BRANCH   9  10
ATOM     10  C   UNL     1       1.072   0.412   0.000  0.00  0.00    +0.000 C 
ATOM     11  O   UNL     1       1.072   1.238   0.000  0.00  0.00    +0.000 OA
BRANCH  10  12
ATOM     12  C   UNL     1       1.786   0.000   0.000  0.00  0.00    +0.000 C 
ATOM     13  O   UNL     1       2.501   0.413   0.000  0.00  0.00    +0.000 OA
ATOM     14  O   UNL     1       1.786  -0.825   0.000  0.00  0.00    +0.000 OA
ENDBRANCH  10  12
ENDBRANCH   9  10
ENDBRANCH   6   8
TORSDOF 3
