REMARK  Name = 
REMARK  0 active torsions:
REMARK  status: ('A' for Active; 'I' for Inactive)
REMARK                            x       y       z     vdW  Elec       q    Type
REMARK                         _______ _______ _______ _____ _____    ______ ____
ROOT
ATOM      1  C   UNL     1       1.052   1.506   0.000  0.00  0.00    +0.000 C 
ATOM      2  C   UNL     1       1.052   0.681   0.000  0.00  0.00    +0.000 C 
ATOM      3  C   UNL     1       1.052  -0.144   0.000  0.00  0.00    +0.000 C 
ATOM      4  C   UNL     1       0.339  -0.566   0.000  0.00  0.00    +0.000 C 
ATOM      5  C   UNL     1      -0.373  -0.150   0.000  0.00  0.00    +0.000 C 
ATOM      6  C   UNL     1      -0.373   0.681   0.000  0.00  0.00    +0.000 C 
ATOM      7  C   UNL     1       0.339   1.096   0.000  0.00  0.00    +0.000 C 
ATOM      8  C   UNL     1      -1.088  -0.566   0.000  0.00  0.00    +0.000 A 
ATOM      9  C   UNL     1      -1.088  -1.397   0.000  0.00  0.00    +0.000 A 
ATOM     10  C   UNL     1      -0.373  -1.813   0.000  0.00  0.00    +0.000 C 
ATOM     11  C   UNL     1       0.339  -1.397   0.000  0.00  0.00    +0.000 C 
ATOM     12  C   UNL     1      -1.800  -1.813   0.000  0.00  0.00    +0.000 A 
ATOM     13  C   UNL     1      -2.513  -1.397   0.000  0.00  0.00    +0.000 A 
ATOM     14  C   UNL     1      -2.513  -0.566   0.000  0.00  0.00    +0.000 A 
ATOM     15  C   UNL     1      -1.800  -0.150   0.000  0.00  0.00    +0.000 A 
ATOM     16  O   UNL     1      -3.227  -1.811   0.000  0.00  0.00    +0.000 OA
ATOM     17  C   UNL     1       1.836  -0.399   0.000  0.00  0.00    +0.000 C 
ATOM     18  C   UNL     1       2.321   0.268   0.000  0.00  0.00    +0.000 C 
ATOM     19  C   UNL     1       1.836   0.935   0.000  0.00  0.00    +0.000 C 
ATOM     20  O   UNL     1       2.053   1.813   0.000  0.00  0.00    +0.000 OA
ATOM     21  F   UNL     1       3.227   0.537   0.000  0.00  0.00    +0.000 F 
ENDROOT
TORSDOF 0
