REMARK  Name = 
REMARK  5 active torsions:
REMARK  status: ('A' for Active; 'I' for Inactive)
REMARK    1  A    between atoms: C_2  and  C_4
REMARK    2  A    between atoms: C_9  and  C_10
REMARK    3  A    between atoms: C_15  and  C_20
REMARK    4  A    between atoms: C_28  and  C_29
REMARK    5  A    between atoms: C_36  and  C_37
REMARK                            x       y       z     vdW  Elec       q    Type
REMARK                         _______ _______ _______ _____ _____    ______ ____
ROOT
ATOM      1  C   UNL     1      -3.572  -2.888   0.000  0.00  0.00    +0.000 A 
ATOM      2  C   UNL     1      -4.287  -2.475   0.000  0.00  0.00    +0.000 A 
ATOM      3  O   UNL     1      -5.001  -2.888   0.000  0.00  0.00    +0.000 OA
ATOM      4  C   UNL     1      -4.287  -1.650   0.000  0.00  0.00    +0.000 A 
ATOM      5  O   UNL     1      -5.001  -1.238   0.000  0.00  0.00    +0.000 OA
ATOM      6  C   UNL     1      -3.572  -1.238   0.000  0.00  0.00    +0.000 A 
ATOM      7  C   UNL     1      -2.858  -1.650   0.000  0.00  0.00    +0.000 A 
ATOM      8  C   UNL     1      -2.143  -1.238   0.000  0.00  0.00    +0.000 A 
ATOM      9  O   UNL     1      -2.143  -0.412   0.000  0.00  0.00    +0.000 OA
ATOM     10  C   UNL     1      -1.429  -1.650   0.000  0.00  0.00    +0.000 A 
ATOM     11  C   UNL     1      -1.429  -2.475   0.000  0.00  0.00    +0.000 A 
ATOM     12  C   UNL     1      -0.715  -2.888   0.000  0.00  0.00    +0.000 C 
ATOM     13  C   UNL     1      -2.143  -2.888   0.000  0.00  0.00    +0.000 A 
ATOM     14  C   UNL     1      -2.858  -2.475   0.000  0.00  0.00    +0.000 A 
ENDROOT
BRANCH  10  15
ATOM     15  C   UNL     1      -0.715  -1.238   0.000  0.00  0.00    +0.000 A 
ATOM     16  C   UNL     1       0.000  -1.650   0.000  0.00  0.00    +0.000 A 
ATOM     17  O   UNL     1       0.000  -2.475   0.000  0.00  0.00    +0.000 OA
ATOM     18  C   UNL     1       0.715  -1.238   0.000  0.00  0.00    +0.000 A 
ATOM     19  C   UNL     1       0.715  -0.412   0.000  0.00  0.00    +0.000 A 
ATOM     20  C   UNL     1       0.000   0.000   0.000  0.00  0.00    +0.000 A 
ATOM     21  C   UNL     1      -0.715  -0.412   0.000  0.00  0.00    +0.000 A 
ATOM     22  C   UNL     1      -1.429   0.000   0.000  0.00  0.00    +0.000 C 
ATOM     23  C   UNL     1       1.429   0.000   0.000  0.00  0.00    +0.000 A 
ATOM     24  C   UNL     1       2.143  -0.412   0.000  0.00  0.00    +0.000 A 
ATOM     25  O   UNL     1       2.858   0.000   0.000  0.00  0.00    +0.000 OA
ATOM     26  C   UNL     1       2.143  -1.238   0.000  0.00  0.00    +0.000 A 
ATOM     27  O   UNL     1       2.858  -1.650   0.000  0.00  0.00    +0.000 OA
ATOM     28  C   UNL     1       1.429  -1.650   0.000  0.00  0.00    +0.000 A 
BRANCH  23  29
ATOM     29  C   UNL     1       1.429   0.825   0.000  0.00  0.00    +0.000 C 
ATOM     30  C   UNL     1       0.715   1.238   0.000  0.00  0.00    +0.000 C 
ATOM     31  C   UNL     1       2.143   1.238   0.000  0.00  0.00    +0.000 C 
ENDBRANCH  23  29
BRANCH  28  32
ATOM     32  C   UNL     1       1.429  -2.475   0.000  0.00  0.00    +0.000 C 
ATOM     33  O   UNL     1       0.715  -2.888   0.000  0.00  0.00    +0.000 OA
ENDBRANCH  28  32
ENDBRANCH  10  15
BRANCH   1  35
ATOM     34  C   UNL     1      -4.287  -4.125   0.000  0.00  0.00    +0.000 C 
ATOM     35  C   UNL     1      -3.572  -3.712   0.000  0.00  0.00    +0.000 C 
ATOM     36  C   UNL     1      -2.858  -4.125   0.000  0.00  0.00    +0.000 C 
ENDBRANCH   1  35
BRANCH   6  37
ATOM     37  C   UNL     1      -3.572  -0.412   0.000  0.00  0.00    +0.000 C 
ATOM     38  O   UNL     1      -2.858   0.000   0.000  0.00  0.00    +0.000 OA
ENDBRANCH   6  37
TORSDOF 5
