REMARK  Name = 
REMARK  64 active torsions:
REMARK  status: ('A' for Active; 'I' for Inactive)
REMARK    1  A    between atoms: O_3  and  C_72
REMARK    2  A    between atoms: O_3  and  C_82
REMARK    3  A    between atoms: O_4  and  C_73
REMARK    4  A    between atoms: O_4  and  C_83
REMARK    5  A    between atoms: O_23  and  C_106
REMARK    6  A    between atoms: O_23  and  C_108
REMARK    7  A    between atoms: O_24  and  C_107
REMARK    8  A    between atoms: O_24  and  C_109
REMARK    9  A    between atoms: O_25  and  C_110
REMARK   10  A    between atoms: O_25  and  C_112
REMARK   11  A    between atoms: O_26  and  C_111
REMARK   12  A    between atoms: O_26  and  C_113
REMARK   13  A    between atoms: O_27  and  C_114
REMARK   14  A    between atoms: O_27  and  C_116
REMARK   15  A    between atoms: O_28  and  C_115
REMARK   16  A    between atoms: O_28  and  C_117
REMARK   17  A    between atoms: O_29  and  C_122
REMARK   18  A    between atoms: O_29  and  C_125
REMARK   19  A    between atoms: O_30  and  C_123
REMARK   20  A    between atoms: O_30  and  C_126
REMARK   21  A    between atoms: N_33  and  C_56
REMARK   22  A    between atoms: N_34  and  C_57
REMARK   23  A    between atoms: N_35  and  C_58
REMARK   24  A    between atoms: N_36  and  C_59
REMARK   25  A    between atoms: N_37  and  C_74
REMARK   26  A    between atoms: N_37  and  C_80
REMARK   27  A    between atoms: N_38  and  C_75
REMARK   28  A    between atoms: N_38  and  C_81
REMARK   29  A    between atoms: N_39  and  C_78
REMARK   30  A    between atoms: N_40  and  C_79
REMARK   31  A    between atoms: N_41  and  C_84
REMARK   32  A    between atoms: N_41  and  C_102
REMARK   33  A    between atoms: N_42  and  C_85
REMARK   34  A    between atoms: N_42  and  C_103
REMARK   35  A    between atoms: N_43  and  C_99
REMARK   36  A    between atoms: N_44  and  C_101
REMARK   37  A    between atoms: N_45  and  C_120
REMARK   38  A    between atoms: N_46  and  C_121
REMARK   39  A    between atoms: C_56  and  C_64
REMARK   40  A    between atoms: C_57  and  C_65
REMARK   41  A    between atoms: C_58  and  C_70
REMARK   42  A    between atoms: C_59  and  C_71
REMARK   43  A    between atoms: C_64  and  C_74
REMARK   44  A    between atoms: C_65  and  C_75
REMARK   45  A    between atoms: C_66  and  C_76
REMARK   46  A    between atoms: C_68  and  C_77
REMARK   47  A    between atoms: C_70  and  C_78
REMARK   48  A    between atoms: C_71  and  C_79
REMARK   49  A    between atoms: C_87  and  C_90
REMARK   50  A    between atoms: C_88  and  C_91
REMARK   51  A    between atoms: C_102  and  C_104
REMARK   52  A    between atoms: C_103  and  C_105
REMARK   53  A    between atoms: C_104  and  C_106
REMARK   54  A    between atoms: C_105  and  C_107
REMARK   55  A    between atoms: C_108  and  C_110
REMARK   56  A    between atoms: C_109  and  C_111
REMARK   57  A    between atoms: C_112  and  C_114
REMARK   58  A    between atoms: C_113  and  C_115
REMARK   59  A    between atoms: C_116  and  C_118
REMARK   60  A    between atoms: C_117  and  C_119
REMARK   61  A    between atoms: C_118  and  C_120
REMARK   62  A    between atoms: C_119  and  C_121
REMARK   63  A    between atoms: C_124  and  C_125
REMARK   64  A    between atoms: C_124  and  C_126
REMARK                            x       y       z     vdW  Elec       q    Type
REMARK                         _______ _______ _______ _____ _____    ______ ____
ROOT
ATOM      1  N   UNL     1      -5.793  10.371   0.000  0.00  0.00    +0.000 NA
ATOM      2  C   UNL     1      -6.206   9.657   0.000  0.00  0.00    +0.000 C 
ENDROOT
BRANCH   2   3
ATOM      3  C   UNL     1      -7.031   9.657   0.000  0.00  0.00    +0.000 C 
BRANCH   3   4
ATOM      4  O   UNL     1      -7.443   8.942   0.000  0.00  0.00    +0.000 OA
BRANCH   4   7
ATOM      5  O   UNL     1      -8.681   9.657   0.000  0.00  0.00    +0.000 OA
ATOM      6  N   UNL     1      -8.681   8.227   0.000  0.00  0.00    +0.000 NA
ATOM      7  C   UNL     1      -8.268   8.942   0.000  0.00  0.00    +0.000 C 
BRANCH   6   8
ATOM      8  C   UNL     1      -9.506   8.227   0.000  0.00  0.00    +0.000 C 
BRANCH   8   9
ATOM      9  C   UNL     1      -9.918   7.513   0.000  0.00  0.00    +0.000 C 
BRANCH   9  10
ATOM     10  C   UNL     1     -10.743   7.513   0.000  0.00  0.00    +0.000 C 
BRANCH  10  11
ATOM     11  O   UNL     1     -11.156   6.798   0.000  0.00  0.00    +0.000 OA
BRANCH  11  12
ATOM     12  C   UNL     1     -11.981   6.798   0.000  0.00  0.00    +0.000 C 
BRANCH  12  13
ATOM     13  C   UNL     1     -12.394   6.084   0.000  0.00  0.00    +0.000 C 
BRANCH  13  14
ATOM     14  O   UNL     1     -13.219   6.084   0.000  0.00  0.00    +0.000 OA
BRANCH  14  15
ATOM     15  C   UNL     1     -13.631   5.369   0.000  0.00  0.00    +0.000 C 
BRANCH  15  16
ATOM     16  C   UNL     1     -14.456   5.369   0.000  0.00  0.00    +0.000 C 
BRANCH  16  17
ATOM     17  O   UNL     1     -14.869   4.655   0.000  0.00  0.00    +0.000 OA
BRANCH  17  18
ATOM     18  C   UNL     1     -15.694   4.655   0.000  0.00  0.00    +0.000 C 
BRANCH  18  19
ATOM     19  C   UNL     1     -16.106   3.940   0.000  0.00  0.00    +0.000 C 
BRANCH  19  20
ATOM     20  C   UNL     1     -16.931   3.940   0.000  0.00  0.00    +0.000 C 
BRANCH  20  21
ATOM     21  N   UNL     1     -17.344   3.226   0.000  0.00  0.00    +0.000 NA
BRANCH  21  25
ATOM     22  O   UNL     1     -20.161   3.226   0.000  0.00  0.00    +0.000 OA
ATOM     23  O   UNL     1     -18.753   4.634   0.000  0.00  0.00    +0.000 OA
ATOM     24  C   UNL     1     -18.753   2.643   0.000  0.00  0.00    +0.000 C 
ATOM     25  C   UNL     1     -18.169   3.226   0.000  0.00  0.00    +0.000 C 
ATOM     26  C   UNL     1     -19.336   3.226   0.000  0.00  0.00    +0.000 C 
ATOM     27  C   UNL     1     -18.753   3.809   0.000  0.00  0.00    +0.000 C 
BRANCH  24  28
ATOM     28  N   UNL     1     -18.753   1.817   0.000  0.00  0.00    +0.000 NA
BRANCH  28  29
ATOM     29  C   UNL     1     -18.038   1.405   0.000  0.00  0.00    +0.000 C 
BRANCH  29  30
ATOM     30  C   UNL     1     -18.038   0.580   0.000  0.00  0.00    +0.000 C 
BRANCH  30  31
ATOM     31  C   UNL     1     -17.323   0.167   0.000  0.00  0.00    +0.000 C 
BRANCH  31  32
ATOM     32  N   UNL     1     -17.323  -0.658   0.000  0.00  0.00    +0.000 NA
ATOM     33  N   UNL     1     -17.323  -2.308   0.000  0.00  0.00    +0.000 NA
ATOM     34  C   UNL     1     -16.609  -1.070   0.000  0.00  0.00    +0.000 C 
ATOM     35  C   UNL     1     -18.038  -1.070   0.000  0.00  0.00    +0.000 C 
ATOM     36  C   UNL     1     -16.609  -1.895   0.000  0.00  0.00    +0.000 C 
ATOM     37  C   UNL     1     -18.038  -1.895   0.000  0.00  0.00    +0.000 C 
BRANCH  33  38
ATOM     38  C   UNL     1     -17.323  -3.133   0.000  0.00  0.00    +0.000 C 
BRANCH  38  39
ATOM     39  C   UNL     1     -16.609  -3.545   0.000  0.00  0.00    +0.000 C 
BRANCH  39  40
ATOM     40  C   UNL     1     -16.609  -4.370   0.000  0.00  0.00    +0.000 C 
BRANCH  40  42
ATOM     41  O   UNL     1     -16.609  -6.021   0.000  0.00  0.00    +0.000 OA
ATOM     42  N   UNL     1     -15.894  -4.783   0.000  0.00  0.00    +0.000 NA
ATOM     43  C   UNL     1     -15.894  -5.608   0.000  0.00  0.00    +0.000 C 
BRANCH  43  46
ATOM     44  C   UNL     1     -14.465  -7.258   0.000  0.00  0.00    +0.000 A 
ATOM     45  C   UNL     1     -15.180  -6.846   0.000  0.00  0.00    +0.000 A 
ATOM     46  C   UNL     1     -15.180  -6.021   0.000  0.00  0.00    +0.000 A 
ATOM     47  C   UNL     1     -13.751  -6.846   0.000  0.00  0.00    +0.000 A 
ATOM     48  C   UNL     1     -14.465  -5.608   0.000  0.00  0.00    +0.000 A 
ATOM     49  C   UNL     1     -13.751  -6.021   0.000  0.00  0.00    +0.000 A 
BRANCH  49  52
ATOM     50  O   UNL     1     -13.036  -4.783   0.000  0.00  0.00    +0.000 OA
ATOM     51  O   UNL     1     -12.322  -6.021   0.000  0.00  0.00    +0.000 OA
ATOM     52  N   UNL     1     -13.036  -5.608   0.000  0.00  0.00    +0.000 N 
ENDBRANCH  49  52
BRANCH  44  53
ATOM     53  O   UNL     1     -14.465  -8.083   0.000  0.00  0.00    +0.000 OA
BRANCH  53  62
ATOM     54  O   UNL     1     -15.894  -8.083   0.000  0.00  0.00    +0.000 OA
ATOM     55  O   UNL     1     -17.323  -9.733   0.000  0.00  0.00    +0.000 OA
ATOM     56  O   UNL     1     -15.894 -10.558   0.000  0.00  0.00    +0.000 OA
ATOM     57  O   UNL     1     -14.465  -9.733   0.000  0.00  0.00    +0.000 OA
ATOM     58  C   UNL     1     -16.609  -9.321   0.000  0.00  0.00    +0.000 C 
ATOM     59  C   UNL     1     -15.894  -9.733   0.000  0.00  0.00    +0.000 C 
ATOM     60  C   UNL     1     -16.609  -8.496   0.000  0.00  0.00    +0.000 C 
ATOM     61  C   UNL     1     -15.180  -9.321   0.000  0.00  0.00    +0.000 C 
ATOM     62  C   UNL     1     -15.180  -8.496   0.000  0.00  0.00    +0.000 C 
BRANCH  60  64
ATOM     63  O   UNL     1     -18.038  -8.496   0.000  0.00  0.00    +0.000 OA
ATOM     64  C   UNL     1     -17.323  -8.083   0.000  0.00  0.00    +0.000 C 
ENDBRANCH  60  64
ENDBRANCH  53  62
ENDBRANCH  44  53
ENDBRANCH  43  46
ENDBRANCH  40  42
ENDBRANCH  39  40
ENDBRANCH  38  39
ENDBRANCH  33  38
ENDBRANCH  31  32
ENDBRANCH  30  31
ENDBRANCH  29  30
ENDBRANCH  28  29
ENDBRANCH  24  28
ENDBRANCH  21  25
ENDBRANCH  20  21
ENDBRANCH  19  20
ENDBRANCH  18  19
ENDBRANCH  17  18
ENDBRANCH  16  17
ENDBRANCH  15  16
ENDBRANCH  14  15
ENDBRANCH  13  14
ENDBRANCH  12  13
ENDBRANCH  11  12
ENDBRANCH  10  11
ENDBRANCH   9  10
ENDBRANCH   8   9
ENDBRANCH   6   8
ENDBRANCH   4   7
ENDBRANCH   3   4
ENDBRANCH   2   3
BRANCH   2  65
ATOM     65  C   UNL     1      -5.793   8.942   0.000  0.00  0.00    +0.000 C 
BRANCH  65  66
ATOM     66  O   UNL     1      -4.968   8.942   0.000  0.00  0.00    +0.000 OA
BRANCH  66  69
ATOM     67  O   UNL     1      -4.968   7.513   0.000  0.00  0.00    +0.000 OA
ATOM     68  N   UNL     1      -3.731   8.227   0.000  0.00  0.00    +0.000 NA
ATOM     69  C   UNL     1      -4.556   8.227   0.000  0.00  0.00    +0.000 C 
BRANCH  68  70
ATOM     70  C   UNL     1      -3.318   7.513   0.000  0.00  0.00    +0.000 C 
BRANCH  70  71
ATOM     71  C   UNL     1      -2.493   7.513   0.000  0.00  0.00    +0.000 C 
BRANCH  71  72
ATOM     72  C   UNL     1      -2.080   6.798   0.000  0.00  0.00    +0.000 C 
BRANCH  72  73
ATOM     73  O   UNL     1      -1.255   6.798   0.000  0.00  0.00    +0.000 OA
BRANCH  73  74
ATOM     74  C   UNL     1      -0.843   6.084   0.000  0.00  0.00    +0.000 C 
BRANCH  74  75
ATOM     75  C   UNL     1      -0.018   6.084   0.000  0.00  0.00    +0.000 C 
BRANCH  75  76
ATOM     76  O   UNL     1       0.395   5.369   0.000  0.00  0.00    +0.000 OA
BRANCH  76  77
ATOM     77  C   UNL     1       1.220   5.369   0.000  0.00  0.00    +0.000 C 
BRANCH  77  78
ATOM     78  C   UNL     1       1.632   4.655   0.000  0.00  0.00    +0.000 C 
BRANCH  78  79
ATOM     79  O   UNL     1       2.457   4.655   0.000  0.00  0.00    +0.000 OA
BRANCH  79  80
ATOM     80  C   UNL     1       2.870   3.940   0.000  0.00  0.00    +0.000 C 
BRANCH  80  81
ATOM     81  C   UNL     1       3.695   3.940   0.000  0.00  0.00    +0.000 C 
BRANCH  81  82
ATOM     82  C   UNL     1       4.107   3.226   0.000  0.00  0.00    +0.000 C 
BRANCH  82  83
ATOM     83  N   UNL     1       4.933   3.226   0.000  0.00  0.00    +0.000 NA
BRANCH  83  87
ATOM     84  O   UNL     1       6.341   0.786   0.000  0.00  0.00    +0.000 OA
ATOM     85  O   UNL     1       4.417   1.302   0.000  0.00  0.00    +0.000 OA
ATOM     86  C   UNL     1       6.142   2.298   0.000  0.00  0.00    +0.000 C 
ATOM     87  C   UNL     1       5.345   2.511   0.000  0.00  0.00    +0.000 C 
ATOM     88  C   UNL     1       5.928   1.501   0.000  0.00  0.00    +0.000 C 
ATOM     89  C   UNL     1       5.131   1.714   0.000  0.00  0.00    +0.000 C 
BRANCH  86  90
ATOM     90  N   UNL     1       6.856   2.710   0.000  0.00  0.00    +0.000 NA
BRANCH  90  91
ATOM     91  C   UNL     1       7.571   2.298   0.000  0.00  0.00    +0.000 C 
BRANCH  91  92
ATOM     92  C   UNL     1       8.286   2.710   0.000  0.00  0.00    +0.000 C 
BRANCH  92  93
ATOM     93  C   UNL     1       9.000   2.298   0.000  0.00  0.00    +0.000 C 
BRANCH  93  94
ATOM     94  N   UNL     1       9.715   2.710   0.000  0.00  0.00    +0.000 NA
ATOM     95  N   UNL     1      11.144   3.535   0.000  0.00  0.00    +0.000 NA
ATOM     96  C   UNL     1      10.429   2.298   0.000  0.00  0.00    +0.000 C 
ATOM     97  C   UNL     1       9.715   3.535   0.000  0.00  0.00    +0.000 C 
ATOM     98  C   UNL     1      11.144   2.710   0.000  0.00  0.00    +0.000 C 
ATOM     99  C   UNL     1      10.429   3.948   0.000  0.00  0.00    +0.000 C 
BRANCH  95 100
ATOM    100  C   UNL     1      11.858   3.948   0.000  0.00  0.00    +0.000 C 
BRANCH 100 101
ATOM    101  C   UNL     1      12.573   3.535   0.000  0.00  0.00    +0.000 C 
BRANCH 101 102
ATOM    102  C   UNL     1      13.287   3.948   0.000  0.00  0.00    +0.000 C 
BRANCH 102 104
ATOM    103  O   UNL     1      14.716   4.773   0.000  0.00  0.00    +0.000 OA
ATOM    104  N   UNL     1      14.002   3.535   0.000  0.00  0.00    +0.000 NA
ATOM    105  C   UNL     1      14.716   3.948   0.000  0.00  0.00    +0.000 C 
BRANCH 105 108
ATOM    106  C   UNL     1      16.145   2.298   0.000  0.00  0.00    +0.000 A 
ATOM    107  C   UNL     1      15.431   2.710   0.000  0.00  0.00    +0.000 A 
ATOM    108  C   UNL     1      15.431   3.535   0.000  0.00  0.00    +0.000 A 
ATOM    109  C   UNL     1      16.860   2.710   0.000  0.00  0.00    +0.000 A 
ATOM    110  C   UNL     1      16.145   3.948   0.000  0.00  0.00    +0.000 A 
ATOM    111  C   UNL     1      16.860   3.535   0.000  0.00  0.00    +0.000 A 
BRANCH 111 114
ATOM    112  O   UNL     1      17.574   4.773   0.000  0.00  0.00    +0.000 OA
ATOM    113  O   UNL     1      18.289   3.535   0.000  0.00  0.00    +0.000 OA
ATOM    114  N   UNL     1      17.574   3.948   0.000  0.00  0.00    +0.000 N 
ENDBRANCH 111 114
BRANCH 106 115
ATOM    115  O   UNL     1      16.145   1.473   0.000  0.00  0.00    +0.000 OA
BRANCH 115 124
ATOM    116  O   UNL     1      17.574   1.473   0.000  0.00  0.00    +0.000 OA
ATOM    117  O   UNL     1      19.003  -0.177   0.000  0.00  0.00    +0.000 OA
ATOM    118  O   UNL     1      17.574  -1.002   0.000  0.00  0.00    +0.000 OA
ATOM    119  O   UNL     1      16.145  -0.177   0.000  0.00  0.00    +0.000 OA
ATOM    120  C   UNL     1      18.289   0.235   0.000  0.00  0.00    +0.000 C 
ATOM    121  C   UNL     1      17.574  -0.177   0.000  0.00  0.00    +0.000 C 
ATOM    122  C   UNL     1      18.289   1.060   0.000  0.00  0.00    +0.000 C 
ATOM    123  C   UNL     1      16.860   0.235   0.000  0.00  0.00    +0.000 C 
ATOM    124  C   UNL     1      16.860   1.060   0.000  0.00  0.00    +0.000 C 
BRANCH 122 126
ATOM    125  O   UNL     1      19.718   1.060   0.000  0.00  0.00    +0.000 OA
ATOM    126  C   UNL     1      19.003   1.473   0.000  0.00  0.00    +0.000 C 
ENDBRANCH 122 126
ENDBRANCH 115 124
ENDBRANCH 106 115
ENDBRANCH 105 108
ENDBRANCH 102 104
ENDBRANCH 101 102
ENDBRANCH 100 101
ENDBRANCH  95 100
ENDBRANCH  93  94
ENDBRANCH  92  93
ENDBRANCH  91  92
ENDBRANCH  90  91
ENDBRANCH  86  90
ENDBRANCH  83  87
ENDBRANCH  82  83
ENDBRANCH  81  82
ENDBRANCH  80  81
ENDBRANCH  79  80
ENDBRANCH  78  79
ENDBRANCH  77  78
ENDBRANCH  76  77
ENDBRANCH  75  76
ENDBRANCH  74  75
ENDBRANCH  73  74
ENDBRANCH  72  73
ENDBRANCH  71  72
ENDBRANCH  70  71
ENDBRANCH  68  70
ENDBRANCH  66  69
ENDBRANCH  65  66
ENDBRANCH   2  65
TORSDOF 64
