REMARK  Name = 
REMARK  6 active torsions:
REMARK  status: ('A' for Active; 'I' for Inactive)
REMARK    1  A    between atoms: C_2  and  O_22
REMARK    2  A    between atoms: C_11  and  C_15
REMARK    3  A    between atoms: C_13  and  N_18
REMARK    4  A    between atoms: C_14  and  S_23
REMARK    5  A    between atoms: C_15  and  O_22
REMARK    6  A    between atoms: N_18  and  S_23
REMARK                            x       y       z     vdW  Elec       q    Type
REMARK                         _______ _______ _______ _____ _____    ______ ____
ROOT
ATOM      1  O   UNL     1       1.182   0.000   0.000  0.00  0.00    +0.000 OA
ATOM      2  O   UNL     1      -0.468   0.000   0.000  0.00  0.00    +0.000 OA
ATOM      3  S   UNL     1       0.357   0.000   0.000  0.00  0.00    +0.000 S 
ENDROOT
BRANCH   3   9
ATOM      4  C   UNL     1       0.357  -2.475   0.000  0.00  0.00    +0.000 C 
ATOM      5  C   UNL     1       1.072  -2.062   0.000  0.00  0.00    +0.000 C 
ATOM      6  C   UNL     1      -0.357  -2.062   0.000  0.00  0.00    +0.000 C 
ATOM      7  C   UNL     1       1.072  -1.238   0.000  0.00  0.00    +0.000 C 
ATOM      8  C   UNL     1      -0.357  -1.238   0.000  0.00  0.00    +0.000 C 
ATOM      9  C   UNL     1       0.357  -0.825   0.000  0.00  0.00    +0.000 C 
BRANCH   8  10
ATOM     10  C   UNL     1      -1.072  -0.825   0.000  0.00  0.00    +0.000 C 
ATOM     11  O   UNL     1      -1.072   0.000   0.000  0.00  0.00    +0.000 OA
BRANCH  10  12
ATOM     12  O   UNL     1      -1.786  -1.238   0.000  0.00  0.00    +0.000 OA
BRANCH  12  14
ATOM     13  C   UNL     1      -3.215  -1.238   0.000  0.00  0.00    +0.000 C 
ATOM     14  C   UNL     1      -2.501  -0.825   0.000  0.00  0.00    +0.000 C 
ENDBRANCH  12  14
ENDBRANCH  10  12
ENDBRANCH   8  10
ENDBRANCH   3   9
BRANCH   3  15
ATOM     15  N   UNL     1       0.357   0.825   0.000  0.00  0.00    +0.000 NA
BRANCH  15  21
ATOM     16  C   UNL     1       1.786   2.475   0.000  0.00  0.00    +0.000 A 
ATOM     17  C   UNL     1       1.072   2.062   0.000  0.00  0.00    +0.000 A 
ATOM     18  C   UNL     1       2.501   1.238   0.000  0.00  0.00    +0.000 A 
ATOM     19  C   UNL     1       2.501   2.062   0.000  0.00  0.00    +0.000 A 
ATOM     20  C   UNL     1       1.786   0.825   0.000  0.00  0.00    +0.000 A 
ATOM     21  C   UNL     1       1.072   1.238   0.000  0.00  0.00    +0.000 A 
ATOM     22 CL   UNL     1       1.786   0.000   0.000  0.00  0.00    +0.000 Cl
ATOM     23  F   UNL     1       3.215   2.475   0.000  0.00  0.00    +0.000 F 
ENDBRANCH  15  21
ENDBRANCH   3  15
TORSDOF 6
