REMARK  Name = 
REMARK  8 active torsions:
REMARK  status: ('A' for Active; 'I' for Inactive)
REMARK    1  A    between atoms: C_1  and  C_2
REMARK    2  A    between atoms: C_6  and  N_7
REMARK    3  A    between atoms: C_12  and  N_13
REMARK    4  A    between atoms: C_14  and  C_15
REMARK    5  A    between atoms: C_15  and  C_16
REMARK    6  A    between atoms: C_16  and  O_17
REMARK    7  A    between atoms: O_17  and  C_18
REMARK    8  A    between atoms: C_21  and  N_22
REMARK                            x       y       z     vdW  Elec       q    Type
REMARK                         _______ _______ _______ _____ _____    ______ ____
ROOT
ATOM      1  N   UNL     1      -1.786  -0.412   0.000  0.00  0.00    +0.000 NA
ATOM      2  C   UNL     1      -1.072   0.000   0.000  0.00  0.00    +0.000 C 
ATOM      3  O   UNL     1      -1.072   0.825   0.000  0.00  0.00    +0.000 OA
ENDROOT
BRANCH   1   8
ATOM      4  C   UNL     1      -3.929   0.000   0.000  0.00  0.00    +0.000 A 
ATOM      5  C   UNL     1      -3.929   0.825   0.000  0.00  0.00    +0.000 A 
ATOM      6  C   UNL     1      -3.215   1.238   0.000  0.00  0.00    +0.000 A 
ATOM      7  C   UNL     1      -2.501   0.825   0.000  0.00  0.00    +0.000 A 
ATOM      8  C   UNL     1      -2.501   0.000   0.000  0.00  0.00    +0.000 A 
ATOM      9  C   UNL     1      -3.215  -0.412   0.000  0.00  0.00    +0.000 A 
BRANCH   4  10
ATOM     10  C   UNL     1      -4.644  -0.412   0.000  0.00  0.00    +0.000 C 
ATOM     11  F   UNL     1      -5.359  -0.825   0.000  0.00  0.00    +0.000 F 
ATOM     12  F   UNL     1      -4.231  -1.127   0.000  0.00  0.00    +0.000 F 
ATOM     13  F   UNL     1      -5.056   0.302   0.000  0.00  0.00    +0.000 F 
ENDBRANCH   4  10
BRANCH   5  14
ATOM     14  N   UNL     1      -4.644   1.238   0.000  0.00  0.00    +0.000 N 
ATOM     15  O   UNL     1      -5.359   0.825   0.000  0.00  0.00    +0.000 OA
ATOM     16  O   UNL     1      -4.644   2.062   0.000  0.00  0.00    +0.000 OA
ENDBRANCH   5  14
ENDBRANCH   1   8
BRANCH   2  17
ATOM     17  C   UNL     1      -0.357  -0.412   0.000  0.00  0.00    +0.000 C 
ATOM     18  O   UNL     1       0.055   0.302   0.000  0.00  0.00    +0.000 OA
ATOM     19  C   UNL     1      -0.770  -1.127   0.000  0.00  0.00    +0.000 C 
BRANCH  17  20
ATOM     20  C   UNL     1       0.357  -0.825   0.000  0.00  0.00    +0.000 C 
BRANCH  20  21
ATOM     21  O   UNL     1       1.072  -0.412   0.000  0.00  0.00    +0.000 OA
BRANCH  21  22
ATOM     22  C   UNL     1       1.786  -0.825   0.000  0.00  0.00    +0.000 A 
ATOM     23  C   UNL     1       2.501  -0.412   0.000  0.00  0.00    +0.000 A 
ATOM     24  C   UNL     1       3.215  -0.825   0.000  0.00  0.00    +0.000 A 
ATOM     25  C   UNL     1       3.215  -1.650   0.000  0.00  0.00    +0.000 A 
ATOM     26  C   UNL     1       2.501  -2.062   0.000  0.00  0.00    +0.000 A 
ATOM     27  C   UNL     1       1.786  -1.650   0.000  0.00  0.00    +0.000 A 
BRANCH  25  28
ATOM     28  N   UNL     1       3.929  -2.062   0.000  0.00  0.00    +0.000 NA
ATOM     29  C   UNL     1       4.644  -1.650   0.000  0.00  0.00    +0.000 C 
ATOM     30  C   UNL     1       5.359  -2.062   0.000  0.00  0.00    +0.000 C 
ATOM     31  O   UNL     1       4.644  -0.825   0.000  0.00  0.00    +0.000 OA
ENDBRANCH  25  28
ENDBRANCH  21  22
ENDBRANCH  20  21
ENDBRANCH  17  20
ENDBRANCH   2  17
TORSDOF 8
