REMARK  Name = 
REMARK  6 active torsions:
REMARK  status: ('A' for Active; 'I' for Inactive)
REMARK    1  A    between atoms: N_2  and  C_4
REMARK    2  A    between atoms: C_4  and  C_5
REMARK    3  A    between atoms: C_7  and  S_20
REMARK    4  A    between atoms: C_10  and  O_11
REMARK    5  A    between atoms: O_11  and  C_12
REMARK    6  A    between atoms: C_15  and  S_18
REMARK                            x       y       z     vdW  Elec       q    Type
REMARK                         _______ _______ _______ _____ _____    ______ ____
ROOT
ATOM      1  C   UNL     1      -0.715  -1.238   0.000  0.00  0.00    +0.000 A 
ATOM      2  C   UNL     1       0.000  -1.650   0.000  0.00  0.00    +0.000 A 
ATOM      3  C   UNL     1       0.000  -2.475   0.000  0.00  0.00    +0.000 A 
ATOM      4  C   UNL     1      -0.715  -2.888   0.000  0.00  0.00    +0.000 A 
ATOM      5  C   UNL     1      -1.429  -2.475   0.000  0.00  0.00    +0.000 A 
ATOM      6  C   UNL     1      -1.429  -1.650   0.000  0.00  0.00    +0.000 A 
ENDROOT
BRANCH   3   7
ATOM      7  S   UNL     1       0.715  -2.888   0.000  0.00  0.00    +0.000 S 
ATOM      8  O   UNL     1       1.429  -3.300   0.000  0.00  0.00    +0.000 OA
ATOM      9  O   UNL     1       0.302  -3.602   0.000  0.00  0.00    +0.000 OA
ATOM     10  N   UNL     1       1.127  -2.173   0.000  0.00  0.00    +0.000 NA
ENDBRANCH   3   7
BRANCH   1  11
ATOM     11  C   UNL     1      -0.715  -0.412   0.000  0.00  0.00    +0.000 C 
BRANCH  11  13
ATOM     12  C   UNL     1      -1.429   0.825   0.000  0.00  0.00    +0.000 C 
ATOM     13  N   UNL     1      -1.429   0.000   0.000  0.00  0.00    +0.000 NA
ATOM     14  C   UNL     1      -2.143  -0.412   0.000  0.00  0.00    +0.000 C 
ENDBRANCH  11  13
ENDBRANCH   1  11
BRANCH   6  15
ATOM     15  O   UNL     1      -2.143  -1.238   0.000  0.00  0.00    +0.000 OA
BRANCH  15  16
ATOM     16  C   UNL     1      -2.858  -1.650   0.000  0.00  0.00    +0.000 A 
ATOM     17  C   UNL     1      -2.858  -2.475   0.000  0.00  0.00    +0.000 A 
ATOM     18  C   UNL     1      -3.572  -2.888   0.000  0.00  0.00    +0.000 A 
ATOM     19  C   UNL     1      -4.287  -2.475   0.000  0.00  0.00    +0.000 A 
ATOM     20  C   UNL     1      -4.287  -1.650   0.000  0.00  0.00    +0.000 A 
ATOM     21  C   UNL     1      -3.572  -1.238   0.000  0.00  0.00    +0.000 A 
BRANCH  19  22
ATOM     22  S   UNL     1      -5.001  -2.888   0.000  0.00  0.00    +0.000 S 
ATOM     23  C   UNL     1      -5.716  -2.475   0.000  0.00  0.00    +0.000 C 
ENDBRANCH  19  22
ENDBRANCH  15  16
ENDBRANCH   6  15
TORSDOF 6
