REMARK  Name = 
REMARK  7 active torsions:
REMARK  status: ('A' for Active; 'I' for Inactive)
REMARK    1  A    between atoms: N_5  and  C_6
REMARK    2  A    between atoms: C_6  and  C_7
REMARK    3  A    between atoms: C_8  and  C_34
REMARK    4  A    between atoms: C_10  and  N_11
REMARK    5  A    between atoms: C_12  and  C_14
REMARK    6  A    between atoms: C_19  and  C_21
REMARK    7  A    between atoms: C_22  and  C_23
REMARK                            x       y       z     vdW  Elec       q    Type
REMARK                         _______ _______ _______ _____ _____    ______ ____
ROOT
ATOM      1  N   UNL     1       0.968  -6.515   0.000  0.00  0.00    +0.000 NA
ATOM      2  C   UNL     1       1.223  -5.730   0.000  0.00  0.00    +0.000 C 
ATOM      3  O   UNL     1       2.030  -5.559   0.000  0.00  0.00    +0.000 OA
ENDROOT
BRANCH   2   4
ATOM      4  C   UNL     1       0.671  -5.117   0.000  0.00  0.00    +0.000 A 
ATOM      5  C   UNL     1      -0.136  -5.288   0.000  0.00  0.00    +0.000 A 
ATOM      6  C   UNL     1      -0.688  -4.675   0.000  0.00  0.00    +0.000 A 
ATOM      7  C   UNL     1      -0.433  -3.891   0.000  0.00  0.00    +0.000 A 
ATOM      8  C   UNL     1      -0.985  -3.278   0.000  0.00  0.00    +0.000 C 
ATOM      9  C   UNL     1       0.374  -3.719   0.000  0.00  0.00    +0.000 A 
ATOM     10  C   UNL     1       0.926  -4.332   0.000  0.00  0.00    +0.000 A 
BRANCH   9  11
ATOM     11  C   UNL     1       0.629  -2.935   0.000  0.00  0.00    +0.000 C 
ATOM     12  C   UNL     1       0.884  -2.150   0.000  0.00  0.00    +0.000 C 
BRANCH  12  13
ATOM     13  C   UNL     1       1.139  -1.365   0.000  0.00  0.00    +0.000 A 
ATOM     14  N   UNL     1       0.654  -0.698   0.000  0.00  0.00    +0.000 NA
ATOM     15  N   UNL     1       1.139  -0.030   0.000  0.00  0.00    +0.000 NA
ATOM     16  C   UNL     1       1.923  -0.285   0.000  0.00  0.00    +0.000 A 
ATOM     17  C   UNL     1       2.638   0.127   0.000  0.00  0.00    +0.000 A 
ATOM     18  C   UNL     1       3.352  -0.285   0.000  0.00  0.00    +0.000 A 
ATOM     19  C   UNL     1       3.352  -1.110   0.000  0.00  0.00    +0.000 A 
ATOM     20  C   UNL     1       2.638  -1.523   0.000  0.00  0.00    +0.000 A 
ATOM     21  N   UNL     1       1.923  -1.110   0.000  0.00  0.00    +0.000 N 
ENDBRANCH  12  13
ENDBRANCH   9  11
ENDBRANCH   2   4
BRANCH   1  25
ATOM     22  C   UNL     1       2.624  -8.354   0.000  0.00  0.00    +0.000 A 
ATOM     23  C   UNL     1       1.817  -8.525   0.000  0.00  0.00    +0.000 A 
ATOM     24  C   UNL     1       1.265  -7.912   0.000  0.00  0.00    +0.000 A 
ATOM     25  C   UNL     1       1.520  -7.128   0.000  0.00  0.00    +0.000 A 
ATOM     26  C   UNL     1       2.327  -6.956   0.000  0.00  0.00    +0.000 A 
ATOM     27  C   UNL     1       2.879  -7.569   0.000  0.00  0.00    +0.000 A 
BRANCH  23  28
ATOM     28  C   UNL     1       1.562  -9.310   0.000  0.00  0.00    +0.000 C 
ATOM     29  F   UNL     1       1.307 -10.095   0.000  0.00  0.00    +0.000 F 
ATOM     30  F   UNL     1       0.778  -9.055   0.000  0.00  0.00    +0.000 F 
ATOM     31  F   UNL     1       2.347  -9.565   0.000  0.00  0.00    +0.000 F 
ENDBRANCH  23  28
BRANCH  22  32
ATOM     32  C   UNL     1       3.176  -8.967   0.000  0.00  0.00    +0.000 C 
BRANCH  32  37
ATOM     33  C   UNL     1       6.404  -8.281   0.000  0.00  0.00    +0.000 C 
ATOM     34  N   UNL     1       5.597  -8.453   0.000  0.00  0.00    +0.000 NA
ATOM     35  C   UNL     1       5.342  -9.237   0.000  0.00  0.00    +0.000 C 
ATOM     36  C   UNL     1       4.535  -9.409   0.000  0.00  0.00    +0.000 C 
ATOM     37  N   UNL     1       3.983  -8.796   0.000  0.00  0.00    +0.000 NA
ATOM     38  C   UNL     1       4.238  -8.011   0.000  0.00  0.00    +0.000 C 
ATOM     39  C   UNL     1       5.045  -7.839   0.000  0.00  0.00    +0.000 C 
ENDBRANCH  32  37
ENDBRANCH  22  32
ENDBRANCH   1  25
TORSDOF 7
