REMARK  Name = 
REMARK  4 active torsions:
REMARK  status: ('A' for Active; 'I' for Inactive)
REMARK    1  A    between atoms: C_7  and  C_9
REMARK    2  A    between atoms: C_10  and  N_11
REMARK    3  A    between atoms: C_12  and  C_14
REMARK    4  A    between atoms: C_16  and  C_21
REMARK                            x       y       z     vdW  Elec       q    Type
REMARK                         _______ _______ _______ _____ _____    ______ ____
ROOT
ATOM      1  N   UNL     1       0.715  -7.838   0.000  0.00  0.00    +0.000 NA
ATOM      2  C   UNL     1       0.715  -8.662   0.000  0.00  0.00    +0.000 C 
ATOM      3  O   UNL     1       1.429  -9.075   0.000  0.00  0.00    +0.000 OA
ENDROOT
BRANCH   2   4
ATOM      4  C   UNL     1       0.000  -9.075   0.000  0.00  0.00    +0.000 A 
ATOM      5  N   UNL     1       0.000  -9.900   0.000  0.00  0.00    +0.000 NA
ATOM      6  C   UNL     1      -0.715 -10.312   0.000  0.00  0.00    +0.000 A 
ATOM      7  C   UNL     1      -1.429  -9.900   0.000  0.00  0.00    +0.000 A 
ATOM      8  F   UNL     1      -2.143 -10.312   0.000  0.00  0.00    +0.000 F 
ATOM      9  C   UNL     1      -1.429  -9.075   0.000  0.00  0.00    +0.000 A 
ATOM     10  C   UNL     1      -0.715  -8.662   0.000  0.00  0.00    +0.000 A 
BRANCH   6  11
ATOM     11  C   UNL     1      -0.715 -11.137   0.000  0.00  0.00    +0.000 A 
ATOM     12  C   UNL     1       0.000 -11.550   0.000  0.00  0.00    +0.000 A 
ATOM     13  F   UNL     1       0.715 -11.137   0.000  0.00  0.00    +0.000 F 
ATOM     14  C   UNL     1       0.000 -12.375   0.000  0.00  0.00    +0.000 A 
ATOM     15  C   UNL     1      -0.715 -12.787   0.000  0.00  0.00    +0.000 A 
ATOM     16  C   UNL     1      -1.429 -12.375   0.000  0.00  0.00    +0.000 A 
ATOM     17  C   UNL     1      -1.429 -11.550   0.000  0.00  0.00    +0.000 A 
ATOM     18  F   UNL     1      -2.143 -11.137   0.000  0.00  0.00    +0.000 F 
ENDBRANCH   6  11
ENDBRANCH   2   4
BRANCH   1  20
ATOM     19  C   UNL     1       1.429  -6.600   0.000  0.00  0.00    +0.000 A 
ATOM     20  C   UNL     1       1.429  -7.425   0.000  0.00  0.00    +0.000 A 
ATOM     21  C   UNL     1       2.143  -7.838   0.000  0.00  0.00    +0.000 A 
ATOM     22  N   UNL     1       2.858  -7.425   0.000  0.00  0.00    +0.000 NA
ATOM     23  C   UNL     1       2.858  -6.600   0.000  0.00  0.00    +0.000 A 
ATOM     24  C   UNL     1       2.143  -6.188   0.000  0.00  0.00    +0.000 A 
BRANCH  19  31
ATOM     25  C   UNL     1       0.000  -4.125   0.000  0.00  0.00    +0.000 C 
ATOM     26  C   UNL     1       0.000  -4.950   0.000  0.00  0.00    +0.000 C 
ATOM     27  C   UNL     1      -0.715  -5.362   0.000  0.00  0.00    +0.000 C 
ATOM     28  C   UNL     1      -0.715  -6.188   0.000  0.00  0.00    +0.000 C 
ATOM     29  N   UNL     1      -1.429  -6.600   0.000  0.00  0.00    +0.000 NA
ATOM     30  C   UNL     1       0.000  -6.600   0.000  0.00  0.00    +0.000 C 
ATOM     31  C   UNL     1       0.715  -6.188   0.000  0.00  0.00    +0.000 C 
ATOM     32  C   UNL     1       0.715  -5.362   0.000  0.00  0.00    +0.000 C 
ENDBRANCH  19  31
ENDBRANCH   1  20
TORSDOF 4
