REMARK  Name = 
REMARK  14 active torsions:
REMARK  status: ('A' for Active; 'I' for Inactive)
REMARK    1  A    between atoms: O_3  and  C_23
REMARK    2  A    between atoms: O_3  and  C_32
REMARK    3  A    between atoms: O_4  and  C_24
REMARK    4  A    between atoms: O_4  and  C_33
REMARK    5  A    between atoms: N_10  and  C_12
REMARK    6  A    between atoms: N_11  and  C_14
REMARK    7  A    between atoms: C_19  and  C_29
REMARK    8  A    between atoms: C_21  and  C_22
REMARK    9  A    between atoms: C_21  and  C_23
REMARK   10  A    between atoms: C_22  and  C_24
REMARK   11  A    between atoms: C_23  and  C_25
REMARK   12  A    between atoms: C_24  and  C_27
REMARK   13  A    between atoms: C_32  and  C_34
REMARK   14  A    between atoms: C_33  and  C_35
REMARK                            x       y       z     vdW  Elec       q    Type
REMARK                         _______ _______ _______ _____ _____    ______ ____
ROOT
ATOM      1  O   UNL     1       0.554  -1.453   0.000  0.00  0.00    +0.000 OA
ATOM      2  C   UNL     1       0.003  -0.839   0.000  0.00  0.00    +0.000 C 
ENDROOT
BRANCH   2   4
ATOM      3  O   UNL     1      -0.292   0.559   0.000  0.00  0.00    +0.000 OA
ATOM      4  C   UNL     1       0.259  -0.055   0.000  0.00  0.00    +0.000 C 
BRANCH   4   5
ATOM      5  C   UNL     1       1.066   0.115   0.000  0.00  0.00    +0.000 C 
BRANCH   5   8
ATOM      6  O   UNL     1       0.772   1.513   0.000  0.00  0.00    +0.000 OA
ATOM      7  N   UNL     1       2.130   1.069   0.000  0.00  0.00    +0.000 N 
ATOM      8  C   UNL     1       1.323   0.899   0.000  0.00  0.00    +0.000 C 
ATOM      9  H   UNL     1       2.472   0.689   0.000  0.00  0.00    +0.000 HD
BRANCH   7  11
ATOM     10  O   UNL     1       2.389   3.189   0.000  0.00  0.00    +0.000 OA
ATOM     11  C   UNL     1       2.386   1.854   0.000  0.00  0.00    +0.000 C 
ATOM     12  C   UNL     1       3.171   2.107   0.000  0.00  0.00    +0.000 C 
ATOM     13  C   UNL     1       3.173   2.932   0.000  0.00  0.00    +0.000 C 
ATOM     14  C   UNL     1       1.903   2.522   0.000  0.00  0.00    +0.000 C 
BRANCH  13  16
ATOM     15  O   UNL     1       3.756   4.237   0.000  0.00  0.00    +0.000 OA
ATOM     16  C   UNL     1       3.841   3.416   0.000  0.00  0.00    +0.000 C 
ENDBRANCH  13  16
ENDBRANCH   7  11
ENDBRANCH   5   8
BRANCH   5  17
ATOM     17  O   UNL     1       1.617  -0.499   0.000  0.00  0.00    +0.000 OA
BRANCH  17  18
ATOM     18  C   UNL     1       2.425  -0.329   0.000  0.00  0.00    +0.000 C 
BRANCH  18  19
ATOM     19  C   UNL     1       2.976  -0.943   0.000  0.00  0.00    +0.000 A 
ATOM     20  C   UNL     1       3.783  -0.773   0.000  0.00  0.00    +0.000 A 
ATOM     21  C   UNL     1       2.719  -1.727   0.000  0.00  0.00    +0.000 A 
ATOM     22  C   UNL     1       4.334  -1.387   0.000  0.00  0.00    +0.000 A 
ATOM     23  C   UNL     1       3.270  -2.341   0.000  0.00  0.00    +0.000 A 
ATOM     24  C   UNL     1       4.078  -2.171   0.000  0.00  0.00    +0.000 A 
ENDBRANCH  18  19
ENDBRANCH  17  18
ENDBRANCH   5  17
ENDBRANCH   4   5
ENDBRANCH   2   4
BRANCH   2  25
ATOM     25  C   UNL     1      -0.804  -1.009   0.000  0.00  0.00    +0.000 C 
BRANCH  25  28
ATOM     26  O   UNL     1      -0.510  -2.408   0.000  0.00  0.00    +0.000 OA
ATOM     27  N   UNL     1      -1.868  -1.964   0.000  0.00  0.00    +0.000 N 
ATOM     28  C   UNL     1      -1.061  -1.793   0.000  0.00  0.00    +0.000 C 
ATOM     29  H   UNL     1      -2.210  -1.583   0.000  0.00  0.00    +0.000 HD
BRANCH  27  31
ATOM     30  O   UNL     1      -0.818  -3.412   0.000  0.00  0.00    +0.000 OA
ATOM     31  C   UNL     1      -2.124  -2.748   0.000  0.00  0.00    +0.000 C 
ATOM     32  C   UNL     1      -1.643  -3.412   0.000  0.00  0.00    +0.000 C 
ATOM     33  C   UNL     1      -2.124  -4.076   0.000  0.00  0.00    +0.000 C 
ATOM     34  C   UNL     1      -2.905  -2.999   0.000  0.00  0.00    +0.000 A 
ATOM     35  C   UNL     1      -2.905  -3.824   0.000  0.00  0.00    +0.000 A 
ATOM     36  C   UNL     1      -3.619  -2.587   0.000  0.00  0.00    +0.000 A 
ATOM     37  C   UNL     1      -3.619  -4.237   0.000  0.00  0.00    +0.000 A 
ATOM     38  C   UNL     1      -4.334  -2.999   0.000  0.00  0.00    +0.000 A 
ATOM     39  C   UNL     1      -4.334  -3.824   0.000  0.00  0.00    +0.000 A 
ENDBRANCH  27  31
ENDBRANCH  25  28
BRANCH  25  40
ATOM     40  O   UNL     1      -1.355  -0.395   0.000  0.00  0.00    +0.000 OA
BRANCH  40  41
ATOM     41  C   UNL     1      -1.099   0.389   0.000  0.00  0.00    +0.000 C 
BRANCH  41  42
ATOM     42  C   UNL     1      -1.650   1.003   0.000  0.00  0.00    +0.000 A 
ATOM     43  C   UNL     1      -2.457   0.833   0.000  0.00  0.00    +0.000 A 
ATOM     44  C   UNL     1      -1.394   1.787   0.000  0.00  0.00    +0.000 A 
ATOM     45  C   UNL     1      -3.008   1.447   0.000  0.00  0.00    +0.000 A 
ATOM     46  C   UNL     1      -1.945   2.401   0.000  0.00  0.00    +0.000 A 
ATOM     47  C   UNL     1      -2.752   2.231   0.000  0.00  0.00    +0.000 A 
ENDBRANCH  41  42
ENDBRANCH  40  41
ENDBRANCH  25  40
ENDBRANCH   2  25
TORSDOF 14
