REMARK  Name = 
REMARK  12 active torsions:
REMARK  status: ('A' for Active; 'I' for Inactive)
REMARK    1  A    between atoms: C_5  and  N_21
REMARK    2  A    between atoms: C_6  and  N_21
REMARK    3  A    between atoms: C_12  and  C_15
REMARK    4  A    between atoms: C_12  and  C_16
REMARK    5  A    between atoms: C_13  and  C_14
REMARK    6  A    between atoms: C_13  and  N_20
REMARK    7  A    between atoms: C_14  and  N_21
REMARK    8  A    between atoms: C_15  and  O_23
REMARK    9  A    between atoms: C_17  and  C_18
REMARK   10  A    between atoms: C_18  and  C_19
REMARK   11  A    between atoms: C_18  and  N_20
REMARK   12  A    between atoms: C_19  and  O_23
REMARK                            x       y       z     vdW  Elec       q    Type
REMARK                         _______ _______ _______ _____ _____    ______ ____
ROOT
ATOM      1  C   UNL     1       5.820  -1.920   0.000  0.00  0.00    +0.000 C 
ENDROOT
BRANCH   1   7
ATOM      2  C   UNL     1       5.352   0.510   0.000  0.00  0.00    +0.000 A 
ATOM      3  C   UNL     1       4.729  -0.030   0.000  0.00  0.00    +0.000 A 
ATOM      4  C   UNL     1       6.132   0.240   0.000  0.00  0.00    +0.000 A 
ATOM      5  C   UNL     1       4.885  -0.840   0.000  0.00  0.00    +0.000 A 
ATOM      6  C   UNL     1       6.288  -0.570   0.000  0.00  0.00    +0.000 A 
ATOM      7  C   UNL     1       5.664  -1.110   0.000  0.00  0.00    +0.000 A 
ENDBRANCH   1   7
BRANCH   1   8
ATOM      8  C   UNL     1       6.600  -2.190   0.000  0.00  0.00    +0.000 C 
ATOM      9  O   UNL     1       6.756  -3.000   0.000  0.00  0.00    +0.000 OA
BRANCH   8  10
ATOM     10  O   UNL     1       7.223  -1.650   0.000  0.00  0.00    +0.000 OA
BRANCH  10  11
ATOM     11  C   UNL     1       8.003  -1.920   0.000  0.00  0.00    +0.000 C 
BRANCH  11  12
ATOM     12  C   UNL     1       8.627  -1.380   0.000  0.00  0.00    +0.000 C 
BRANCH  12  15
ATOM     13  C   UNL     1      10.030  -1.110   0.000  0.00  0.00    +0.000 C 
ATOM     14  C   UNL     1       9.562  -2.460   0.000  0.00  0.00    +0.000 C 
ATOM     15  C   UNL     1       9.406  -1.650   0.000  0.00  0.00    +0.000 C 
ENDBRANCH  12  15
ENDBRANCH  11  12
ENDBRANCH  10  11
ENDBRANCH   8  10
ENDBRANCH   1   8
BRANCH   1  16
ATOM     16  N   UNL     1       5.197  -2.460   0.000  0.00  0.00    +0.000 NA
BRANCH  16  17
ATOM     17  C   UNL     1       4.417  -2.190   0.000  0.00  0.00    +0.000 C 
BRANCH  17  18
ATOM     18  C   UNL     1       3.793  -2.730   0.000  0.00  0.00    +0.000 C 
BRANCH  18  19
ATOM     19  N   UNL     1       3.014  -2.460   0.000  0.00  0.00    +0.000 NA
BRANCH  19  21
ATOM     20  C   UNL     1       1.611  -2.730   0.000  0.00  0.00    +0.000 C 
ATOM     21  C   UNL     1       2.390  -3.000   0.000  0.00  0.00    +0.000 C 
ENDBRANCH  19  21
BRANCH  19  23
ATOM     22  C   UNL     1       3.482  -1.110   0.000  0.00  0.00    +0.000 C 
ATOM     23  C   UNL     1       2.858  -1.650   0.000  0.00  0.00    +0.000 C 
ENDBRANCH  19  23
ENDBRANCH  18  19
ENDBRANCH  17  18
ENDBRANCH  16  17
ENDBRANCH   1  16
TORSDOF 12
