REMARK  Name = 
REMARK  10 active torsions:
REMARK  status: ('A' for Active; 'I' for Inactive)
REMARK    1  A    between atoms: C_16  and  C_24
REMARK    2  A    between atoms: C_18  and  N_42
REMARK    3  A    between atoms: N_25  and  C_27
REMARK    4  A    between atoms: C_27  and  N_28
REMARK    5  A    between atoms: N_28  and  C_29
REMARK    6  A    between atoms: C_29  and  C_30
REMARK    7  A    between atoms: C_30  and  C_31
REMARK    8  A    between atoms: C_31  and  C_32
REMARK    9  A    between atoms: C_32  and  C_33
REMARK   10  A    between atoms: C_33  and  C_35
REMARK                            x       y       z     vdW  Elec       q    Type
REMARK                         _______ _______ _______ _____ _____    ______ ____
ROOT
ATOM      1  C   UNK     1      -6.382  -0.414   0.000  0.00  0.00    +0.000 A 
ATOM      2  C   UNK     1      -6.382   0.411   0.000  0.00  0.00    +0.000 A 
ATOM      3  C   UNK     1      -5.668   0.824   0.000  0.00  0.00    +0.000 A 
ATOM      4  C   UNK     1      -4.953   0.411   0.000  0.00  0.00    +0.000 A 
ATOM      5  C   UNK     1      -4.953  -0.414   0.000  0.00  0.00    +0.000 A 
ATOM      6  C   UNK     1      -5.668  -0.826   0.000  0.00  0.00    +0.000 A 
ATOM      7  C   UNK     1      -4.239   0.824   0.000  0.00  0.00    +0.000 C 
ATOM      8  C   UNK     1      -3.524   0.411   0.000  0.00  0.00    +0.000 C 
ATOM      9  C   UNK     1      -3.524  -0.414   0.000  0.00  0.00    +0.000 C 
ATOM     10  C   UNK     1      -4.239  -0.826   0.000  0.00  0.00    +0.000 C 
ATOM     11  C   UNK     1      -2.809   0.824   0.000  0.00  0.00    +0.000 C 
ATOM     12  C   UNK     1      -2.095   0.411   0.000  0.00  0.00    +0.000 C 
ATOM     13  C   UNK     1      -2.095  -0.414   0.000  0.00  0.00    +0.000 C 
ATOM     14  C   UNK     1      -2.809  -0.826   0.000  0.00  0.00    +0.000 C 
ATOM     15  C   UNK     1      -1.381   0.824   0.000  0.00  0.00    +0.000 C 
ATOM     16  C   UNK     1      -0.666   0.411   0.000  0.00  0.00    +0.000 C 
ATOM     17  C   UNK     1      -0.666  -0.414   0.000  0.00  0.00    +0.000 C 
ATOM     18  C   UNK     1      -1.381  -0.826   0.000  0.00  0.00    +0.000 C 
ATOM     19  O   UNK     1      -5.668   1.649   0.000  0.00  0.00    +0.000 OA
ATOM     20  O   UNK     1      -4.239   1.649   0.000  0.00  0.00    +0.000 OA
ATOM     21  O   UNK     1      -2.809   1.649   0.000  0.00  0.00    +0.000 OA
ATOM     22  O   UNK     1      -1.381   1.649   0.000  0.00  0.00    +0.000 OA
ATOM     23  O   UNK     1       0.062  -0.834   0.000  0.00  0.00    +0.000 OA
ATOM     24  C   UNK     1      -4.239  -1.651   0.000  0.00  0.00    +0.000 C 
ATOM     25  O   UNK     1      -4.952  -1.238   0.000  0.00  0.00    +0.000 OA
ATOM     26  O   UNK     1      -2.095   1.236   0.000  0.00  0.00    +0.000 OA
ENDROOT
BRANCH  16  27
ATOM     27  C   UNK     1       0.062   0.832   0.000  0.00  0.00    +0.000 C 
ATOM     28  N   UNK     1       0.773   0.421   0.000  0.00  0.00    +0.000 NA
ATOM     29  O   UNK     1       0.062   1.649   0.000  0.00  0.00    +0.000 OA
BRANCH  28  30
ATOM     30  C   UNK     1       1.470   0.823   0.000  0.00  0.00    +0.000 C 
BRANCH  30  31
ATOM     31  N   UNK     1       2.174   0.417   0.000  0.00  0.00    +0.000 NA
BRANCH  31  32
ATOM     32  C   UNK     1       2.873   0.821   0.000  0.00  0.00    +0.000 C 
BRANCH  32  33
ATOM     33  C   UNK     1       3.576   0.416   0.000  0.00  0.00    +0.000 C 
BRANCH  33  34
ATOM     34  C   UNK     1       4.276   0.821   0.000  0.00  0.00    +0.000 C 
BRANCH  34  35
ATOM     35  C   UNK     1       4.978   0.415   0.000  0.00  0.00    +0.000 C 
BRANCH  35  36
ATOM     36  C   UNK     1       5.679   0.820   0.000  0.00  0.00    +0.000 C 
ATOM     37  N   UNK     1       6.381   0.415   0.000  0.00  0.00    +0.000 NA
BRANCH  36  38
ATOM     38  C   UNK     1       5.679   1.649   0.000  0.00  0.00    +0.000 C 
ATOM     39  O   UNK     1       4.953   2.068   0.000  0.00  0.00    +0.000 OA
ATOM     40  O   UNK     1       6.382   2.055   0.000  0.00  0.00    +0.000 OA
ENDBRANCH  36  38
ENDBRANCH  35  36
ENDBRANCH  34  35
ENDBRANCH  33  34
ENDBRANCH  32  33
ENDBRANCH  31  32
ENDBRANCH  30  31
ENDBRANCH  28  30
ENDBRANCH  16  27
BRANCH  18  41
ATOM     41  N   UNK     1      -1.381  -1.651   0.000  0.00  0.00    +0.000 NA
ATOM     42  C   UNK     1      -2.103  -2.068   0.000  0.00  0.00    +0.000 C 
ATOM     43  C   UNK     1      -0.673  -2.059   0.000  0.00  0.00    +0.000 C 
ENDBRANCH  18  41
TORSDOF 10
