REMARK  Name = 
REMARK  13 active torsions:
REMARK  status: ('A' for Active; 'I' for Inactive)
REMARK    1  A    between atoms: C_1  and  C_2
REMARK    2  A    between atoms: C_2  and  C_3
REMARK    3  A    between atoms: C_2  and  O_25
REMARK    4  A    between atoms: C_3  and  C_4
REMARK    5  A    between atoms: C_4  and  C_5
REMARK    6  A    between atoms: C_5  and  C_6
REMARK    7  A    between atoms: C_5  and  O_9
REMARK    8  A    between atoms: N_7  and  C_38
REMARK    9  A    between atoms: O_9  and  C_10
REMARK   10  A    between atoms: C_10  and  C_11
REMARK   11  A    between atoms: C_18  and  C_19
REMARK   12  A    between atoms: C_18  and  O_25
REMARK   13  A    between atoms: N_27  and  C_28
REMARK                            x       y       z     vdW  Elec       q    Type
REMARK                         _______ _______ _______ _____ _____    ______ ____
ROOT
ATOM      1  C   UNL     1      -0.400   0.200   0.000  0.00  0.00    +0.000 C 
ATOM      2  O   UNL     1      -0.400   1.028   0.000  0.00  0.00    +0.000 OA
ENDROOT
BRANCH   1   3
ATOM      3  C   UNL     1       0.307  -0.209   0.000  0.00  0.00    +0.000 C 
BRANCH   3   4
ATOM      4  C   UNL     1       1.023   0.200   0.000  0.00  0.00    +0.000 C 
BRANCH   4   5
ATOM      5  C   UNL     1       1.740  -0.209   0.000  0.00  0.00    +0.000 C 
ATOM      6  N   UNL     1       2.447   0.200   0.000  0.00  0.00    +0.000 NA
ATOM      7  O   UNL     1       1.740  -1.028   0.000  0.00  0.00    +0.000 OA
BRANCH   6   8
ATOM      8  C   UNL     1       3.163  -0.209   0.000  0.00  0.00    +0.000 C 
ATOM      9  C   UNL     1       3.833   0.274   0.000  0.00  0.00    +0.000 C 
ATOM     10  C   UNL     1       4.494  -0.209   0.000  0.00  0.00    +0.000 C 
ATOM     11  C   UNL     1       4.242  -0.991   0.000  0.00  0.00    +0.000 A 
ATOM     12  C   UNL     1       3.414  -0.991   0.000  0.00  0.00    +0.000 A 
ATOM     13  C   UNL     1       3.005  -1.707   0.000  0.00  0.00    +0.000 A 
ATOM     14  C   UNL     1       3.414  -2.414   0.000  0.00  0.00    +0.000 A 
ATOM     15  C   UNL     1       4.242  -2.414   0.000  0.00  0.00    +0.000 A 
ATOM     16  C   UNL     1       4.652  -1.707   0.000  0.00  0.00    +0.000 A 
ATOM     17  O   UNL     1       3.833   1.103   0.000  0.00  0.00    +0.000 OA
ENDBRANCH   6   8
ENDBRANCH   4   5
BRANCH   4  18
ATOM     18  O   UNL     1       1.023   1.028   0.000  0.00  0.00    +0.000 OA
BRANCH  18  19
ATOM     19  C   UNL     1       1.740   1.437   0.000  0.00  0.00    +0.000 C 
BRANCH  19  20
ATOM     20  C   UNL     1       1.740   2.265   0.000  0.00  0.00    +0.000 A 
ATOM     21  C   UNL     1       1.740   3.912   0.000  0.00  0.00    +0.000 A 
ATOM     22  C   UNL     1       1.023   3.494   0.000  0.00  0.00    +0.000 A 
ATOM     23  C   UNL     1       1.023   2.675   0.000  0.00  0.00    +0.000 A 
ATOM     24  C   UNL     1       2.447   2.675   0.000  0.00  0.00    +0.000 A 
ATOM     25  C   UNL     1       2.447   3.494   0.000  0.00  0.00    +0.000 A 
ENDBRANCH  19  20
ENDBRANCH  18  19
ENDBRANCH   4  18
ENDBRANCH   3   4
ENDBRANCH   1   3
BRANCH   1  26
ATOM     26  C   UNL     1      -1.116  -0.209   0.000  0.00  0.00    +0.000 C 
BRANCH  26  27
ATOM     27  C   UNL     1      -1.833   0.200   0.000  0.00  0.00    +0.000 C 
ATOM     28  O   UNL     1      -1.833   1.028   0.000  0.00  0.00    +0.000 OA
ATOM     29  N   UNL     1      -2.540  -0.209   0.000  0.00  0.00    +0.000 NA
BRANCH  29  30
ATOM     30  C   UNL     1      -3.256   0.200   0.000  0.00  0.00    +0.000 C 
ATOM     31  C   UNL     1      -4.587   0.284   0.000  0.00  0.00    +0.000 C 
ATOM     32  C   UNL     1      -3.945  -0.237   0.000  0.00  0.00    +0.000 C 
ATOM     33  O   UNL     1      -4.001  -1.065   0.000  0.00  0.00    +0.000 OA
ATOM     34  C   UNL     1      -4.280   1.047   0.000  0.00  0.00    +0.000 A 
ATOM     35  C   UNL     1      -3.377   2.424   0.000  0.00  0.00    +0.000 A 
ATOM     36  C   UNL     1      -4.196   2.470   0.000  0.00  0.00    +0.000 A 
ATOM     37  C   UNL     1      -4.652   1.791   0.000  0.00  0.00    +0.000 A 
ATOM     38  C   UNL     1      -3.461   1.000   0.000  0.00  0.00    +0.000 A 
ATOM     39  C   UNL     1      -3.005   1.689   0.000  0.00  0.00    +0.000 A 
ENDBRANCH  29  30
ENDBRANCH  26  27
BRANCH  26  40
ATOM     40  O   UNL     1      -1.116  -1.028   0.000  0.00  0.00    +0.000 OA
BRANCH  40  41
ATOM     41  C   UNL     1      -1.833  -1.447   0.000  0.00  0.00    +0.000 C 
BRANCH  41  42
ATOM     42  C   UNL     1      -1.833  -2.265   0.000  0.00  0.00    +0.000 A 
ATOM     43  C   UNL     1      -2.540  -2.675   0.000  0.00  0.00    +0.000 A 
ATOM     44  C   UNL     1      -2.540  -3.503   0.000  0.00  0.00    +0.000 A 
ATOM     45  C   UNL     1      -1.833  -3.912   0.000  0.00  0.00    +0.000 A 
ATOM     46  C   UNL     1      -1.116  -3.503   0.000  0.00  0.00    +0.000 A 
ATOM     47  C   UNL     1      -1.116  -2.675   0.000  0.00  0.00    +0.000 A 
ENDBRANCH  41  42
ENDBRANCH  40  41
ENDBRANCH  26  40
ENDBRANCH   1  26
TORSDOF 13
