REMARK  Name = 
REMARK  7 active torsions:
REMARK  status: ('A' for Active; 'I' for Inactive)
REMARK    1  A    between atoms: C_8  and  C_13
REMARK    2  A    between atoms: C_8  and  N_17
REMARK    3  A    between atoms: C_9  and  C_13
REMARK    4  A    between atoms: C_9  and  O_20
REMARK    5  A    between atoms: C_10  and  N_17
REMARK    6  A    between atoms: C_11  and  C_15
REMARK    7  A    between atoms: C_14  and  O_20
REMARK                            x       y       z     vdW  Elec       q    Type
REMARK                         _______ _______ _______ _____ _____    ______ ____
ROOT
ATOM      1  C   UNL     1      -2.143   3.712   0.000  0.00  0.00    +0.000 A 
ATOM      2  C   UNL     1      -2.858   3.300   0.000  0.00  0.00    +0.000 A 
ATOM      3  C   UNL     1      -1.429   3.300   0.000  0.00  0.00    +0.000 A 
ATOM      4  C   UNL     1      -3.471   1.923   0.000  0.00  0.00    +0.000 A 
ATOM      5  C   UNL     1      -2.858   2.475   0.000  0.00  0.00    +0.000 A 
ATOM      6  C   UNL     1      -1.429   2.475   0.000  0.00  0.00    +0.000 A 
ATOM      7  C   UNL     1      -3.135   1.169   0.000  0.00  0.00    +0.000 A 
ATOM      8  C   UNL     1      -2.143   2.062   0.000  0.00  0.00    +0.000 A 
ATOM      9  O   UNL     1      -2.315   1.256   0.000  0.00  0.00    +0.000 OA
ENDROOT
BRANCH   7  11
ATOM     10  C   UNL     1      -4.373   0.455   0.000  0.00  0.00    +0.000 C 
ATOM     11  C   UNL     1      -3.548   0.455   0.000  0.00  0.00    +0.000 C 
ATOM     12  O   UNL     1      -3.135  -0.260   0.000  0.00  0.00    +0.000 OA
ENDBRANCH   7  11
BRANCH   6  13
ATOM     13  O   UNL     1      -0.715   2.062   0.000  0.00  0.00    +0.000 OA
BRANCH  13  14
ATOM     14  C   UNL     1       0.000   2.475   0.000  0.00  0.00    +0.000 C 
BRANCH  14  15
ATOM     15  C   UNL     1       0.715   2.062   0.000  0.00  0.00    +0.000 C 
ATOM     16  O   UNL     1       0.715   1.238   0.000  0.00  0.00    +0.000 OA
BRANCH  15  17
ATOM     17  C   UNL     1       1.429   2.475   0.000  0.00  0.00    +0.000 C 
BRANCH  17  18
ATOM     18  N   UNL     1       2.143   2.062   0.000  0.00  0.00    +0.000 NA
BRANCH  18  21
ATOM     19  C   UNL     1       3.572   2.062   0.000  0.00  0.00    +0.000 C 
ATOM     20  C   UNL     1       2.858   3.300   0.000  0.00  0.00    +0.000 C 
ATOM     21  C   UNL     1       2.858   2.475   0.000  0.00  0.00    +0.000 C 
ENDBRANCH  18  21
ENDBRANCH  17  18
ENDBRANCH  15  17
ENDBRANCH  14  15
ENDBRANCH  13  14
ENDBRANCH   6  13
TORSDOF 7
