REMARK  Name = 
REMARK  5 active torsions:
REMARK  status: ('A' for Active; 'I' for Inactive)
REMARK    1  A    between atoms: N_1  and  N_2
REMARK    2  A    between atoms: C_7  and  N_11
REMARK    3  A    between atoms: N_11  and  C_13
REMARK    4  A    between atoms: C_13  and  O_14
REMARK    5  A    between atoms: O_14  and  C_16
REMARK                            x       y       z     vdW  Elec       q    Type
REMARK                         _______ _______ _______ _____ _____    ______ ____
ROOT
ATOM      1  N   UNL     1       0.993  -0.537   0.000  0.00  0.00    +0.000 N 
ATOM      2  C   UNL     1       0.168  -0.537   0.000  0.00  0.00    +0.000 A 
ATOM      3  N   UNL     1       1.248   0.247   0.000  0.00  0.00    +0.000 NA
ATOM      4  C   UNL     1      -0.087   0.247   0.000  0.00  0.00    +0.000 A 
ATOM      5  O   UNL     1       0.581   0.732   0.000  0.00  0.00    +0.000 OA
ENDROOT
BRANCH   1   6
ATOM      6  N   UNL     1       1.478  -1.205   0.000  0.00  0.00    +0.000 N 
ATOM      7  C   UNL     1       2.299  -1.119   0.000  0.00  0.00    +0.000 C 
ATOM      8  C   UNL     1       1.143  -1.958   0.000  0.00  0.00    +0.000 C 
ATOM      9  C   UNL     1       2.784  -1.786   0.000  0.00  0.00    +0.000 C 
ATOM     10  C   UNL     1       1.628  -2.626   0.000  0.00  0.00    +0.000 C 
ATOM     11  O   UNL     1       2.448  -2.540   0.000  0.00  0.00    +0.000 OA
ENDBRANCH   1   6
BRANCH   4  12
ATOM     12  N   UNL     1      -0.871   0.502   0.000  0.00  0.00    +0.000 NA
BRANCH  12  13
ATOM     13  C   UNL     1      -1.043   1.309   0.000  0.00  0.00    +0.000 C 
ATOM     14  O   UNL     1      -0.430   1.861   0.000  0.00  0.00    +0.000 OA
BRANCH  13  15
ATOM     15  O   UNL     1      -1.827   1.564   0.000  0.00  0.00    +0.000 OA
BRANCH  15  16
ATOM     16  C   UNL     1      -1.999   2.371   0.000  0.00  0.00    +0.000 C 
ATOM     17  C   UNL     1      -2.784   2.626   0.000  0.00  0.00    +0.000 C 
ENDBRANCH  15  16
ENDBRANCH  13  15
ENDBRANCH  12  13
ENDBRANCH   4  12
TORSDOF 5
