REMARK  Name = 
REMARK  12 active torsions:
REMARK  status: ('A' for Active; 'I' for Inactive)
REMARK    1  A    between atoms: O_1  and  C_23
REMARK    2  A    between atoms: O_1  and  C_32
REMARK    3  A    between atoms: O_3  and  C_40
REMARK    4  A    between atoms: N_7  and  C_17
REMARK    5  A    between atoms: N_9  and  C_42
REMARK    6  A    between atoms: C_10  and  C_15
REMARK    7  A    between atoms: C_10  and  C_16
REMARK    8  A    between atoms: C_17  and  C_18
REMARK    9  A    between atoms: C_18  and  C_23
REMARK   10  A    between atoms: C_30  and  C_35
REMARK   11  A    between atoms: C_31  and  C_32
REMARK   12  A    between atoms: C_33  and  C_40
REMARK                            x       y       z     vdW  Elec       q    Type
REMARK                         _______ _______ _______ _____ _____    ______ ____
ROOT
ATOM      1  O   UNL     1       1.381   0.865   0.000  0.00  0.00    +0.000 OA
ATOM      2  C   UNL     1       1.381   0.043   0.000  0.00  0.00    +0.000 C 
ENDROOT
BRANCH   2   5
ATOM      3  N   UNL     1       2.816  -1.614   0.000  0.00  0.00    +0.000 N 
ATOM      4  C   UNL     1       2.816   0.043   0.000  0.00  0.00    +0.000 C 
ATOM      5  C   UNL     1       2.092  -0.374   0.000  0.00  0.00    +0.000 C 
ATOM      6  C   UNL     1       3.528  -0.374   0.000  0.00  0.00    +0.000 C 
ATOM      7  C   UNL     1       2.092  -1.196   0.000  0.00  0.00    +0.000 C 
ATOM      8  C   UNL     1       3.528  -1.196   0.000  0.00  0.00    +0.000 C 
ATOM      9  C   UNL     1       1.381  -1.614   0.000  0.00  0.00    +0.000 C 
ATOM     10  C   UNL     1       4.240  -1.614   0.000  0.00  0.00    +0.000 C 
ATOM     11  H   UNL     1       2.816  -2.117   0.000  0.00  0.00    +0.000 HD
BRANCH   4  12
ATOM     12  C   UNL     1       2.816   0.865   0.000  0.00  0.00    +0.000 A 
ATOM     13  C   UNL     1       3.528   1.282   0.000  0.00  0.00    +0.000 A 
ATOM     14  C   UNL     1       2.092   1.282   0.000  0.00  0.00    +0.000 A 
ATOM     15  C   UNL     1       3.528   2.105   0.000  0.00  0.00    +0.000 A 
ATOM     16  C   UNL     1       2.092   2.105   0.000  0.00  0.00    +0.000 A 
ATOM     17  C   UNL     1       2.816   2.522   0.000  0.00  0.00    +0.000 A 
BRANCH  15  20
ATOM     18  O   UNL     1       4.240   3.344   0.000  0.00  0.00    +0.000 OA
ATOM     19  O   UNL     1       4.964   2.105   0.000  0.00  0.00    +0.000 OA
ATOM     20  N   UNL     1       4.240   2.522   0.000  0.00  0.00    +0.000 N 
ENDBRANCH  15  20
ENDBRANCH   4  12
BRANCH   6  22
ATOM     21  O   UNL     1       4.240   0.865   0.000  0.00  0.00    +0.000 OA
ATOM     22  C   UNL     1       4.240   0.043   0.000  0.00  0.00    +0.000 C 
BRANCH  22  23
ATOM     23  O   UNL     1       4.964  -0.374   0.000  0.00  0.00    +0.000 OA
ATOM     24  C   UNL     1       5.676   0.043   0.000  0.00  0.00    +0.000 C 
ENDBRANCH  22  23
ENDBRANCH   6  22
ENDBRANCH   2   5
BRANCH   2  25
ATOM     25  O   UNL     1       0.669  -0.374   0.000  0.00  0.00    +0.000 OA
BRANCH  25  26
ATOM     26  C   UNL     1      -0.055   0.043   0.000  0.00  0.00    +0.000 C 
BRANCH  26  27
ATOM     27  C   UNL     1      -0.767  -0.374   0.000  0.00  0.00    +0.000 C 
BRANCH  27  28
ATOM     28  C   UNL     1      -1.479   0.043   0.000  0.00  0.00    +0.000 C 
BRANCH  28  29
ATOM     29  N   UNL     1      -2.203  -0.374   0.000  0.00  0.00    +0.000 NA
ATOM     30  C   UNL     1      -3.626  -1.196   0.000  0.00  0.00    +0.000 C 
ATOM     31  C   UNL     1      -2.915  -1.614   0.000  0.00  0.00    +0.000 C 
ATOM     32  C   UNL     1      -3.626  -0.374   0.000  0.00  0.00    +0.000 C 
ATOM     33  C   UNL     1      -2.203  -1.196   0.000  0.00  0.00    +0.000 C 
ATOM     34  C   UNL     1      -2.915   0.043   0.000  0.00  0.00    +0.000 C 
BRANCH  30  35
ATOM     35  C   UNL     1      -4.264  -0.669   0.000  0.00  0.00    +0.000 A 
ATOM     36  C   UNL     1      -5.038  -0.951   0.000  0.00  0.00    +0.000 A 
ATOM     37  C   UNL     1      -4.117   0.153   0.000  0.00  0.00    +0.000 A 
ATOM     38  C   UNL     1      -5.676  -0.411   0.000  0.00  0.00    +0.000 A 
ATOM     39  C   UNL     1      -4.755   0.681   0.000  0.00  0.00    +0.000 A 
ATOM     40  C   UNL     1      -5.529   0.399   0.000  0.00  0.00    +0.000 A 
ENDBRANCH  30  35
BRANCH  30  41
ATOM     41  C   UNL     1      -4.044  -1.908   0.000  0.00  0.00    +0.000 A 
ATOM     42  C   UNL     1      -3.626  -2.632   0.000  0.00  0.00    +0.000 A 
ATOM     43  C   UNL     1      -4.866  -1.908   0.000  0.00  0.00    +0.000 A 
ATOM     44  C   UNL     1      -4.044  -3.344   0.000  0.00  0.00    +0.000 A 
ATOM     45  C   UNL     1      -5.283  -2.632   0.000  0.00  0.00    +0.000 A 
ATOM     46  C   UNL     1      -4.866  -3.344   0.000  0.00  0.00    +0.000 A 
ENDBRANCH  30  41
ENDBRANCH  28  29
ENDBRANCH  27  28
ENDBRANCH  26  27
ENDBRANCH  25  26
ENDBRANCH   2  25
TORSDOF 12
