REMARK  Name = 
REMARK  9 active torsions:
REMARK  status: ('A' for Active; 'I' for Inactive)
REMARK    1  A    between atoms: C_2  and  O_3
REMARK    2  A    between atoms: O_3  and  C_4
REMARK    3  A    between atoms: C_5  and  O_6
REMARK    4  A    between atoms: C_10  and  C_12
REMARK    5  A    between atoms: C_12  and  C_13
REMARK    6  A    between atoms: C_12  and  N_18
REMARK    7  A    between atoms: C_13  and  S_14
REMARK    8  A    between atoms: C_24  and  N_25
REMARK    9  A    between atoms: C_26  and  C_28
REMARK                            x       y       z     vdW  Elec       q    Type
REMARK                         _______ _______ _______ _____ _____    ______ ____
ROOT
ATOM      1  C   UNL     1      -0.171  -0.698   0.000  0.00  0.00    +0.000 C 
ENDROOT
BRANCH   1   2
ATOM      2  N   UNL     1       0.654  -0.698   0.000  0.00  0.00    +0.000 N 
ATOM      3  C   UNL     1       1.139  -0.030   0.000  0.00  0.00    +0.000 C 
ATOM      4  C   UNL     1       1.923  -0.285   0.000  0.00  0.00    +0.000 A 
ATOM      5  C   UNL     1       2.638   0.127   0.000  0.00  0.00    +0.000 A 
ATOM      6  C   UNL     1       3.352  -0.285   0.000  0.00  0.00    +0.000 A 
ATOM      7  C   UNL     1       3.352  -1.110   0.000  0.00  0.00    +0.000 A 
ATOM      8  C   UNL     1       2.638  -1.523   0.000  0.00  0.00    +0.000 A 
ATOM      9  C   UNL     1       1.923  -1.110   0.000  0.00  0.00    +0.000 A 
ATOM     10  C   UNL     1       1.139  -1.365   0.000  0.00  0.00    +0.000 C 
ATOM     11  O   UNL     1       0.884  -2.150   0.000  0.00  0.00    +0.000 OA
BRANCH   8  12
ATOM     12  N   UNL     1       2.638  -2.348   0.000  0.00  0.00    +0.000 NA
ATOM     13  C   UNL     1       3.352  -2.760   0.000  0.00  0.00    +0.000 C 
ATOM     14  O   UNL     1       4.067  -2.348   0.000  0.00  0.00    +0.000 OA
BRANCH  13  15
ATOM     15  C   UNL     1       3.352  -3.585   0.000  0.00  0.00    +0.000 C 
ATOM     16  C   UNL     1       3.765  -4.300   0.000  0.00  0.00    +0.000 C 
ATOM     17  C   UNL     1       2.940  -4.300   0.000  0.00  0.00    +0.000 C 
ENDBRANCH  13  15
ENDBRANCH   8  12
ENDBRANCH   1   2
BRANCH   1  22
ATOM     18  C   UNL     1      -1.821   0.731   0.000  0.00  0.00    +0.000 A 
ATOM     19  C   UNL     1      -1.409   1.446   0.000  0.00  0.00    +0.000 A 
ATOM     20  C   UNL     1      -0.584   1.446   0.000  0.00  0.00    +0.000 A 
ATOM     21  C   UNL     1      -0.171   0.731   0.000  0.00  0.00    +0.000 A 
ATOM     22  C   UNL     1      -0.584   0.017   0.000  0.00  0.00    +0.000 A 
ATOM     23  C   UNL     1      -1.409   0.017   0.000  0.00  0.00    +0.000 A 
BRANCH  19  24
ATOM     24  O   UNL     1      -1.821   2.160   0.000  0.00  0.00    +0.000 OA
ATOM     25  C   UNL     1      -1.409   2.874   0.000  0.00  0.00    +0.000 C 
ENDBRANCH  19  24
BRANCH  18  26
ATOM     26  O   UNL     1      -2.646   0.731   0.000  0.00  0.00    +0.000 OA
BRANCH  26  28
ATOM     27  C   UNL     1      -3.884   1.446   0.000  0.00  0.00    +0.000 C 
ATOM     28  C   UNL     1      -3.059   1.446   0.000  0.00  0.00    +0.000 C 
ENDBRANCH  26  28
ENDBRANCH  18  26
ENDBRANCH   1  22
BRANCH   1  29
ATOM     29  C   UNL     1      -0.584  -1.412   0.000  0.00  0.00    +0.000 C 
BRANCH  29  30
ATOM     30  S   UNL     1      -1.409  -1.412   0.000  0.00  0.00    +0.000 S 
ATOM     31  C   UNL     1      -1.409  -0.587   0.000  0.00  0.00    +0.000 C 
ATOM     32  O   UNL     1      -1.409  -2.237   0.000  0.00  0.00    +0.000 OA
ATOM     33  O   UNL     1      -2.234  -1.412   0.000  0.00  0.00    +0.000 OA
ENDBRANCH  29  30
ENDBRANCH   1  29
TORSDOF 9
