REMARK  Name = 
REMARK  9 active torsions:
REMARK  status: ('A' for Active; 'I' for Inactive)
REMARK    1  A    between atoms: CA_3  and  C_8
REMARK    2  A    between atoms: C_4  and  CA_9
REMARK    3  A    between atoms: CA_9  and  N_15
REMARK    4  A    between atoms: N_15  and  C_18
REMARK    5  A    between atoms: C_18  and  C_19
REMARK    6  A    between atoms: C_18  and  C_20
REMARK    7  A    between atoms: C_19  and  O_21
REMARK    8  A    between atoms: C_20  and  C_23
REMARK    9  A    between atoms: O_21  and  C_24
REMARK                            x       y       z     vdW  Elec       q    Type
REMARK                         _______ _______ _______ _____ _____    ______ ____
ROOT
ATOM      1  N   ALA A   1       1.304  -0.601   0.000  0.00  0.00    +0.000 N 
ATOM      2  C   ALA A   1       2.091  -0.932   0.000  0.00  0.00    +0.000 C 
ATOM      3  CA  ALA A   1       1.429   0.228   0.000  0.00  0.00    +0.000 C 
ATOM      4  C   ALA A   1       0.600  -1.014   0.000  0.00  0.00    +0.000 C 
ATOM      5  C   ALA A   1       2.629  -0.310   0.000  0.00  0.00    +0.000 C 
ATOM      6  C   ALA A   1       2.340  -1.718   0.000  0.00  0.00    +0.000 C 
ATOM      7  C   ALA A   1       2.215   0.435   0.000  0.00  0.00    +0.000 C 
ATOM      8  O   ALA A   1       0.600  -1.843   0.000  0.00  0.00    +0.000 OA
ATOM      9  C   ALA A   1       3.458  -0.476   0.000  0.00  0.00    +0.000 C 
ATOM     10  C   ALA A   1       3.126  -1.884   0.000  0.00  0.00    +0.000 C 
ATOM     11  C   ALA A   1       3.706  -1.263   0.000  0.00  0.00    +0.000 C 
ENDROOT
BRANCH   3  12
ATOM     12  C   ALA A   1       1.387   1.056   0.000  0.00  0.00    +0.000 C 
ATOM     13  O   ALA A   1       2.132   1.511   0.000  0.00  0.00    +0.000 OA
ATOM     14  OXT ALA A   1       0.683   1.470   0.000  0.00  0.00    +0.000 OA
ENDBRANCH   3  12
BRANCH   4  15
ATOM     15  CA  ALA A   1      -0.103  -0.601   0.000  0.00  0.00    +0.000 C 
ATOM     16  CB  ALA A   1      -0.103   0.228   0.000  0.00  0.00    +0.000 C 
BRANCH  15  17
ATOM     17  N   ALA A   1      -0.849  -1.014   0.000  0.00  0.00    +0.000 NA
BRANCH  17  18
ATOM     18  C   UNK A   0      -1.553  -0.601   0.000  0.00  0.00    +0.000 C 
BRANCH  18  19
ATOM     19  C   UNK A   0      -1.553   0.228   0.000  0.00  0.00    +0.000 C 
ATOM     20  O   UNK A   0      -2.257   0.642   0.000  0.00  0.00    +0.000 OA
BRANCH  19  21
ATOM     21  O   UNK A   0      -0.849   0.642   0.000  0.00  0.00    +0.000 OA
BRANCH  21  22
ATOM     22  C   UNK A   0      -0.849   1.470   0.000  0.00  0.00    +0.000 C 
ATOM     23  C   UNK A   0      -1.553   1.884   0.000  0.00  0.00    +0.000 C 
ENDBRANCH  21  22
ENDBRANCH  19  21
ENDBRANCH  18  19
BRANCH  18  24
ATOM     24  C   UNK A   0      -2.257  -1.014   0.000  0.00  0.00    +0.000 C 
BRANCH  24  25
ATOM     25  C   UNK A   0      -3.002  -0.601   0.000  0.00  0.00    +0.000 C 
ATOM     26  C   UNK A   0      -3.706  -1.014   0.000  0.00  0.00    +0.000 C 
ENDBRANCH  24  25
ENDBRANCH  18  24
ENDBRANCH  17  18
ENDBRANCH  15  17
ENDBRANCH   4  15
TORSDOF 9
