REMARK  Name = 
REMARK  4 active torsions:
REMARK  status: ('A' for Active; 'I' for Inactive)
REMARK    1  A    between atoms: N_2  and  C_3
REMARK    2  A    between atoms: C_3  and  C_4
REMARK    3  A    between atoms: C_4  and  C_5
REMARK    4  A    between atoms: C_5  and  C_6
REMARK                            x       y       z     vdW  Elec       q    Type
REMARK                         _______ _______ _______ _____ _____    ______ ____
ROOT
ATOM      1  C   UNL     1       0.078  -0.205   0.000  0.00  0.00    +0.000 A 
ATOM      2  C   UNL     1       0.078  -1.032   0.000  0.00  0.00    +0.000 A 
ATOM      3  C   UNL     1       0.793  -1.442   0.000  0.00  0.00    +0.000 A 
ATOM      4  C   UNL     1       1.509  -1.032   0.000  0.00  0.00    +0.000 A 
ATOM      5  C   UNL     1       1.509  -0.205   0.000  0.00  0.00    +0.000 A 
ATOM      6  C   UNL     1       0.793   0.205   0.000  0.00  0.00    +0.000 A 
ATOM      7  O   UNL     1       2.291   0.050   0.000  0.00  0.00    +0.000 OA
ATOM      8  C   UNL     1       2.774  -0.621   0.000  0.00  0.00    +0.000 C 
ATOM      9  O   UNL     1       2.291  -1.287   0.000  0.00  0.00    +0.000 OA
ENDROOT
BRANCH   1  10
ATOM     10  C   UNL     1      -0.632   0.205   0.000  0.00  0.00    +0.000 C 
BRANCH  10  11
ATOM     11  C   UNL     1      -1.348  -0.205   0.000  0.00  0.00    +0.000 C 
BRANCH  11  12
ATOM     12  C   UNL     1      -2.058   0.205   0.000  0.00  0.00    +0.000 C 
ATOM     13  C   UNL     1      -2.774  -0.205   0.000  0.00  0.00    +0.000 C 
BRANCH  12  15
ATOM     14  N   UNL     1      -2.774   1.442   0.000  0.00  0.00    +0.000 NA
ATOM     15  N   UNL     1      -2.058   1.026   0.000  0.00  0.00    +0.000 NA
ENDBRANCH  12  15
ENDBRANCH  11  12
ENDBRANCH  10  11
ENDBRANCH   1  10
TORSDOF 4
