REMARK  Name = 
REMARK  3 active torsions:
REMARK  status: ('A' for Active; 'I' for Inactive)
REMARK    1  A    between atoms: C_1  and  C_2
REMARK    2  A    between atoms: C_2  and  C_5
REMARK    3  A    between atoms: C_5  and  C_7
REMARK                            x       y       z     vdW  Elec       q    Type
REMARK                         _______ _______ _______ _____ _____    ______ ____
ROOT
ATOM      1  C   UNL     1      -0.369  -0.218   0.000  0.00  0.00    +0.000 C 
ATOM      2  O   UNL     1      -0.369  -1.038   0.000  0.00  0.00    +0.000 OA
ENDROOT
BRANCH   1   3
ATOM      3  C   UNL     1      -1.080   0.215   0.000  0.00  0.00    +0.000 C 
ATOM      4  O   UNL     1      -1.080   1.038   0.000  0.00  0.00    +0.000 OA
ATOM      5  O   UNL     1      -1.786  -0.195   0.000  0.00  0.00    +0.000 OA
ENDBRANCH   1   3
BRANCH   1   6
ATOM      6  C   UNL     1       0.335   0.195   0.000  0.00  0.00    +0.000 C 
ATOM      7  C   UNL     1       0.335   1.020   0.000  0.00  0.00    +0.000 C 
BRANCH   6   8
ATOM      8  C   UNL     1       1.047  -0.210   0.000  0.00  0.00    +0.000 C 
ATOM      9  C   UNL     1       1.786   0.176   0.000  0.00  0.00    +0.000 C 
ENDBRANCH   6   8
ENDBRANCH   1   6
TORSDOF 3
