REMARK  Name = 
REMARK  5 active torsions:
REMARK  status: ('A' for Active; 'I' for Inactive)
REMARK    1  A    between atoms: C_1  and  C_2
REMARK    2  A    between atoms: C_1  and  O_32
REMARK    3  A    between atoms: C_3  and  O_4
REMARK    4  A    between atoms: C_6  and  O_7
REMARK    5  A    between atoms: C_19  and  O_20
REMARK                            x       y       z     vdW  Elec       q    Type
REMARK                         _______ _______ _______ _____ _____    ______ ____
ROOT
ATOM      1  C   UNL     1       1.076  -1.459   0.000  0.00  0.00    +0.000 C 
ATOM      2  C   UNL     1       1.791  -1.871   0.000  0.00  0.00    +0.000 C 
ATOM      3  C   UNL     1       2.505  -1.459   0.000  0.00  0.00    +0.000 C 
ATOM      4  C   UNL     1       2.505  -0.634   0.000  0.00  0.00    +0.000 C 
ATOM      5  C   UNL     1       1.791  -0.221   0.000  0.00  0.00    +0.000 C 
ATOM      6  C   UNL     1       1.791   0.604   0.000  0.00  0.00    +0.000 C 
ATOM      7  N   UNL     1       1.076   1.016   0.000  0.00  0.00    +0.000 NA
ATOM      8  C   UNL     1       1.076   1.841   0.000  0.00  0.00    +0.000 C 
ATOM      9  C   UNL     1       0.362   2.254   0.000  0.00  0.00    +0.000 C 
ATOM     10  C   UNL     1      -0.353   1.841   0.000  0.00  0.00    +0.000 A 
ATOM     11  C   UNL     1      -1.137   2.096   0.000  0.00  0.00    +0.000 A 
ATOM     12  C   UNL     1      -1.473   2.850   0.000  0.00  0.00    +0.000 A 
ATOM     13  C   UNL     1      -2.293   2.936   0.000  0.00  0.00    +0.000 A 
ATOM     14  C   UNL     1      -2.778   2.269   0.000  0.00  0.00    +0.000 A 
ATOM     15  C   UNL     1      -2.443   1.515   0.000  0.00  0.00    +0.000 A 
ATOM     16  C   UNL     1      -1.622   1.429   0.000  0.00  0.00    +0.000 A 
ATOM     17  N   UNL     1      -1.137   0.761   0.000  0.00  0.00    +0.000 NA
ATOM     18  C   UNL     1      -0.353   1.016   0.000  0.00  0.00    +0.000 A 
ATOM     19  C   UNL     1       0.362   0.604   0.000  0.00  0.00    +0.000 C 
ATOM     20  C   UNL     1       0.362  -0.221   0.000  0.00  0.00    +0.000 C 
ATOM     21  C   UNL     1       1.076  -0.634   0.000  0.00  0.00    +0.000 C 
ENDROOT
BRANCH   1  22
ATOM     22  C   UNL     1       0.362  -1.871   0.000  0.00  0.00    +0.000 C 
ATOM     23  O   UNL     1       0.362  -2.696   0.000  0.00  0.00    +0.000 OA
BRANCH  22  24
ATOM     24  O   UNL     1      -0.353  -1.459   0.000  0.00  0.00    +0.000 OA
ATOM     25  C   UNL     1      -1.067  -1.871   0.000  0.00  0.00    +0.000 C 
ENDBRANCH  22  24
ENDBRANCH   1  22
BRANCH   2  26
ATOM     26  O   UNL     1       1.791  -2.696   0.000  0.00  0.00    +0.000 OA
ATOM     27  C   UNL     1       2.505  -3.109   0.000  0.00  0.00    +0.000 C 
ENDBRANCH   2  26
BRANCH   3  28
ATOM     28  O   UNL     1       3.220  -1.871   0.000  0.00  0.00    +0.000 OA
ATOM     29  C   UNL     1       3.934  -1.459   0.000  0.00  0.00    +0.000 C 
ENDBRANCH   3  28
BRANCH  14  30
ATOM     30  O   UNL     1      -3.599   2.355   0.000  0.00  0.00    +0.000 OA
ATOM     31  C   UNL     1      -3.934   3.109   0.000  0.00  0.00    +0.000 C 
ENDBRANCH  14  30
TORSDOF 5
