REMARK  Name = 
REMARK  1 active torsions:
REMARK  status: ('A' for Active; 'I' for Inactive)
REMARK    1  A    between atoms: C_10  and  N_13
REMARK                            x       y       z     vdW  Elec       q    Type
REMARK                         _______ _______ _______ _____ _____    ______ ____
ROOT
ATOM      1  C   UNL     1       1.429  -1.856   0.000  0.00  0.00    +0.000 C 
ATOM      2  C   UNL     1       2.143  -0.619   0.000  0.00  0.00    +0.000 A 
ATOM      3  C   UNL     1       2.143   0.206   0.000  0.00  0.00    +0.000 A 
ATOM      4  C   UNL     1       0.714  -0.619   0.000  0.00  0.00    +0.000 A 
ATOM      5  C   UNL     1       1.429  -1.031   0.000  0.00  0.00    +0.000 A 
ATOM      6  C   UNL     1       1.429   0.619   0.000  0.00  0.00    +0.000 A 
ATOM      7  N   UNL     1       0.714   0.206   0.000  0.00  0.00    +0.000 N 
ATOM      8  O   UNL     1       1.429   1.444   0.000  0.00  0.00    +0.000 OA
ENDROOT
BRANCH   7  13
ATOM      9  C   UNL     1       0.000   1.444   0.000  0.00  0.00    +0.000 A 
ATOM     10  C   UNL     1      -0.714   0.206   0.000  0.00  0.00    +0.000 A 
ATOM     11  C   UNL     1      -0.714   1.856   0.000  0.00  0.00    +0.000 A 
ATOM     12  C   UNL     1      -1.429   0.619   0.000  0.00  0.00    +0.000 A 
ATOM     13  C   UNL     1       0.000   0.619   0.000  0.00  0.00    +0.000 A 
ATOM     14  C   UNL     1      -1.429   1.444   0.000  0.00  0.00    +0.000 A 
ATOM     15  O   UNL     1      -2.143   1.856   0.000  0.00  0.00    +0.000 OA
ENDBRANCH   7  13
TORSDOF 1
