REMARK  Name = 
REMARK  4 active torsions:
REMARK  status: ('A' for Active; 'I' for Inactive)
REMARK    1  A    between atoms: C_14  and  C_22
REMARK    2  A    between atoms: C_15  and  C_23
REMARK    3  A    between atoms: C_22  and  C_24
REMARK    4  A    between atoms: C_23  and  C_25
REMARK                            x       y       z     vdW  Elec       q    Type
REMARK                         _______ _______ _______ _____ _____    ______ ____
ROOT
ATOM      1 CA   UNL     1       0.713  -0.252   0.000  0.00  0.00    +0.000 Ca
ENDROOT
TORSDOF 0
REMARK  Name = 
REMARK  4 active torsions:
REMARK  status: ('A' for Active; 'I' for Inactive)
REMARK    1  A    between atoms: C_14  and  C_22
REMARK    2  A    between atoms: C_15  and  C_23
REMARK    3  A    between atoms: C_22  and  C_24
REMARK    4  A    between atoms: C_23  and  C_25
REMARK                            x       y       z     vdW  Elec       q    Type
REMARK                         _______ _______ _______ _____ _____    ______ ____
ROOT
ATOM      1  O   UNL     1       0.783   2.924   0.000  0.00  0.00    +0.000 OA
ATOM      2  O   UNL     1      -0.105   0.986   0.000  0.00  0.00    +0.000 OA
ATOM      3  O   UNL     1       1.672   0.986   0.000  0.00  0.00    +0.000 OA
ATOM      4  O   UNL     1       2.245   2.693   0.000  0.00  0.00    +0.000 OA
ATOM      5  C   UNL     1       0.126   2.427   0.000  0.00  0.00    +0.000 C 
ATOM      6  C   UNL     1       0.364   1.644   0.000  0.00  0.00    +0.000 C 
ATOM      7  C   UNL     1       1.189   1.644   0.000  0.00  0.00    +0.000 C 
ATOM      8  C   UNL     1       1.448   2.427   0.000  0.00  0.00    +0.000 C 
ENDROOT
BRANCH   5  10
ATOM      9  O   UNL     1      -0.839   3.497   0.000  0.00  0.00    +0.000 OA
ATOM     10  C   UNL     1      -0.671   2.693   0.000  0.00  0.00    +0.000 C 
BRANCH  10  12
ATOM     11  O   UNL     1      -2.056   2.399   0.000  0.00  0.00    +0.000 OA
ATOM     12  C   UNL     1      -1.287   2.140   0.000  0.00  0.00    +0.000 C 
ENDBRANCH  10  12
ENDBRANCH   5  10
TORSDOF 2
REMARK  Name = 
REMARK  4 active torsions:
REMARK  status: ('A' for Active; 'I' for Inactive)
REMARK    1  A    between atoms: C_14  and  C_22
REMARK    2  A    between atoms: C_15  and  C_23
REMARK    3  A    between atoms: C_22  and  C_24
REMARK    4  A    between atoms: C_23  and  C_25
REMARK                            x       y       z     vdW  Elec       q    Type
REMARK                         _______ _______ _______ _____ _____    ______ ____
ROOT
ATOM      1  O   UNL     1       0.595  -1.560   0.000  0.00  0.00    +0.000 OA
ATOM      2  O   UNL     1      -0.294  -3.497   0.000  0.00  0.00    +0.000 OA
ATOM      3  O   UNL     1       1.483  -3.497   0.000  0.00  0.00    +0.000 OA
ATOM      4  O   UNL     1       2.056  -1.784   0.000  0.00  0.00    +0.000 OA
ATOM      5  C   UNL     1      -0.056  -2.049   0.000  0.00  0.00    +0.000 C 
ATOM      6  C   UNL     1       0.182  -2.833   0.000  0.00  0.00    +0.000 C 
ATOM      7  C   UNL     1       1.000  -2.833   0.000  0.00  0.00    +0.000 C 
ATOM      8  C   UNL     1       1.259  -2.049   0.000  0.00  0.00    +0.000 C 
ENDROOT
BRANCH   5  10
ATOM      9  O   UNL     1      -1.028  -0.986   0.000  0.00  0.00    +0.000 OA
ATOM     10  C   UNL     1      -0.860  -1.784   0.000  0.00  0.00    +0.000 C 
BRANCH  10  12
ATOM     11  O   UNL     1      -2.245  -2.084   0.000  0.00  0.00    +0.000 OA
ATOM     12  C   UNL     1      -1.476  -2.343   0.000  0.00  0.00    +0.000 C 
ENDBRANCH  10  12
ENDBRANCH   5  10
TORSDOF 2
