REMARK  Name = 
REMARK  9 active torsions:
REMARK  status: ('A' for Active; 'I' for Inactive)
REMARK    1  A    between atoms: C_2  and  C_3
REMARK    2  A    between atoms: C_2  and  N_17
REMARK    3  A    between atoms: C_6  and  C_9
REMARK    4  A    between atoms: N_11  and  C_12
REMARK    5  A    between atoms: C_12  and  C_13
REMARK    6  A    between atoms: C_13  and  C_14
REMARK    7  A    between atoms: C_18  and  C_30
REMARK    8  A    between atoms: C_20  and  C_22
REMARK    9  A    between atoms: C_35  and  O_40
REMARK                            x       y       z     vdW  Elec       q    Type
REMARK                         _______ _______ _______ _____ _____    ______ ____
ROOT
ATOM      1  N   UNL     1      -0.754  -1.314   0.000  0.00  0.00    +0.000 N 
ATOM      2  C   UNL     1       0.000  -1.650   0.000  0.00  0.00    +0.000 A 
ATOM      3  C   UNL     1      -0.086  -2.470   0.000  0.00  0.00    +0.000 A 
ATOM      4  C   UNL     1      -0.893  -2.642   0.000  0.00  0.00    +0.000 A 
ATOM      5  N   UNL     1      -1.306  -1.927   0.000  0.00  0.00    +0.000 NA
ENDROOT
BRANCH   2   6
ATOM      6  C   UNL     1       0.715  -1.238   0.000  0.00  0.00    +0.000 A 
ATOM      7  C   UNL     1       0.715  -0.412   0.000  0.00  0.00    +0.000 A 
ATOM      8  C   UNL     1       1.429   0.000   0.000  0.00  0.00    +0.000 A 
ATOM      9  C   UNL     1       2.143  -0.412   0.000  0.00  0.00    +0.000 A 
ATOM     10  C   UNL     1       2.858   0.000   0.000  0.00  0.00    +0.000 A 
ATOM     11  C   UNL     1       3.572  -0.412   0.000  0.00  0.00    +0.000 A 
ATOM     12  C   UNL     1       3.572  -1.238   0.000  0.00  0.00    +0.000 A 
ATOM     13  C   UNL     1       2.858  -1.650   0.000  0.00  0.00    +0.000 A 
ATOM     14  C   UNL     1       2.143  -1.238   0.000  0.00  0.00    +0.000 A 
ATOM     15  C   UNL     1       1.429  -1.650   0.000  0.00  0.00    +0.000 A 
BRANCH  11  16
ATOM     16  O   UNL     1       4.287   0.000   0.000  0.00  0.00    +0.000 OA
ATOM     17  C   UNL     1       5.001  -0.412   0.000  0.00  0.00    +0.000 C 
ENDBRANCH  11  16
ENDBRANCH   2   6
BRANCH   4  18
ATOM     18  C   UNL     1      -1.229  -3.396   0.000  0.00  0.00    +0.000 A 
ATOM     19  C   UNL     1      -0.744  -4.063   0.000  0.00  0.00    +0.000 A 
ATOM     20  C   UNL     1      -1.079  -4.817   0.000  0.00  0.00    +0.000 A 
ATOM     21  C   UNL     1      -1.900  -4.903   0.000  0.00  0.00    +0.000 A 
ATOM     22  C   UNL     1      -2.385  -4.236   0.000  0.00  0.00    +0.000 A 
ATOM     23  C   UNL     1      -2.049  -3.482   0.000  0.00  0.00    +0.000 A 
ATOM     24 CL   UNL     1      -3.205  -4.322   0.000  0.00  0.00    +0.000 Cl
ATOM     25 CL   UNL     1      -0.595  -5.484   0.000  0.00  0.00    +0.000 Cl
ENDBRANCH   4  18
BRANCH   1  27
ATOM     26  C   UNL     1      -0.312   0.045   0.000  0.00  0.00    +0.000 C 
ATOM     27  C   UNL     1      -0.925  -0.507   0.000  0.00  0.00    +0.000 C 
BRANCH  27  28
ATOM     28  C   UNL     1      -1.710  -0.253   0.000  0.00  0.00    +0.000 A 
ATOM     29  C   UNL     1      -2.323  -0.805   0.000  0.00  0.00    +0.000 A 
ATOM     30  C   UNL     1      -3.107  -0.550   0.000  0.00  0.00    +0.000 A 
ATOM     31  C   UNL     1      -3.279   0.257   0.000  0.00  0.00    +0.000 A 
ATOM     32  C   UNL     1      -2.666   0.809   0.000  0.00  0.00    +0.000 A 
ATOM     33  C   UNL     1      -1.881   0.554   0.000  0.00  0.00    +0.000 A 
BRANCH  31  34
ATOM     34  C   UNL     1      -4.064   0.512   0.000  0.00  0.00    +0.000 C 
ATOM     35  O   UNL     1      -4.677  -0.040   0.000  0.00  0.00    +0.000 OA
ATOM     36  N   UNL     1      -4.235   1.319   0.000  0.00  0.00    +0.000 NA
BRANCH  36  37
ATOM     37  C   UNL     1      -5.020   1.574   0.000  0.00  0.00    +0.000 C 
BRANCH  37  38
ATOM     38  C   UNL     1      -5.191   2.381   0.000  0.00  0.00    +0.000 C 
BRANCH  38  39
ATOM     39  C   UNL     1      -5.976   2.636   0.000  0.00  0.00    +0.000 C 
ATOM     40  O   UNL     1      -6.147   3.443   0.000  0.00  0.00    +0.000 OA
ATOM     41  O   UNL     1      -6.589   2.084   0.000  0.00  0.00    +0.000 OA
ENDBRANCH  38  39
ENDBRANCH  37  38
ENDBRANCH  36  37
ENDBRANCH  31  34
ENDBRANCH  27  28
ENDBRANCH   1  27
TORSDOF 9
