REMARK  Name = 
REMARK  31 active torsions:
REMARK  status: ('A' for Active; 'I' for Inactive)
REMARK    1  A    between atoms: C_5  and  C_6
REMARK    2  A    between atoms: C_5  and  N_49
REMARK    3  A    between atoms: C_6  and  O_52
REMARK    4  A    between atoms: C_7  and  C_8
REMARK    5  A    between atoms: C_7  and  O_52
REMARK    6  A    between atoms: C_8  and  O_53
REMARK    7  A    between atoms: C_9  and  C_10
REMARK    8  A    between atoms: C_9  and  O_53
REMARK    9  A    between atoms: C_10  and  O_54
REMARK   10  A    between atoms: C_11  and  C_12
REMARK   11  A    between atoms: C_11  and  O_54
REMARK   12  A    between atoms: C_12  and  O_55
REMARK   13  A    between atoms: C_13  and  C_14
REMARK   14  A    between atoms: C_13  and  O_55
REMARK   15  A    between atoms: C_14  and  O_56
REMARK   16  A    between atoms: C_15  and  C_16
REMARK   17  A    between atoms: C_15  and  O_56
REMARK   18  A    between atoms: C_16  and  O_57
REMARK   19  A    between atoms: C_17  and  C_18
REMARK   20  A    between atoms: C_17  and  O_57
REMARK   21  A    between atoms: C_18  and  O_58
REMARK   22  A    between atoms: C_21  and  C_28
REMARK   23  A    between atoms: C_21  and  C_36
REMARK   24  A    between atoms: C_24  and  C_27
REMARK   25  A    between atoms: C_24  and  N_46
REMARK   26  A    between atoms: C_26  and  C_29
REMARK   27  A    between atoms: C_26  and  O_59
REMARK   28  A    between atoms: C_30  and  O_58
REMARK   29  A    between atoms: C_31  and  O_60
REMARK   30  A    between atoms: C_37  and  O_59
REMARK   31  A    between atoms: C_38  and  O_60
REMARK                            x       y       z     vdW  Elec       q    Type
REMARK                         _______ _______ _______ _____ _____    ______ ____
ROOT
ATOM      1  C   UNL     1      -3.722   0.615   0.000  0.00  0.00    +0.000 C 
ENDROOT
BRANCH   1   2
ATOM      2  C   UNL     1      -4.436   1.028   0.000  0.00  0.00    +0.000 C 
BRANCH   2   7
ATOM      3  C   UNL     1      -5.905   0.951   0.000  0.00  0.00    +0.000 A 
ATOM      4  C   UNL     1      -6.457   0.338   0.000  0.00  0.00    +0.000 A 
ATOM      5  N   UNL     1      -6.044  -0.377   0.000  0.00  0.00    +0.000 NA
ATOM      6  N   UNL     1      -5.237  -0.205   0.000  0.00  0.00    +0.000 NA
ATOM      7  N   UNL     1      -5.151   0.615   0.000  0.00  0.00    +0.000 N 
BRANCH   4   8
ATOM      8  C   UNL     1      -7.277   0.424   0.000  0.00  0.00    +0.000 C 
BRANCH   8   9
ATOM      9  O   UNL     1      -7.613   1.177   0.000  0.00  0.00    +0.000 OA
BRANCH   9  15
ATOM     10  C   UNL     1      -9.589   2.104   0.000  0.00  0.00    +0.000 A 
ATOM     11  C   UNL     1      -9.739   0.682   0.000  0.00  0.00    +0.000 A 
ATOM     12  C   UNL     1     -10.074   1.436   0.000  0.00  0.00    +0.000 A 
ATOM     13  C   UNL     1      -8.769   2.017   0.000  0.00  0.00    +0.000 A 
ATOM     14  C   UNL     1      -8.918   0.596   0.000  0.00  0.00    +0.000 A 
ATOM     15  C   UNL     1      -8.433   1.264   0.000  0.00  0.00    +0.000 A 
ATOM     16  I   UNL     1      -8.284   2.685   0.000  0.00  0.00    +0.000 I 
ATOM     17  I   UNL     1      -8.582  -0.157   0.000  0.00  0.00    +0.000 I 
BRANCH  12  18
ATOM     18  O   UNL     1     -10.895   1.522   0.000  0.00  0.00    +0.000 OA
BRANCH  18  24
ATOM     19  C   UNL     1     -12.685   0.274   0.000  0.00  0.00    +0.000 A 
ATOM     20  C   UNL     1     -11.529  -0.566   0.000  0.00  0.00    +0.000 A 
ATOM     21  C   UNL     1     -12.349  -0.480   0.000  0.00  0.00    +0.000 A 
ATOM     22  C   UNL     1     -12.200   0.941   0.000  0.00  0.00    +0.000 A 
ATOM     23  C   UNL     1     -11.044   0.101   0.000  0.00  0.00    +0.000 A 
ATOM     24  C   UNL     1     -11.380   0.855   0.000  0.00  0.00    +0.000 A 
ATOM     25  I   UNL     1     -12.536   1.695   0.000  0.00  0.00    +0.000 I 
ATOM     26  I   UNL     1     -10.223   0.015   0.000  0.00  0.00    +0.000 I 
BRANCH  21  27
ATOM     27  C   UNL     1     -12.834  -1.147   0.000  0.00  0.00    +0.000 C 
BRANCH  27  28
ATOM     28  C   UNL     1     -13.655  -1.061   0.000  0.00  0.00    +0.000 C 
ATOM     29  O   UNL     1     -14.140  -1.728   0.000  0.00  0.00    +0.000 OA
ATOM     30  O   UNL     1     -13.990  -0.307   0.000  0.00  0.00    +0.000 OA
ENDBRANCH  27  28
ENDBRANCH  21  27
ENDBRANCH  18  24
ENDBRANCH  12  18
ENDBRANCH   9  15
ENDBRANCH   8   9
ENDBRANCH   4   8
ENDBRANCH   2   7
ENDBRANCH   1   2
BRANCH   1  31
ATOM     31  O   UNL     1      -3.007   1.028   0.000  0.00  0.00    +0.000 OA
BRANCH  31  32
ATOM     32  C   UNL     1      -2.293   0.615   0.000  0.00  0.00    +0.000 C 
BRANCH  32  33
ATOM     33  C   UNL     1      -1.579   1.028   0.000  0.00  0.00    +0.000 C 
BRANCH  33  34
ATOM     34  O   UNL     1      -0.864   0.615   0.000  0.00  0.00    +0.000 OA
BRANCH  34  35
ATOM     35  C   UNL     1      -0.150   1.028   0.000  0.00  0.00    +0.000 C 
BRANCH  35  36
ATOM     36  C   UNL     1       0.565   0.615   0.000  0.00  0.00    +0.000 C 
BRANCH  36  37
ATOM     37  O   UNL     1       1.279   1.028   0.000  0.00  0.00    +0.000 OA
BRANCH  37  38
ATOM     38  C   UNL     1       1.994   0.615   0.000  0.00  0.00    +0.000 C 
BRANCH  38  39
ATOM     39  C   UNL     1       2.708   1.028   0.000  0.00  0.00    +0.000 C 
BRANCH  39  40
ATOM     40  O   UNL     1       3.423   0.615   0.000  0.00  0.00    +0.000 OA
BRANCH  40  41
ATOM     41  C   UNL     1       4.137   1.028   0.000  0.00  0.00    +0.000 C 
BRANCH  41  42
ATOM     42  C   UNL     1       4.852   0.615   0.000  0.00  0.00    +0.000 C 
BRANCH  42  43
ATOM     43  O   UNL     1       5.566   1.028   0.000  0.00  0.00    +0.000 OA
BRANCH  43  44
ATOM     44  C   UNL     1       6.280   0.615   0.000  0.00  0.00    +0.000 C 
BRANCH  44  45
ATOM     45  C   UNL     1       6.995   1.028   0.000  0.00  0.00    +0.000 C 
BRANCH  45  46
ATOM     46  O   UNL     1       7.710   0.615   0.000  0.00  0.00    +0.000 OA
BRANCH  46  47
ATOM     47  C   UNL     1       8.424   1.028   0.000  0.00  0.00    +0.000 C 
BRANCH  47  48
ATOM     48  C   UNL     1       9.138   0.615   0.000  0.00  0.00    +0.000 C 
BRANCH  48  49
ATOM     49  O   UNL     1       9.853   1.028   0.000  0.00  0.00    +0.000 OA
BRANCH  49  55
ATOM     50  C   UNL     1      11.996   0.615   0.000  0.00  0.00    +0.000 A 
ATOM     51  C   UNL     1      11.282  -0.622   0.000  0.00  0.00    +0.000 A 
ATOM     52  C   UNL     1      11.282   1.028   0.000  0.00  0.00    +0.000 A 
ATOM     53  C   UNL     1      10.567  -0.210   0.000  0.00  0.00    +0.000 A 
ATOM     54  C   UNL     1      11.996  -0.210   0.000  0.00  0.00    +0.000 A 
ATOM     55  C   UNL     1      10.567   0.615   0.000  0.00  0.00    +0.000 A 
BRANCH  54  56
ATOM     56  C   UNL     1      12.711  -0.622   0.000  0.00  0.00    +0.000 C 
BRANCH  56  60
ATOM     57  C   UNL     1      13.425  -1.860   0.000  0.00  0.00    +0.000 C 
ATOM     58  N   UNL     1      13.425  -2.685   0.000  0.00  0.00    +0.000 NA
ATOM     59  N   UNL     1      14.140  -1.447   0.000  0.00  0.00    +0.000 NA
ATOM     60  N   UNL     1      12.711  -1.447   0.000  0.00  0.00    +0.000 NA
ENDBRANCH  56  60
ENDBRANCH  54  56
ENDBRANCH  49  55
ENDBRANCH  48  49
ENDBRANCH  47  48
ENDBRANCH  46  47
ENDBRANCH  45  46
ENDBRANCH  44  45
ENDBRANCH  43  44
ENDBRANCH  42  43
ENDBRANCH  41  42
ENDBRANCH  40  41
ENDBRANCH  39  40
ENDBRANCH  38  39
ENDBRANCH  37  38
ENDBRANCH  36  37
ENDBRANCH  35  36
ENDBRANCH  34  35
ENDBRANCH  33  34
ENDBRANCH  32  33
ENDBRANCH  31  32
ENDBRANCH   1  31
TORSDOF 31
