REMARK  Name = 
REMARK  15 active torsions:
REMARK  status: ('A' for Active; 'I' for Inactive)
REMARK    1  A    between atoms: C_5  and  C_27
REMARK    2  A    between atoms: N_7  and  C_8
REMARK    3  A    between atoms: C_8  and  C_9
REMARK    4  A    between atoms: C_8  and  C_10
REMARK    5  A    between atoms: C_9  and  C_13
REMARK    6  A    between atoms: N_12  and  C_29
REMARK    7  A    between atoms: N_12  and  C_32
REMARK    8  A    between atoms: C_16  and  O_19
REMARK    9  A    between atoms: O_19  and  C_20
REMARK   10  A    between atoms: C_20  and  C_21
REMARK   11  A    between atoms: C_21  and  N_22
REMARK   12  A    between atoms: N_22  and  C_23
REMARK   13  A    between atoms: N_22  and  C_25
REMARK   14  A    between atoms: C_29  and  C_30
REMARK   15  A    between atoms: C_32  and  C_33
REMARK                            x       y       z     vdW  Elec       q    Type
REMARK                         _______ _______ _______ _____ _____    ______ ____
ROOT
ATOM      1  C   UNL     1      -2.139  -0.195   0.000  0.00  0.00    +0.000 C 
ENDROOT
BRANCH   1   2
ATOM      2  N   UNL     1      -2.852  -0.610   0.000  0.00  0.00    +0.000 NA
ATOM      3  C   UNL     1      -2.849  -1.435   0.000  0.00  0.00    +0.000 C 
ATOM      4  O   UNL     1      -2.133  -1.845   0.000  0.00  0.00    +0.000 OA
BRANCH   3   9
ATOM      5  C   UNL     1      -4.988  -1.853   0.000  0.00  0.00    +0.000 A 
ATOM      6  C   UNL     1      -4.989  -2.680   0.000  0.00  0.00    +0.000 A 
ATOM      7  C   UNL     1      -4.274  -3.093   0.000  0.00  0.00    +0.000 A 
ATOM      8  C   UNL     1      -3.558  -2.680   0.000  0.00  0.00    +0.000 A 
ATOM      9  C   UNL     1      -3.560  -1.849   0.000  0.00  0.00    +0.000 A 
ATOM     10  C   UNL     1      -4.276  -1.440   0.000  0.00  0.00    +0.000 A 
ENDBRANCH   3   9
ENDBRANCH   1   2
BRANCH   1  11
ATOM     11  C   UNL     1      -2.142   0.630   0.000  0.00  0.00    +0.000 C 
ATOM     12  O   UNL     1      -1.429   1.045   0.000  0.00  0.00    +0.000 OA
ATOM     13  N   UNL     1      -2.858   1.040   0.000  0.00  0.00    +0.000 N 
BRANCH  13  14
ATOM     14  C   UNL     1      -3.574   0.631   0.000  0.00  0.00    +0.000 C 
BRANCH  14  15
ATOM     15  C   UNL     1      -4.286   1.043   0.000  0.00  0.00    +0.000 C 
ATOM     16  C   UNL     1      -4.999   0.631   0.000  0.00  0.00    +0.000 C 
ENDBRANCH  14  15
ENDBRANCH  13  14
BRANCH  13  17
ATOM     17  C   UNL     1      -2.861   1.864   0.000  0.00  0.00    +0.000 C 
BRANCH  17  18
ATOM     18  C   UNL     1      -3.574   2.272   0.000  0.00  0.00    +0.000 C 
ATOM     19  C   UNL     1      -3.574   3.093   0.000  0.00  0.00    +0.000 C 
ENDBRANCH  17  18
ENDBRANCH  13  17
ENDBRANCH   1  11
BRANCH   1  20
ATOM     20  C   UNL     1      -1.423  -0.605   0.000  0.00  0.00    +0.000 C 
BRANCH  20  21
ATOM     21  C   UNL     1      -0.710  -0.190   0.000  0.00  0.00    +0.000 A 
ATOM     22  C   UNL     1       0.002  -0.601   0.000  0.00  0.00    +0.000 A 
ATOM     23  C   UNL     1       0.714  -0.187   0.000  0.00  0.00    +0.000 A 
ATOM     24  C   UNL     1       0.712   0.639   0.000  0.00  0.00    +0.000 A 
ATOM     25  C   UNL     1      -0.009   1.049   0.000  0.00  0.00    +0.000 A 
ATOM     26  C   UNL     1      -0.719   0.632   0.000  0.00  0.00    +0.000 A 
BRANCH  24  27
ATOM     27  O   UNL     1       1.424   1.055   0.000  0.00  0.00    +0.000 OA
BRANCH  27  28
ATOM     28  C   UNL     1       2.141   0.646   0.000  0.00  0.00    +0.000 C 
BRANCH  28  29
ATOM     29  C   UNL     1       2.853   1.062   0.000  0.00  0.00    +0.000 C 
BRANCH  29  30
ATOM     30  N   UNL     1       3.570   0.654   0.000  0.00  0.00    +0.000 NA
BRANCH  30  31
ATOM     31  C   UNL     1       4.282   1.070   0.000  0.00  0.00    +0.000 C 
ATOM     32  C   UNL     1       4.999   0.661   0.000  0.00  0.00    +0.000 C 
ENDBRANCH  30  31
BRANCH  30  33
ATOM     33  C   UNL     1       3.574  -0.171   0.000  0.00  0.00    +0.000 C 
ATOM     34  C   UNL     1       2.862  -0.588   0.000  0.00  0.00    +0.000 C 
ENDBRANCH  30  33
ENDBRANCH  29  30
ENDBRANCH  28  29
ENDBRANCH  27  28
ENDBRANCH  24  27
ENDBRANCH  20  21
ENDBRANCH   1  20
TORSDOF 15
