REMARK  Name = 
REMARK  4 active torsions:
REMARK  status: ('A' for Active; 'I' for Inactive)
REMARK    1  A    between atoms: C_2  and  C_3
REMARK    2  A    between atoms: C_2  and  N_10
REMARK    3  A    between atoms: C_3  and  N_4
REMARK    4  A    between atoms: C_21  and  C_22
REMARK                            x       y       z     vdW  Elec       q    Type
REMARK                         _______ _______ _______ _____ _____    ______ ____
ROOT
ATOM      1  N   UNL     1       6.560   2.946   0.000  0.00  0.00    +0.000 N 
ATOM      2  C   UNL     1       6.225   3.700   0.000  0.00  0.00    +0.000 A 
ATOM      3  N   UNL     1       6.637   4.415   0.000  0.00  0.00    +0.000 NA
ATOM      4  C   UNL     1       6.225   5.129   0.000  0.00  0.00    +0.000 C 
ATOM      5  N   UNL     1       5.400   5.129   0.000  0.00  0.00    +0.000 NA
ATOM      6  O   UNL     1       6.637   5.844   0.000  0.00  0.00    +0.000 OA
ATOM      7  N   UNL     1       5.404   3.614   0.000  0.00  0.00    +0.000 NA
ATOM      8  C   UNL     1       5.233   2.807   0.000  0.00  0.00    +0.000 A 
ATOM      9  C   UNL     1       5.947   2.394   0.000  0.00  0.00    +0.000 A 
ATOM     10  C   UNL     1       5.947   1.569   0.000  0.00  0.00    +0.000 A 
ATOM     11  C   UNL     1       5.233   1.157   0.000  0.00  0.00    +0.000 A 
ATOM     12  C   UNL     1       4.518   1.569   0.000  0.00  0.00    +0.000 A 
ATOM     13  C   UNL     1       4.518   2.394   0.000  0.00  0.00    +0.000 A 
ENDROOT
BRANCH  12  14
ATOM     14  C   UNL     1       3.804   1.157   0.000  0.00  0.00    +0.000 C 
ATOM     15  C   UNL     1       3.804   0.332   0.000  0.00  0.00    +0.000 C 
ATOM     16  C   UNL     1       4.547  -0.026   0.000  0.00  0.00    +0.000 A 
ATOM     17  C   UNL     1       5.152   0.535   0.000  0.00  0.00    +0.000 A 
ATOM     18  C   UNL     1       5.940   0.292   0.000  0.00  0.00    +0.000 A 
ATOM     19  C   UNL     1       6.124  -0.512   0.000  0.00  0.00    +0.000 A 
ATOM     20  C   UNL     1       5.519  -1.073   0.000  0.00  0.00    +0.000 A 
ATOM     21  C   UNL     1       4.731  -0.830   0.000  0.00  0.00    +0.000 A 
ATOM     22  C   UNL     1       4.216  -1.475   0.000  0.00  0.00    +0.000 C 
ATOM     23  O   UNL     1       3.391  -1.475   0.000  0.00  0.00    +0.000 OA
ATOM     24  C   UNL     1       2.877  -0.830   0.000  0.00  0.00    +0.000 A 
ATOM     25  C   UNL     1       2.088  -1.073   0.000  0.00  0.00    +0.000 A 
ATOM     26  C   UNL     1       1.484  -0.512   0.000  0.00  0.00    +0.000 A 
ATOM     27  F   UNL     1       0.695  -0.755   0.000  0.00  0.00    +0.000 F 
ATOM     28  C   UNL     1       1.667   0.292   0.000  0.00  0.00    +0.000 A 
ATOM     29  C   UNL     1       2.456   0.535   0.000  0.00  0.00    +0.000 A 
ATOM     30  C   UNL     1       3.060  -0.026   0.000  0.00  0.00    +0.000 A 
ENDBRANCH  12  14
BRANCH   1  32
ATOM     31  C   UNL     1       7.622   1.990   0.000  0.00  0.00    +0.000 C 
ATOM     32  C   UNL     1       7.367   2.775   0.000  0.00  0.00    +0.000 C 
BRANCH  32  33
ATOM     33  C   UNL     1       7.919   3.388   0.000  0.00  0.00    +0.000 C 
BRANCH  33  34
ATOM     34  N   UNL     1       8.726   3.217   0.000  0.00  0.00    +0.000 NA
ATOM     35  C   UNL     1       9.278   3.830   0.000  0.00  0.00    +0.000 C 
ATOM     36  C   UNL     1      10.085   3.658   0.000  0.00  0.00    +0.000 C 
ATOM     37  O   UNL     1      10.340   2.873   0.000  0.00  0.00    +0.000 OA
ATOM     38  C   UNL     1       9.788   2.260   0.000  0.00  0.00    +0.000 C 
ATOM     39  C   UNL     1       8.981   2.432   0.000  0.00  0.00    +0.000 C 
ENDBRANCH  33  34
ENDBRANCH  32  33
ENDBRANCH   1  32
TORSDOF 4
