REMARK  Name = 
REMARK  2 active torsions:
REMARK  status: ('A' for Active; 'I' for Inactive)
REMARK    1  A    between atoms: C_7  and  C_18
REMARK    2  A    between atoms: N_8  and  C_11
REMARK                            x       y       z     vdW  Elec       q    Type
REMARK                         _______ _______ _______ _____ _____    ______ ____
ROOT
ATOM      1  C   UNL     1      -1.404   0.348   0.000  0.00  0.00    +0.000 A 
ATOM      2  N   UNL     1      -2.118  -0.065   0.000  0.00  0.00    +0.000 NA
ATOM      3  C   UNL     1      -2.118  -0.890   0.000  0.00  0.00    +0.000 A 
ATOM      4  N   UNL     1      -1.404  -1.302   0.000  0.00  0.00    +0.000 NA
ATOM      5  C   UNL     1      -0.689  -0.890   0.000  0.00  0.00    +0.000 A 
ATOM      6  C   UNL     1      -0.689  -0.065   0.000  0.00  0.00    +0.000 A 
ATOM      7  C   UNL     1       0.095   0.190   0.000  0.00  0.00    +0.000 A 
ATOM      8  N   UNL     1       0.095  -1.145   0.000  0.00  0.00    +0.000 N 
ATOM      9  N   UNL     1       0.580  -0.477   0.000  0.00  0.00    +0.000 NA
ATOM     10  N   UNL     1      -1.404   1.173   0.000  0.00  0.00    +0.000 NA
ENDROOT
BRANCH   7  13
ATOM     11  N   UNL     1       0.005   2.384   0.000  0.00  0.00    +0.000 NA
ATOM     12  C   UNL     1      -0.246   1.598   0.000  0.00  0.00    +0.000 A 
ATOM     13  C   UNL     1       0.309   0.987   0.000  0.00  0.00    +0.000 A 
ATOM     14  C   UNL     1       1.115   1.163   0.000  0.00  0.00    +0.000 A 
ATOM     15  C   UNL     1       1.366   1.948   0.000  0.00  0.00    +0.000 A 
ATOM     16  C   UNL     1       0.811   2.559   0.000  0.00  0.00    +0.000 A 
ATOM     17  N   UNL     1       1.220   3.275   0.000  0.00  0.00    +0.000 NA
ATOM     18  C   UNL     1       2.118   2.288   0.000  0.00  0.00    +0.000 A 
ATOM     19  C   UNL     1       2.028   3.108   0.000  0.00  0.00    +0.000 A 
ENDBRANCH   7  13
BRANCH   8  20
ATOM     20  C   UNL     1       0.309  -1.942   0.000  0.00  0.00    +0.000 C 
ATOM     21  C   UNL     1      -0.201  -2.590   0.000  0.00  0.00    +0.000 C 
ATOM     22  C   UNL     1       0.257  -3.275   0.000  0.00  0.00    +0.000 C 
ATOM     23  C   UNL     1       1.051  -3.051   0.000  0.00  0.00    +0.000 C 
ATOM     24  C   UNL     1       1.083  -2.227   0.000  0.00  0.00    +0.000 C 
ENDBRANCH   8  20
TORSDOF 2
