REMARK  Name = 
REMARK  5 active torsions:
REMARK  status: ('A' for Active; 'I' for Inactive)
REMARK    1  A    between atoms: C_2  and  N_3
REMARK    2  A    between atoms: C_9  and  O_11
REMARK    3  A    between atoms: O_11  and  C_12
REMARK    4  A    between atoms: C_12  and  C_13
REMARK    5  A    between atoms: C_12  and  C_19
REMARK                            x       y       z     vdW  Elec       q    Type
REMARK                         _______ _______ _______ _____ _____    ______ ____
ROOT
ATOM      1  C   UNL     1       4.106  -0.251   0.000  0.00  0.00    +0.000 C 
ENDROOT
BRANCH   1   2
ATOM      2  C   UNL     1       4.448  -1.002   0.000  0.00  0.00    +0.000 A 
ATOM      3  C   UNL     1       5.269  -1.080   0.000  0.00  0.00    +0.000 A 
ATOM      4  C   UNL     1       5.612  -1.831   0.000  0.00  0.00    +0.000 A 
ATOM      5  C   UNL     1       5.133  -2.503   0.000  0.00  0.00    +0.000 A 
ATOM      6  C   UNL     1       4.312  -2.424   0.000  0.00  0.00    +0.000 A 
ATOM      7  C   UNL     1       3.969  -1.673   0.000  0.00  0.00    +0.000 A 
ENDBRANCH   1   2
BRANCH   1   8
ATOM      8  C   UNL     1       4.584   0.421   0.000  0.00  0.00    +0.000 A 
ATOM      9  C   UNL     1       4.242   1.171   0.000  0.00  0.00    +0.000 A 
ATOM     10  C   UNL     1       4.721   1.843   0.000  0.00  0.00    +0.000 A 
ATOM     11  C   UNL     1       5.542   1.765   0.000  0.00  0.00    +0.000 A 
ATOM     12  C   UNL     1       5.885   1.014   0.000  0.00  0.00    +0.000 A 
ATOM     13  C   UNL     1       5.406   0.342   0.000  0.00  0.00    +0.000 A 
ENDBRANCH   1   8
BRANCH   1  14
ATOM     14  O   UNL     1       3.257  -0.170   0.000  0.00  0.00    +0.000 OA
BRANCH  14  21
ATOM     15  N   UNL     1       1.394  -0.000   0.000  0.00  0.00    +0.000 NA
ATOM     16  C   UNL     1       1.162   0.927   0.000  0.00  0.00    +0.000 C 
ATOM     17  C   UNL     1       0.517   0.412   0.000  0.00  0.00    +0.000 C 
ATOM     18  C   UNL     1       0.517  -0.413   0.000  0.00  0.00    +0.000 C 
ATOM     19  C   UNL     1       1.162  -0.927   0.000  0.00  0.00    +0.000 C 
ATOM     20  C   UNL     1       1.967  -0.743   0.000  0.00  0.00    +0.000 C 
ATOM     21  C   UNL     1       2.325  -0.000   0.000  0.00  0.00    +0.000 C 
ATOM     22  C   UNL     1       1.967   0.743   0.000  0.00  0.00    +0.000 C 
BRANCH  15  24
ATOM     23  C   UNL     1       2.825   0.444   0.000  0.00  0.00    +0.000 C 
ATOM     24  C   UNL     1       2.383  -0.421   0.000  0.00  0.00    +0.000 C 
ENDBRANCH  15  24
ENDBRANCH  14  21
ENDBRANCH   1  14
TORSDOF 5
