REMARK  Name = 
REMARK  0 active torsions:
REMARK  status: ('A' for Active; 'I' for Inactive)
REMARK                            x       y       z     vdW  Elec       q    Type
REMARK                         _______ _______ _______ _____ _____    ______ ____
ROOT
ATOM      1  O   UNL     1       2.475   0.000   0.000  0.00  0.00    +0.000 OA
ATOM      2 CR   UNL     1       1.650   0.000   0.000  0.00  0.00    +0.000 Cr
ATOM      3  O   UNL     1       1.650   0.825   0.000  0.00  0.00    +0.000 OA
ATOM      4  O   UNL     1       1.650  -0.825   0.000  0.00  0.00    +0.000 OA
ATOM      5  O   UNL     1       0.825   0.000   0.000  0.00  0.00    +0.000 OA
ENDROOT
TORSDOF 0
REMARK  Name = 
REMARK  0 active torsions:
REMARK  status: ('A' for Active; 'I' for Inactive)
REMARK                            x       y       z     vdW  Elec       q    Type
REMARK                         _______ _______ _______ _____ _____    ______ ____
ROOT
ATOM      1 NA   UNL     1       3.300   0.000   0.000  0.00  0.00    +0.000 Na
ENDROOT
TORSDOF 0
REMARK  Name = 
REMARK  0 active torsions:
REMARK  status: ('A' for Active; 'I' for Inactive)
REMARK                            x       y       z     vdW  Elec       q    Type
REMARK                         _______ _______ _______ _____ _____    ______ ____
ROOT
ATOM      1 NA   UNL     1       0.000   0.000   0.000  0.00  0.00    +0.000 Na
ENDROOT
TORSDOF 0
