REMARK  Name = 
REMARK  7 active torsions:
REMARK  status: ('A' for Active; 'I' for Inactive)
REMARK    1  A    between atoms: C_1  and  C_2
REMARK    2  A    between atoms: C_1  and  C_3
REMARK    3  A    between atoms: C_3  and  O_6
REMARK    4  A    between atoms: C_3  and  C_10
REMARK    5  A    between atoms: N_4  and  C_10
REMARK    6  A    between atoms: C_5  and  O_6
REMARK    7  A    between atoms: C_5  and  C_14
REMARK                            x       y       z     vdW  Elec       q    Type
REMARK                         _______ _______ _______ _____ _____    ______ ____
ROOT
ATOM      1  C   UNL     1       0.000   0.301   0.000  0.00  0.00    +0.000 C 
ENDROOT
BRANCH   1   2
ATOM      2  O   UNL     1      -0.412  -0.414   0.000  0.00  0.00    +0.000 OA
BRANCH   2   3
ATOM      3  C   UNL     1       0.000  -1.128   0.000  0.00  0.00    +0.000 C 
ATOM      4  O   UNL     1      -0.412  -1.840   0.000  0.00  0.00    +0.000 OA
BRANCH   3   5
ATOM      5  C   UNL     1       0.825  -1.128   0.000  0.00  0.00    +0.000 C 
ATOM      6  C   UNL     1       1.237  -0.414   0.000  0.00  0.00    +0.000 C 
ENDBRANCH   3   5
ENDBRANCH   2   3
ENDBRANCH   1   2
BRANCH   1   7
ATOM      7  C   UNL     1      -0.412   1.016   0.000  0.00  0.00    +0.000 C 
BRANCH   7   8
ATOM      8  N   UNL     1      -1.237   1.016   0.000  0.00  0.00    +0.000 N 
ATOM      9  C   UNL     1      -1.237   0.191   0.000  0.00  0.00    +0.000 C 
ATOM     10  C   UNL     1      -1.237   1.840   0.000  0.00  0.00    +0.000 C 
ATOM     11  C   UNL     1      -2.061   1.016   0.000  0.00  0.00    +0.000 C 
ENDBRANCH   7   8
ENDBRANCH   1   7
BRANCH   1  12
ATOM     12  C   UNL     1       0.825   0.301   0.000  0.00  0.00    +0.000 C 
BRANCH  12  13
ATOM     13  C   UNL     1       1.237   1.016   0.000  0.00  0.00    +0.000 C 
ATOM     14  O   UNL     1       0.825   1.730   0.000  0.00  0.00    +0.000 OA
ATOM     15  O   UNL     1       2.061   1.016   0.000  0.00  0.00    +0.000 OA
ENDBRANCH  12  13
ENDBRANCH   1  12
TORSDOF 7
