REMARK  Name = 
REMARK  3 active torsions:
REMARK  status: ('A' for Active; 'I' for Inactive)
REMARK    1  A    between atoms: C_17  and  C_25
REMARK    2  A    between atoms: C_17  and  O_29
REMARK    3  A    between atoms: O_29  and  C_30
REMARK                            x       y       z     vdW  Elec       q    Type
REMARK                         _______ _______ _______ _____ _____    ______ ____
ROOT
ATOM      1  C   UNL     1      -3.125  -0.589   0.000  0.00  0.00    +0.000 C 
ATOM      2  C   UNL     1      -3.125  -1.413   0.000  0.00  0.00    +0.000 C 
ATOM      3  C   UNL     1      -2.411  -1.826   0.000  0.00  0.00    +0.000 C 
ATOM      4  C   UNL     1      -1.696  -1.413   0.000  0.00  0.00    +0.000 C 
ATOM      5  C   UNL     1      -1.696  -0.589   0.000  0.00  0.00    +0.000 C 
ATOM      6  C   UNL     1      -2.411  -0.176   0.000  0.00  0.00    +0.000 C 
ATOM      7  C   UNL     1      -0.982  -1.826   0.000  0.00  0.00    +0.000 C 
ATOM      8  C   UNL     1      -0.268  -1.413   0.000  0.00  0.00    +0.000 C 
ATOM      9  C   UNL     1      -0.268  -0.589   0.000  0.00  0.00    +0.000 C 
ATOM     10  C   UNL     1      -0.982  -0.176   0.000  0.00  0.00    +0.000 C 
ATOM     11  C   UNL     1       0.447  -0.176   0.000  0.00  0.00    +0.000 C 
ATOM     12  C   UNL     1       0.447   0.649   0.000  0.00  0.00    +0.000 C 
ATOM     13  C   UNL     1      -0.268   1.061   0.000  0.00  0.00    +0.000 C 
ATOM     14  C   UNL     1      -0.982   0.649   0.000  0.00  0.00    +0.000 C 
ATOM     15  C   UNL     1       1.875  -0.176   0.000  0.00  0.00    +0.000 C 
ATOM     16  C   UNL     1       1.875   0.649   0.000  0.00  0.00    +0.000 C 
ATOM     17  C   UNL     1       1.161   1.061   0.000  0.00  0.00    +0.000 C 
ATOM     18  C   UNL     1       0.463   1.474   0.000  0.00  0.00    +0.000 C 
ATOM     19  C   UNL     1      -1.698   0.260   0.000  0.00  0.00    +0.000 C 
ATOM     20  C   UNL     1      -0.982  -2.669   0.000  0.00  0.00    +0.000 C 
ATOM     21  O   UNL     1      -3.865  -1.841   0.000  0.00  0.00    +0.000 OA
ATOM     22  C   UNL     1       2.609   1.072   0.000  0.00  0.00    +0.000 C 
ENDROOT
BRANCH  17  23
ATOM     23  C   UNL     1       1.161   1.898   0.000  0.00  0.00    +0.000 C 
ATOM     24  O   UNL     1       1.900   2.324   0.000  0.00  0.00    +0.000 OA
ATOM     25  C   UNL     1       0.445   2.312   0.000  0.00  0.00    +0.000 C 
ENDBRANCH  17  23
BRANCH  17  26
ATOM     26  O   UNL     1       2.603   1.943   0.000  0.00  0.00    +0.000 OA
BRANCH  26  27
ATOM     27  C   UNL     1       3.443   1.943   0.000  0.00  0.00    +0.000 C 
ATOM     28  O   UNL     1       3.865   1.212   0.000  0.00  0.00    +0.000 OA
ATOM     29  C   UNL     1       3.862   2.669   0.000  0.00  0.00    +0.000 C 
ENDBRANCH  26  27
ENDBRANCH  17  26
TORSDOF 3
