REMARK  Name = 
REMARK  6 active torsions:
REMARK  status: ('A' for Active; 'I' for Inactive)
REMARK    1  A    between atoms: O_2  and  C_3
REMARK    2  A    between atoms: C_5  and  C_11
REMARK    3  A    between atoms: C_7  and  O_8
REMARK    4  A    between atoms: C_12  and  C_13
REMARK    5  A    between atoms: N_15  and  C_16
REMARK    6  A    between atoms: C_21  and  C_23
REMARK                            x       y       z     vdW  Elec       q    Type
REMARK                         _______ _______ _______ _____ _____    ______ ____
ROOT
ATOM      1  C   UNL     1      -0.143  -0.030   0.000  0.00  0.00    +0.000 A 
ATOM      2  N   UNL     1      -0.628  -0.698   0.000  0.00  0.00    +0.000 NA
ATOM      3  N   UNL     1      -0.143  -1.365   0.000  0.00  0.00    +0.000 N 
ATOM      4  C   UNL     1       0.641  -1.110   0.000  0.00  0.00    +0.000 A 
ATOM      5  C   UNL     1       0.641  -0.285   0.000  0.00  0.00    +0.000 A 
ATOM      6  C   UNL     1       1.356   0.127   0.000  0.00  0.00    +0.000 A 
ATOM      7  N   UNL     1       1.356   0.952   0.000  0.00  0.00    +0.000 NA
ATOM      8  N   UNL     1       2.070  -0.285   0.000  0.00  0.00    +0.000 NA
ATOM      9  C   UNL     1       2.070  -1.110   0.000  0.00  0.00    +0.000 A 
ATOM     10  N   UNL     1       1.356  -1.523   0.000  0.00  0.00    +0.000 NA
ENDROOT
BRANCH   3  11
ATOM     11  C   UNL     1      -0.398  -2.150   0.000  0.00  0.00    +0.000 C 
ATOM     12  C   UNL     1       0.086  -2.817   0.000  0.00  0.00    +0.000 C 
ATOM     13  C   UNL     1      -0.398  -3.485   0.000  0.00  0.00    +0.000 C 
ATOM     14  N   UNL     1      -1.183  -3.230   0.000  0.00  0.00    +0.000 N 
ATOM     15  C   UNL     1      -1.183  -2.405   0.000  0.00  0.00    +0.000 C 
ATOM     16  C   UNL     1      -1.851  -3.715   0.000  0.00  0.00    +0.000 C 
ATOM     17  O   UNL     1      -1.764  -4.535   0.000  0.00  0.00    +0.000 OA
BRANCH  16  18
ATOM     18  C   UNL     1      -2.604  -3.379   0.000  0.00  0.00    +0.000 C 
ATOM     19  C   UNL     1      -3.272  -3.864   0.000  0.00  0.00    +0.000 C 
ENDBRANCH  16  18
ENDBRANCH   3  11
BRANCH   1  21
ATOM     20  C   UNL     1      -0.653   1.539   0.000  0.00  0.00    +0.000 C 
ATOM     21  C   UNL     1      -0.398   0.754   0.000  0.00  0.00    +0.000 C 
BRANCH  20  24
ATOM     22  C   UNL     1      -0.611   3.721   0.000  0.00  0.00    +0.000 A 
ATOM     23  C   UNL     1      -0.356   2.937   0.000  0.00  0.00    +0.000 A 
ATOM     24  C   UNL     1      -0.908   2.323   0.000  0.00  0.00    +0.000 A 
ATOM     25  C   UNL     1      -1.715   2.495   0.000  0.00  0.00    +0.000 A 
ATOM     26  C   UNL     1      -1.970   3.280   0.000  0.00  0.00    +0.000 A 
ATOM     27  C   UNL     1      -1.418   3.893   0.000  0.00  0.00    +0.000 A 
BRANCH  26  28
ATOM     28  O   UNL     1      -2.777   3.451   0.000  0.00  0.00    +0.000 OA
ATOM     29  C   UNL     1      -3.032   4.236   0.000  0.00  0.00    +0.000 C 
ENDBRANCH  26  28
BRANCH  22  31
ATOM     30  C   UNL     1      -0.314   5.119   0.000  0.00  0.00    +0.000 C 
ATOM     31  O   UNL     1      -0.059   4.334   0.000  0.00  0.00    +0.000 OA
ENDBRANCH  22  31
ENDBRANCH  20  24
ENDBRANCH   1  21
TORSDOF 6
