REMARK  Name = 
REMARK  5 active torsions:
REMARK  status: ('A' for Active; 'I' for Inactive)
REMARK    1  A    between atoms: C_2  and  C_4
REMARK    2  A    between atoms: C_6  and  O_11
REMARK    3  A    between atoms: O_11  and  C_12
REMARK    4  A    between atoms: C_15  and  N_19
REMARK    5  A    between atoms: C_25  and  C_27
REMARK                            x       y       z     vdW  Elec       q    Type
REMARK                         _______ _______ _______ _____ _____    ______ ____
ROOT
ATOM      1  C   UNL     1       3.572  -6.188   0.000  0.00  0.00    +0.000 A 
ATOM      2  C   UNL     1       4.287  -6.600   0.000  0.00  0.00    +0.000 A 
ATOM      3  C   UNL     1       4.287  -7.425   0.000  0.00  0.00    +0.000 A 
ATOM      4  C   UNL     1       3.572  -7.838   0.000  0.00  0.00    +0.000 A 
ATOM      5  C   UNL     1       2.858  -7.425   0.000  0.00  0.00    +0.000 A 
ATOM      6  C   UNL     1       2.858  -6.600   0.000  0.00  0.00    +0.000 A 
ATOM      7 CL   UNL     1       2.143  -6.188   0.000  0.00  0.00    +0.000 Cl
ATOM      8 CL   UNL     1       5.001  -6.188   0.000  0.00  0.00    +0.000 Cl
ENDROOT
BRANCH   4   9
ATOM      9  N   UNL     1       3.572  -8.662   0.000  0.00  0.00    +0.000 N 
ATOM     10  C   UNL     1       4.287  -9.075   0.000  0.00  0.00    +0.000 A 
ATOM     11  O   UNL     1       5.001  -8.662   0.000  0.00  0.00    +0.000 OA
ATOM     12  N   UNL     1       4.287  -9.900   0.000  0.00  0.00    +0.000 NA
ATOM     13  C   UNL     1       3.572 -10.312   0.000  0.00  0.00    +0.000 A 
ATOM     14  O   UNL     1       3.572 -11.137   0.000  0.00  0.00    +0.000 OA
ATOM     15  C   UNL     1       2.858  -9.900   0.000  0.00  0.00    +0.000 A 
ATOM     16  N   UNL     1       2.858  -9.075   0.000  0.00  0.00    +0.000 NA
BRANCH  15  17
ATOM     17  C   UNL     1       2.143 -10.312   0.000  0.00  0.00    +0.000 C 
ATOM     18  N   UNL     1       1.429 -10.725   0.000  0.00  0.00    +0.000 NA
ENDBRANCH  15  17
ENDBRANCH   4   9
BRANCH   1  19
ATOM     19  O   UNL     1       3.572  -5.362   0.000  0.00  0.00    +0.000 OA
BRANCH  19  22
ATOM     20  C   UNL     1       2.143  -3.712   0.000  0.00  0.00    +0.000 A 
ATOM     21  C   UNL     1       2.858  -4.125   0.000  0.00  0.00    +0.000 A 
ATOM     22  C   UNL     1       2.858  -4.950   0.000  0.00  0.00    +0.000 A 
ATOM     23  N   UNL     1       2.143  -5.362   0.000  0.00  0.00    +0.000 NA
ATOM     24  N   UNL     1       1.429  -4.950   0.000  0.00  0.00    +0.000 NA
ATOM     25  C   UNL     1       1.429  -4.125   0.000  0.00  0.00    +0.000 A 
ATOM     26  O   UNL     1       0.715  -3.712   0.000  0.00  0.00    +0.000 OA
BRANCH  20  28
ATOM     27  C   UNL     1       1.429  -2.475   0.000  0.00  0.00    +0.000 C 
ATOM     28  C   UNL     1       2.143  -2.888   0.000  0.00  0.00    +0.000 C 
ATOM     29  C   UNL     1       2.858  -2.475   0.000  0.00  0.00    +0.000 C 
ENDBRANCH  20  28
ENDBRANCH  19  22
ENDBRANCH   1  19
TORSDOF 5
