REMARK  Name = 
REMARK  6 active torsions:
REMARK  status: ('A' for Active; 'I' for Inactive)
REMARK    1  A    between atoms: C_1  and  C_2
REMARK    2  A    between atoms: C_2  and  C_3
REMARK    3  A    between atoms: C_2  and  C_9
REMARK    4  A    between atoms: C_3  and  C_4
REMARK    5  A    between atoms: C_9  and  P_10
REMARK    6  A    between atoms: C_9  and  P_14
REMARK                            x       y       z     vdW  Elec       q    Type
REMARK                         _______ _______ _______ _____ _____    ______ ____
ROOT
ATOM      1  C   UNL     1       0.000  -0.731   0.000  0.00  0.00    +0.000 C 
ENDROOT
BRANCH   1   2
ATOM      2  P   UNL     1      -0.715  -1.143   0.000  0.00  0.00    +0.000 P 
ATOM      3  O   UNL     1      -1.429  -1.556   0.000  0.00  0.00    +0.000 OA
ATOM      4  O   UNL     1      -1.127  -0.429   0.000  0.00  0.00    +0.000 OA
ATOM      5  O   UNL     1      -0.378  -1.744   0.000  0.00  0.00    +0.000 OA
ENDBRANCH   1   2
BRANCH   1   6
ATOM      6  P   UNL     1       0.715  -1.143   0.000  0.00  0.00    +0.000 P 
ATOM      7  O   UNL     1       1.429  -1.556   0.000  0.00  0.00    +0.000 OA
ATOM      8  O   UNL     1       0.387  -1.706   0.000  0.00  0.00    +0.000 OA
ATOM      9  O   UNL     1       1.127  -0.429   0.000  0.00  0.00    +0.000 OA
ENDBRANCH   1   6
BRANCH   1  10
ATOM     10  C   UNL     1       0.000   0.094   0.000  0.00  0.00    +0.000 C 
BRANCH  10  11
ATOM     11  C   UNL     1       0.715   0.507   0.000  0.00  0.00    +0.000 C 
ATOM     12  O   UNL     1       1.429   0.094   0.000  0.00  0.00    +0.000 OA
ATOM     13  O   UNL     1       0.715   1.332   0.000  0.00  0.00    +0.000 OA
ENDBRANCH  10  11
BRANCH  10  14
ATOM     14  C   UNL     1      -0.715   0.507   0.000  0.00  0.00    +0.000 C 
BRANCH  14  15
ATOM     15  C   UNL     1      -0.715   1.332   0.000  0.00  0.00    +0.000 C 
ATOM     16  O   UNL     1      -1.429   1.744   0.000  0.00  0.00    +0.000 OA
ATOM     17  O   UNL     1       0.000   1.744   0.000  0.00  0.00    +0.000 OA
ENDBRANCH  14  15
ENDBRANCH  10  14
ENDBRANCH   1  10
TORSDOF 6
