REMARK  Name = 
REMARK  0 active torsions:
REMARK  status: ('A' for Active; 'I' for Inactive)
REMARK                            x       y       z     vdW  Elec       q    Type
REMARK                         _______ _______ _______ _____ _____    ______ ____
ROOT
ATOM      1 ZR   UNL     1      -0.206  -2.365   0.000  0.00  0.00    +0.000 Zr
ENDROOT
TORSDOF 0
REMARK  Name = 
REMARK  0 active torsions:
REMARK  status: ('A' for Active; 'I' for Inactive)
REMARK                            x       y       z     vdW  Elec       q    Type
REMARK                         _______ _______ _______ _____ _____    ______ ____
ROOT
ATOM      1 SI   UNL     1       0.715   1.650   0.000  0.00  0.00    +0.000 Si
ATOM      2 SI   UNL     1       0.000   0.412   0.000  0.00  0.00    +0.000 Si
ATOM      3 SI   UNL     1      -0.715   1.650   0.000  0.00  0.00    +0.000 Si
ATOM      4  O   UNL     1       0.715   0.825   0.000  0.00  0.00    +0.000 OA
ATOM      5  O   UNL     1       0.000   2.063   0.000  0.00  0.00    +0.000 OA
ATOM      6  O   UNL     1      -0.715   0.825   0.000  0.00  0.00    +0.000 OA
ATOM      7  O   UNL     1       1.127   2.365   0.000  0.00  0.00    +0.000 OA
ATOM      8  O   UNL     1       1.540   1.650   0.000  0.00  0.00    +0.000 OA
ATOM      9  O   UNL     1      -0.412  -0.302   0.000  0.00  0.00    +0.000 OA
ATOM     10  O   UNL     1       0.412  -0.302   0.000  0.00  0.00    +0.000 OA
ATOM     11  O   UNL     1      -1.127   2.365   0.000  0.00  0.00    +0.000 OA
ATOM     12  O   UNL     1      -1.540   1.650   0.000  0.00  0.00    +0.000 OA
ENDROOT
TORSDOF 0
REMARK  Name = 
REMARK  0 active torsions:
REMARK  status: ('A' for Active; 'I' for Inactive)
REMARK                            x       y       z     vdW  Elec       q    Type
REMARK                         _______ _______ _______ _____ _____    ______ ____
ROOT
ATOM      1 NA   UNL     1      -1.238  -0.302   0.000  0.00  0.00    +0.000 Na
ENDROOT
TORSDOF 0
REMARK  Name = 
REMARK  0 active torsions:
REMARK  status: ('A' for Active; 'I' for Inactive)
REMARK                            x       y       z     vdW  Elec       q    Type
REMARK                         _______ _______ _______ _____ _____    ______ ____
ROOT
ATOM      1 NA   UNL     1       1.238  -0.302   0.000  0.00  0.00    +0.000 Na
ENDROOT
TORSDOF 0
