REMARK  Name = 
REMARK  5 active torsions:
REMARK  status: ('A' for Active; 'I' for Inactive)
REMARK    1  A    between atoms: N_8  and  C_26
REMARK    2  A    between atoms: C_10  and  C_11
REMARK    3  A    between atoms: C_12  and  C_13
REMARK    4  A    between atoms: C_14  and  C_15
REMARK    5  A    between atoms: N_18  and  C_24
REMARK                            x       y       z     vdW  Elec       q    Type
REMARK                         _______ _______ _______ _____ _____    ______ ____
ROOT
ATOM      1  C   UNL     1      -0.229  -0.467   0.000  0.00  0.00    +0.000 C 
ATOM      2  C   UNL     1       0.596  -0.467   0.000  0.00  0.00    +0.000 C 
ENDROOT
BRANCH   1  12
ATOM      3  C   UNL     1      -3.451   1.073   0.000  0.00  0.00    +0.000 A 
ATOM      4  C   UNL     1      -4.165   0.660   0.000  0.00  0.00    +0.000 A 
ATOM      5  C   UNL     1      -4.165  -0.165   0.000  0.00  0.00    +0.000 A 
ATOM      6  C   UNL     1      -3.451  -0.577   0.000  0.00  0.00    +0.000 A 
ATOM      7  C   UNL     1      -2.736  -0.165   0.000  0.00  0.00    +0.000 A 
ATOM      8  C   UNL     1      -2.736   0.660   0.000  0.00  0.00    +0.000 A 
ATOM      9  S   UNL     1      -1.952   0.915   0.000  0.00  0.00    +0.000 S 
ATOM     10  N   UNL     1      -1.952  -0.419   0.000  0.00  0.00    +0.000 N 
ATOM     11  C   UNL     1      -1.467   0.248   0.000  0.00  0.00    +0.000 C 
ATOM     12  C   UNL     1      -0.642   0.248   0.000  0.00  0.00    +0.000 C 
BRANCH  10  13
ATOM     13  C   UNL     1      -1.697  -1.204   0.000  0.00  0.00    +0.000 C 
ATOM     14  C   UNL     1      -2.249  -1.817   0.000  0.00  0.00    +0.000 C 
ENDBRANCH  10  13
ENDBRANCH   1  12
BRANCH   2  15
ATOM     15  C   UNL     1       1.008  -1.181   0.000  0.00  0.00    +0.000 C 
ATOM     16  C   UNL     1       1.833  -1.181   0.000  0.00  0.00    +0.000 C 
BRANCH  16  17
ATOM     17  C   UNL     1       2.245  -0.467   0.000  0.00  0.00    +0.000 A 
ATOM     18  C   UNL     1       2.658   0.803   0.000  0.00  0.00    +0.000 A 
ATOM     19  S   UNL     1       1.991   0.318   0.000  0.00  0.00    +0.000 S 
ATOM     20  N   UNL     1       3.071  -0.467   0.000  0.00  0.00    +0.000 N 
ATOM     21  C   UNL     1       3.325   0.318   0.000  0.00  0.00    +0.000 A 
ATOM     22  C   UNL     1       3.498   1.959   0.000  0.00  0.00    +0.000 A 
ATOM     23  C   UNL     1       2.744   1.623   0.000  0.00  0.00    +0.000 A 
ATOM     24  C   UNL     1       4.079   0.653   0.000  0.00  0.00    +0.000 A 
ATOM     25  C   UNL     1       4.165   1.474   0.000  0.00  0.00    +0.000 A 
BRANCH  20  26
ATOM     26  C   UNL     1       3.555  -1.134   0.000  0.00  0.00    +0.000 C 
ATOM     27  C   UNL     1       3.555  -1.959   0.000  0.00  0.00    +0.000 C 
ENDBRANCH  20  26
ENDBRANCH  16  17
ENDBRANCH   2  15
TORSDOF 5
