REMARK  Name = 
REMARK  3 active torsions:
REMARK  status: ('A' for Active; 'I' for Inactive)
REMARK    1  A    between atoms: C_1  and  C_2
REMARK    2  A    between atoms: C_2  and  C_3
REMARK    3  A    between atoms: C_3  and  C_4
REMARK                            x       y       z     vdW  Elec       q    Type
REMARK                         _______ _______ _______ _____ _____    ______ ____
ROOT
ATOM      1  C   UNL     1       0.357  -0.412   0.000  0.00  0.00    +0.000 A 
ATOM      2  C   UNL     1       1.072  -0.825   0.000  0.00  0.00    +0.000 A 
ATOM      3  C   UNL     1       1.072  -1.650   0.000  0.00  0.00    +0.000 A 
ATOM      4  C   UNL     1       0.357  -2.062   0.000  0.00  0.00    +0.000 A 
ATOM      5  C   UNL     1      -0.357  -1.650   0.000  0.00  0.00    +0.000 A 
ATOM      6  C   UNL     1      -0.357  -0.825   0.000  0.00  0.00    +0.000 A 
ENDROOT
BRANCH   1   7
ATOM      7  C   UNL     1       0.357   0.412   0.000  0.00  0.00    +0.000 C 
BRANCH   7   8
ATOM      8  C   UNL     1      -0.357   0.825   0.000  0.00  0.00    +0.000 C 
BRANCH   8   9
ATOM      9  C   UNL     1      -0.357   1.650   0.000  0.00  0.00    +0.000 C 
ATOM     10  N   UNL     1      -1.072   2.062   0.000  0.00  0.00    +0.000 NA
ENDBRANCH   8   9
ENDBRANCH   7   8
ENDBRANCH   1   7
TORSDOF 3
