REMARK  Name = 
REMARK  4 active torsions:
REMARK  status: ('A' for Active; 'I' for Inactive)
REMARK    1  A    between atoms: P_2  and  O_4
REMARK    2  A    between atoms: P_2  and  O_6
REMARK    3  A    between atoms: O_4  and  C_5
REMARK    4  A    between atoms: O_6  and  C_7
REMARK                            x       y       z     vdW  Elec       q    Type
REMARK                         _______ _______ _______ _____ _____    ______ ____
ROOT
ATOM      1  H   UNL     1       0.000   0.825   0.000  0.00  0.00    +0.000 HD
ATOM      2  P   UNL     1       0.000   0.000   0.000  0.00  0.00    +0.000 P 
ATOM      3  O   UNL     1       0.000  -0.825   0.000  0.00  0.00    +0.000 OA
ENDROOT
BRANCH   2   4
ATOM      4  O   UNL     1       0.825   0.000   0.000  0.00  0.00    +0.000 OA
BRANCH   4   5
ATOM      5  C   UNL     1       1.237  -0.715   0.000  0.00  0.00    +0.000 C 
ATOM      6  C   UNL     1       2.062  -0.715   0.000  0.00  0.00    +0.000 C 
ENDBRANCH   4   5
ENDBRANCH   2   4
BRANCH   2   7
ATOM      7  O   UNL     1      -0.825   0.000   0.000  0.00  0.00    +0.000 OA
BRANCH   7   8
ATOM      8  C   UNL     1      -1.238   0.715   0.000  0.00  0.00    +0.000 C 
ATOM      9  C   UNL     1      -2.062   0.715   0.000  0.00  0.00    +0.000 C 
ENDBRANCH   7   8
ENDBRANCH   2   7
TORSDOF 4
