REMARK  Name = 
REMARK  0 active torsions:
REMARK  status: ('A' for Active; 'I' for Inactive)
REMARK                            x       y       z     vdW  Elec       q    Type
REMARK                         _______ _______ _______ _____ _____    ______ ____
ROOT
ATOM      1  C   UNL     1       0.412  -0.678   0.000  0.00  0.00    +0.000 C 
ATOM      2  C   UNL     1      -0.412  -0.678   0.000  0.00  0.00    +0.000 A 
ATOM      3  C   UNL     1       0.830   0.033   0.000  0.00  0.00    +0.000 C 
ATOM      4  C   UNL     1      -0.814  -1.385   0.000  0.00  0.00    +0.000 A 
ATOM      5  C   UNL     1       0.818  -1.385   0.000  0.00  0.00    +0.000 C 
ATOM      6  O   UNL     1      -0.035  -1.874   0.000  0.00  0.00    +0.000 OA
ATOM      7  C   UNL     1       0.391   0.749   0.000  0.00  0.00    +0.000 C 
ATOM      8  C   UNL     1      -0.814   0.033   0.000  0.00  0.00    +0.000 A 
ATOM      9  C   UNL     1       1.654   0.033   0.000  0.00  0.00    +0.000 C 
ATOM     10  C   UNL     1      -0.412   0.749   0.000  0.00  0.00    +0.000 C 
ATOM     11  N   UNL     1       0.412   1.577   0.000  0.00  0.00    +0.000 NA
ATOM     12  C   UNL     1      -0.011   0.038   0.000  0.00  0.00    +0.000 C 
ATOM     13  C   UNL     1       2.068  -0.682   0.000  0.00  0.00    +0.000 C 
ATOM     14  C   UNL     1       1.646  -1.397   0.000  0.00  0.00    +0.000 C 
ATOM     15  C   UNL     1      -1.642  -1.385   0.000  0.00  0.00    +0.000 A 
ATOM     16  C   UNL     1      -0.011   1.054   0.000  0.00  0.00    +0.000 C 
ATOM     17  C   UNL     1      -1.642   0.033   0.000  0.00  0.00    +0.000 A 
ATOM     18  C   UNL     1      -2.060  -0.678   0.000  0.00  0.00    +0.000 A 
ATOM     19  O   UNL     1      -2.068  -2.112   0.000  0.00  0.00    +0.000 OA
ATOM     20  C   UNL     1       0.826   2.309   0.000  0.00  0.00    +0.000 C 
ENDROOT
TORSDOF 0
