REMARK  Name = 
REMARK  7 active torsions:
REMARK  status: ('A' for Active; 'I' for Inactive)
REMARK    1  A    between atoms: C_2  and  C_3
REMARK    2  A    between atoms: N_11  and  C_12
REMARK    3  A    between atoms: C_15  and  C_18
REMARK    4  A    between atoms: C_18  and  C_19
REMARK    5  A    between atoms: C_19  and  N_20
REMARK    6  A    between atoms: N_23  and  S_24
REMARK    7  A    between atoms: S_24  and  C_27
REMARK                            x       y       z     vdW  Elec       q    Type
REMARK                         _______ _______ _______ _____ _____    ______ ____
ROOT
ATOM      1  C   UNL     1       0.884  -2.150   0.000  0.00  0.00    +0.000 A 
ATOM      2  C   UNL     1       1.436  -2.763   0.000  0.00  0.00    +0.000 A 
ATOM      3  C   UNL     1       1.181  -3.548   0.000  0.00  0.00    +0.000 A 
ATOM      4  C   UNL     1       0.374  -3.719   0.000  0.00  0.00    +0.000 A 
ATOM      5  C   UNL     1      -0.178  -3.106   0.000  0.00  0.00    +0.000 A 
ATOM      6  C   UNL     1       0.077  -2.321   0.000  0.00  0.00    +0.000 A 
ENDROOT
BRANCH   1  15
ATOM      7  C   UNL     1       0.654  -0.698   0.000  0.00  0.00    +0.000 A 
ATOM      8  N   UNL     1       1.139  -0.030   0.000  0.00  0.00    +0.000 NA
ATOM      9  C   UNL     1       1.923  -0.285   0.000  0.00  0.00    +0.000 A 
ATOM     10  C   UNL     1       2.638   0.127   0.000  0.00  0.00    +0.000 A 
ATOM     11  N   UNL     1       3.352  -0.285   0.000  0.00  0.00    +0.000 NA
ATOM     12  C   UNL     1       3.352  -1.110   0.000  0.00  0.00    +0.000 A 
ATOM     13  C   UNL     1       2.638  -1.523   0.000  0.00  0.00    +0.000 A 
ATOM     14  C   UNL     1       1.923  -1.110   0.000  0.00  0.00    +0.000 A 
ATOM     15  N   UNL     1       1.139  -1.365   0.000  0.00  0.00    +0.000 N 
ATOM     16  C   UNL     1       4.067  -1.523   0.000  0.00  0.00    +0.000 C 
ATOM     17  C   UNL     1       2.638   0.952   0.000  0.00  0.00    +0.000 C 
BRANCH   7  19
ATOM     18  C   UNL     1      -0.584  -1.412   0.000  0.00  0.00    +0.000 C 
ATOM     19  C   UNL     1      -0.171  -0.698   0.000  0.00  0.00    +0.000 C 
ENDBRANCH   7  19
ENDBRANCH   1  15
BRANCH   4  20
ATOM     20  C   UNL     1       0.119  -4.504   0.000  0.00  0.00    +0.000 C 
BRANCH  20  21
ATOM     21  C   UNL     1      -0.688  -4.675   0.000  0.00  0.00    +0.000 C 
BRANCH  21  22
ATOM     22  N   UNL     1      -0.943  -5.460   0.000  0.00  0.00    +0.000 NA
ATOM     23  C   UNL     1      -1.750  -5.631   0.000  0.00  0.00    +0.000 C 
ATOM     24  O   UNL     1      -2.302  -5.018   0.000  0.00  0.00    +0.000 OA
ATOM     25  N   UNL     1      -2.005  -6.416   0.000  0.00  0.00    +0.000 NA
BRANCH  25  26
ATOM     26  S   UNL     1      -2.812  -6.588   0.000  0.00  0.00    +0.000 S 
ATOM     27  O   UNL     1      -2.983  -5.781   0.000  0.00  0.00    +0.000 OA
ATOM     28  O   UNL     1      -2.640  -7.395   0.000  0.00  0.00    +0.000 OA
BRANCH  26  29
ATOM     29  C   UNL     1      -3.619  -6.759   0.000  0.00  0.00    +0.000 A 
ATOM     30  C   UNL     1      -3.874  -7.544   0.000  0.00  0.00    +0.000 A 
ATOM     31  C   UNL     1      -4.681  -7.715   0.000  0.00  0.00    +0.000 A 
ATOM     32  C   UNL     1      -5.233  -7.102   0.000  0.00  0.00    +0.000 A 
ATOM     33  C   UNL     1      -4.978  -6.318   0.000  0.00  0.00    +0.000 A 
ATOM     34  C   UNL     1      -4.171  -6.146   0.000  0.00  0.00    +0.000 A 
ATOM     35  C   UNL     1      -6.040  -7.274   0.000  0.00  0.00    +0.000 C 
ENDBRANCH  26  29
ENDBRANCH  25  26
ENDBRANCH  21  22
ENDBRANCH  20  21
ENDBRANCH   4  20
TORSDOF 7
