REMARK  Name = 
REMARK  9 active torsions:
REMARK  status: ('A' for Active; 'I' for Inactive)
REMARK    1  A    between atoms: C_3  and  N_7
REMARK    2  A    between atoms: C_4  and  N_11
REMARK    3  A    between atoms: C_6  and  C_12
REMARK    4  A    between atoms: C_10  and  O_28
REMARK    5  A    between atoms: N_11  and  C_18
REMARK    6  A    between atoms: C_14  and  C_20
REMARK    7  A    between atoms: C_21  and  C_29
REMARK    8  A    between atoms: N_26  and  C_29
REMARK    9  A    between atoms: O_28  and  C_32
REMARK                            x       y       z     vdW  Elec       q    Type
REMARK                         _______ _______ _______ _____ _____    ______ ____
ROOT
ATOM      1  C   UNL     1       0.718   0.208   0.000  0.00  0.00    +0.000 A 
ATOM      2  C   UNL     1       1.433  -0.208   0.000  0.00  0.00    +0.000 A 
ATOM      3  C   UNL     1       0.007  -0.208   0.000  0.00  0.00    +0.000 A 
ATOM      4  C   UNL     1       2.144   0.193   0.000  0.00  0.00    +0.000 A 
ATOM      5  C   UNL     1       1.419  -1.034   0.000  0.00  0.00    +0.000 A 
ATOM      6  C   UNL     1       2.859  -0.217   0.000  0.00  0.00    +0.000 A 
ATOM      7  N   UNL     1       2.134  -1.460   0.000  0.00  0.00    +0.000 NA
ATOM      8  C   UNL     1       0.708  -1.445   0.000  0.00  0.00    +0.000 A 
ATOM      9  C   UNL     1      -0.007  -1.034   0.000  0.00  0.00    +0.000 A 
ATOM     10  C   UNL     1       2.859  -1.044   0.000  0.00  0.00    +0.000 A 
ENDROOT
BRANCH   3  11
ATOM     11  N   UNL     1      -0.708   0.217   0.000  0.00  0.00    +0.000 NA
ATOM     12  C   UNL     1      -1.419  -0.193   0.000  0.00  0.00    +0.000 C 
ATOM     13  O   UNL     1      -1.433  -1.020   0.000  0.00  0.00    +0.000 OA
BRANCH  12  14
ATOM     14  C   UNL     1      -2.134   0.217   0.000  0.00  0.00    +0.000 C 
ATOM     15  C   UNL     1      -2.859  -0.193   0.000  0.00  0.00    +0.000 C 
BRANCH  15  16
ATOM     16  C   UNL     1      -3.575   0.232   0.000  0.00  0.00    +0.000 C 
BRANCH  16  17
ATOM     17  N   UNL     1      -4.285  -0.184   0.000  0.00  0.00    +0.000 NA
ATOM     18  C   UNL     1      -5.001   0.232   0.000  0.00  0.00    +0.000 C 
ATOM     19  C   UNL     1      -4.285  -1.006   0.000  0.00  0.00    +0.000 C 
ENDBRANCH  16  17
ENDBRANCH  15  16
ENDBRANCH  12  14
ENDBRANCH   3  11
BRANCH   6  20
ATOM     20  C   UNL     1       3.575   0.193   0.000  0.00  0.00    +0.000 C 
ATOM     21  N   UNL     1       4.285   0.609   0.000  0.00  0.00    +0.000 NA
ENDBRANCH   6  20
BRANCH   4  22
ATOM     22  N   UNL     1       2.144   1.020   0.000  0.00  0.00    +0.000 NA
BRANCH  22  25
ATOM     23  C   UNL     1       4.285   1.431   0.000  0.00  0.00    +0.000 A 
ATOM     24  C   UNL     1       3.575   1.020   0.000  0.00  0.00    +0.000 A 
ATOM     25  C   UNL     1       2.859   1.431   0.000  0.00  0.00    +0.000 A 
ATOM     26  C   UNL     1       4.285   2.257   0.000  0.00  0.00    +0.000 A 
ATOM     27  C   UNL     1       3.575   2.673   0.000  0.00  0.00    +0.000 A 
ATOM     28 CL   UNL     1       5.001   1.020   0.000  0.00  0.00    +0.000 Cl
ATOM     29  C   UNL     1       2.859   2.257   0.000  0.00  0.00    +0.000 A 
ATOM     30  F   UNL     1       5.001   2.673   0.000  0.00  0.00    +0.000 F 
ENDBRANCH  22  25
ENDBRANCH   4  22
BRANCH   9  31
ATOM     31  O   UNL     1      -0.718  -1.445   0.000  0.00  0.00    +0.000 OA
BRANCH  31  32
ATOM     32  C   UNL     1      -0.732  -2.272   0.000  0.00  0.00    +0.000 C 
ATOM     33  C   UNL     1      -1.448  -2.673   0.000  0.00  0.00    +0.000 C 
ENDBRANCH  31  32
ENDBRANCH   9  31
TORSDOF 9
