REMARK  Name = 
REMARK  1 active torsions:
REMARK  status: ('A' for Active; 'I' for Inactive)
REMARK    1  A    between atoms: C_2  and  C_9
REMARK                            x       y       z     vdW  Elec       q    Type
REMARK                         _______ _______ _______ _____ _____    ______ ____
ROOT
ATOM      1  C   UNL     1       2.070   1.110   0.000  0.00  0.00    +0.000 A 
ATOM      2  C   UNL     1       1.356   0.698   0.000  0.00  0.00    +0.000 A 
ATOM      3  C   UNL     1       0.641   1.110   0.000  0.00  0.00    +0.000 A 
ATOM      4  N   UNL     1      -0.143   0.856   0.000  0.00  0.00    +0.000 NA
ATOM      5  O   UNL     1      -0.628   1.523   0.000  0.00  0.00    +0.000 OA
ATOM      6  N   UNL     1      -0.143   2.190   0.000  0.00  0.00    +0.000 NA
ATOM      7  C   UNL     1       0.641   1.935   0.000  0.00  0.00    +0.000 A 
ATOM      8  C   UNL     1       1.356   2.348   0.000  0.00  0.00    +0.000 A 
ATOM      9  C   UNL     1       2.070   1.935   0.000  0.00  0.00    +0.000 A 
ENDROOT
BRANCH   1  11
ATOM     10  O   UNL     1       2.784  -0.127   0.000  0.00  0.00    +0.000 OA
ATOM     11  C   UNL     1       2.784   0.698   0.000  0.00  0.00    +0.000 C 
ATOM     12  N   UNL     1       3.499   1.110   0.000  0.00  0.00    +0.000 N 
ATOM     13  C   UNL     1       3.499   1.935   0.000  0.00  0.00    +0.000 C 
ATOM     14  C   UNL     1       4.213   2.348   0.000  0.00  0.00    +0.000 C 
ATOM     15  C   UNL     1       4.928   1.935   0.000  0.00  0.00    +0.000 C 
ATOM     16  C   UNL     1       4.928   1.110   0.000  0.00  0.00    +0.000 C 
ATOM     17  C   UNL     1       4.213   0.698   0.000  0.00  0.00    +0.000 C 
ENDBRANCH   1  11
TORSDOF 1
