REMARK  Name = 
REMARK  3 active torsions:
REMARK  status: ('A' for Active; 'I' for Inactive)
REMARK    1  A    between atoms: C_2  and  C_3
REMARK    2  A    between atoms: C_3  and  C_4
REMARK    3  A    between atoms: N_9  and  C_10
REMARK                            x       y       z     vdW  Elec       q    Type
REMARK                         _______ _______ _______ _____ _____    ______ ____
ROOT
ATOM      1  C   UNL     1      -0.715  -0.412   0.000  0.00  0.00    +0.000 C 
ATOM      2  C   UNL     1      -0.715  -1.238   0.000  0.00  0.00    +0.000 C 
ATOM      3  O   UNL     1       0.000  -1.650   0.000  0.00  0.00    +0.000 OA
ATOM      4  C   UNL     1       0.715  -1.238   0.000  0.00  0.00    +0.000 A 
ATOM      5  C   UNL     1       0.715  -0.412   0.000  0.00  0.00    +0.000 A 
ATOM      6  C   UNL     1       0.000   0.000   0.000  0.00  0.00    +0.000 C 
ATOM      7  C   UNL     1       1.429   0.000   0.000  0.00  0.00    +0.000 A 
ATOM      8  C   UNL     1       2.143  -0.412   0.000  0.00  0.00    +0.000 A 
ATOM      9  F   UNL     1       2.858   0.000   0.000  0.00  0.00    +0.000 F 
ATOM     10  C   UNL     1       2.143  -1.238   0.000  0.00  0.00    +0.000 A 
ATOM     11  C   UNL     1       1.429  -1.650   0.000  0.00  0.00    +0.000 A 
ATOM     12  F   UNL     1       1.429  -2.475   0.000  0.00  0.00    +0.000 F 
ENDROOT
BRANCH   1  18
ATOM     13  C   UNL     1      -2.183  -0.336   0.000  0.00  0.00    +0.000 A 
ATOM     14  C   UNL     1      -2.735   0.278   0.000  0.00  0.00    +0.000 A 
ATOM     15  N   UNL     1      -2.322   0.992   0.000  0.00  0.00    +0.000 NA
ATOM     16  C   UNL     1      -1.515   0.821   0.000  0.00  0.00    +0.000 A 
ATOM     17  S   UNL     1      -0.902   1.373   0.000  0.00  0.00    +0.000 S 
ATOM     18  N   UNL     1      -1.429   0.000   0.000  0.00  0.00    +0.000 N 
BRANCH  13  19
ATOM     19  C   UNL     1      -2.354  -1.143   0.000  0.00  0.00    +0.000 C 
BRANCH  19  21
ATOM     20  N   UNL     1      -3.310  -2.204   0.000  0.00  0.00    +0.000 NA
ATOM     21  C   UNL     1      -3.139  -1.397   0.000  0.00  0.00    +0.000 C 
ENDBRANCH  19  21
ENDBRANCH  13  19
ENDBRANCH   1  18
TORSDOF 3
