REMARK  Name = 
REMARK  6 active torsions:
REMARK  status: ('A' for Active; 'I' for Inactive)
REMARK    1  A    between atoms: N_6  and  C_9
REMARK    2  A    between atoms: C_12  and  C_15
REMARK    3  A    between atoms: N_17  and  C_18
REMARK    4  A    between atoms: C_19  and  N_25
REMARK    5  A    between atoms: C_26  and  C_28
REMARK    6  A    between atoms: C_31  and  O_34
REMARK                            x       y       z     vdW  Elec       q    Type
REMARK                         _______ _______ _______ _____ _____    ______ ____
ROOT
ATOM      1  C   UNL     1       3.193  -0.442   0.000  0.00  0.00    +0.000 A 
ATOM      2  C   UNL     1       3.907  -0.854   0.000  0.00  0.00    +0.000 A 
ATOM      3  C   UNL     1       3.907  -1.679   0.000  0.00  0.00    +0.000 A 
ATOM      4  C   UNL     1       3.193  -2.092   0.000  0.00  0.00    +0.000 A 
ATOM      5  C   UNL     1       2.478  -1.679   0.000  0.00  0.00    +0.000 A 
ATOM      6  C   UNL     1       2.478  -0.854   0.000  0.00  0.00    +0.000 A 
ATOM      7  O   UNL     1       1.764  -0.442   0.000  0.00  0.00    +0.000 OA
ENDROOT
BRANCH   1  10
ATOM      8  C   UNL     1       2.478   0.796   0.000  0.00  0.00    +0.000 C 
ATOM      9  O   UNL     1       1.764   0.383   0.000  0.00  0.00    +0.000 OA
ATOM     10  N   UNL     1       3.193   0.383   0.000  0.00  0.00    +0.000 NA
BRANCH   8  14
ATOM     11  C   UNL     1       2.478   3.271   0.000  0.00  0.00    +0.000 A 
ATOM     12  C   UNL     1       3.193   2.858   0.000  0.00  0.00    +0.000 A 
ATOM     13  C   UNL     1       3.193   2.033   0.000  0.00  0.00    +0.000 A 
ATOM     14  C   UNL     1       2.478   1.621   0.000  0.00  0.00    +0.000 A 
ATOM     15  C   UNL     1       1.764   2.033   0.000  0.00  0.00    +0.000 A 
ATOM     16  C   UNL     1       1.764   2.858   0.000  0.00  0.00    +0.000 A 
BRANCH  11  22
ATOM     17  C   UNL     1       1.708   6.646   0.000  0.00  0.00    +0.000 C 
ATOM     18  N   UNL     1       2.066   5.903   0.000  0.00  0.00    +0.000 NA
ATOM     19  C   UNL     1       2.891   5.903   0.000  0.00  0.00    +0.000 C 
ATOM     20  C   UNL     1       3.405   5.258   0.000  0.00  0.00    +0.000 C 
ATOM     21  C   UNL     1       3.221   4.454   0.000  0.00  0.00    +0.000 C 
ATOM     22  N   UNL     1       2.478   4.096   0.000  0.00  0.00    +0.000 N 
ATOM     23  C   UNL     1       1.735   4.454   0.000  0.00  0.00    +0.000 C 
ATOM     24  C   UNL     1       1.551   5.258   0.000  0.00  0.00    +0.000 C 
ENDBRANCH  11  22
ENDBRANCH   8  14
ENDBRANCH   1  10
BRANCH   2  25
ATOM     25  N   UNL     1       4.622  -0.442   0.000  0.00  0.00    +0.000 NA
ATOM     26  C   UNL     1       4.622   0.383   0.000  0.00  0.00    +0.000 C 
ATOM     27  O   UNL     1       3.907   0.796   0.000  0.00  0.00    +0.000 OA
BRANCH  26  28
ATOM     28  C   UNL     1       5.336   0.796   0.000  0.00  0.00    +0.000 A 
ATOM     29  C   UNL     1       5.336   1.621   0.000  0.00  0.00    +0.000 A 
ATOM     30  C   UNL     1       6.050   2.033   0.000  0.00  0.00    +0.000 A 
ATOM     31  C   UNL     1       6.765   1.621   0.000  0.00  0.00    +0.000 A 
ATOM     32  C   UNL     1       6.765   0.796   0.000  0.00  0.00    +0.000 A 
ATOM     33  C   UNL     1       6.050   0.383   0.000  0.00  0.00    +0.000 A 
BRANCH  31  34
ATOM     34  O   UNL     1       7.479   2.033   0.000  0.00  0.00    +0.000 OA
ATOM     35  C   UNL     1       8.194   1.621   0.000  0.00  0.00    +0.000 C 
ENDBRANCH  31  34
ENDBRANCH  26  28
ENDBRANCH   2  25
TORSDOF 6
