REMARK  Name = 
REMARK  5 active torsions:
REMARK  status: ('A' for Active; 'I' for Inactive)
REMARK    1  A    between atoms: N_2  and  C_3
REMARK    2  A    between atoms: C_3  and  C_4
REMARK    3  A    between atoms: N_9  and  C_10
REMARK    4  A    between atoms: N_9  and  N_13
REMARK    5  A    between atoms: C_10  and  C_11
REMARK                            x       y       z     vdW  Elec       q    Type
REMARK                         _______ _______ _______ _____ _____    ______ ____
ROOT
ATOM      1  C   UNL     1       5.141   1.318   0.000  0.00  0.00    +0.000 C 
ATOM      2  N   UNL     1       5.141   2.143   0.000  0.00  0.00    +0.000 N 
ATOM      3  C   UNL     1       5.856   2.556   0.000  0.00  0.00    +0.000 C 
ATOM      4  O   UNL     1       5.856   3.381   0.000  0.00  0.00    +0.000 OA
ATOM      5  N   UNL     1       6.570   2.143   0.000  0.00  0.00    +0.000 N 
ENDROOT
BRANCH   5   6
ATOM      6  N   UNL     1       6.570   1.318   0.000  0.00  0.00    +0.000 NA
ATOM      7  O   UNL     1       7.285   0.906   0.000  0.00  0.00    +0.000 OA
ENDBRANCH   5   6
BRANCH   2   8
ATOM      8  C   UNL     1       4.427   2.556   0.000  0.00  0.00    +0.000 C 
BRANCH   8   9
ATOM      9  C   UNL     1       3.712   2.143   0.000  0.00  0.00    +0.000 C 
ATOM     10  O   UNL     1       2.998   2.556   0.000  0.00  0.00    +0.000 OA
ATOM     11  N   UNL     1       3.712   1.318   0.000  0.00  0.00    +0.000 NA
ENDBRANCH   8   9
ENDBRANCH   2   8
BRANCH   5  12
ATOM     12  C   UNL     1       7.285   2.556   0.000  0.00  0.00    +0.000 C 
BRANCH  12  13
ATOM     13  C   UNL     1       7.999   2.143   0.000  0.00  0.00    +0.000 C 
ATOM     14 CL   UNL     1       8.714   2.556   0.000  0.00  0.00    +0.000 Cl
ENDBRANCH  12  13
ENDBRANCH   5  12
TORSDOF 5
