REMARK  Name = 
REMARK  1 active torsions:
REMARK  status: ('A' for Active; 'I' for Inactive)
REMARK    1  A    between atoms: C_1  and  C_2
REMARK                            x       y       z     vdW  Elec       q    Type
REMARK                         _______ _______ _______ _____ _____    ______ ____
ROOT
ATOM      1  C   UNL     1       0.357   0.206   0.000  0.00  0.00    +0.000 C 
ATOM      2  C   UNL     1       0.357  -0.618   0.000  0.00  0.00    +0.000 C 
ATOM      3  O   UNL     1       1.072   0.619   0.000  0.00  0.00    +0.000 OA
ATOM      4  N   UNL     1       1.072  -1.031   0.000  0.00  0.00    +0.000 NA
ATOM      5  C   UNL     1      -0.357  -1.031   0.000  0.00  0.00    +0.000 C 
ATOM      6  C   UNL     1       1.787   0.206   0.000  0.00  0.00    +0.000 C 
ATOM      7  C   UNL     1       1.787  -0.618   0.000  0.00  0.00    +0.000 C 
ATOM      8  C   UNL     1       1.072  -1.855   0.000  0.00  0.00    +0.000 C 
ENDROOT
BRANCH   1   9
ATOM      9  C   UNL     1      -0.357   0.619   0.000  0.00  0.00    +0.000 A 
ATOM     10  C   UNL     1      -1.072   0.206   0.000  0.00  0.00    +0.000 A 
ATOM     11  C   UNL     1      -0.357   1.443   0.000  0.00  0.00    +0.000 A 
ATOM     12  C   UNL     1      -1.787   0.619   0.000  0.00  0.00    +0.000 A 
ATOM     13  C   UNL     1      -1.072   1.855   0.000  0.00  0.00    +0.000 A 
ATOM     14  C   UNL     1      -1.787   1.443   0.000  0.00  0.00    +0.000 A 
ENDBRANCH   1   9
TORSDOF 1
