REMARK  Name = 
REMARK  0 active torsions:
REMARK  status: ('A' for Active; 'I' for Inactive)
REMARK                            x       y       z     vdW  Elec       q    Type
REMARK                         _______ _______ _______ _____ _____    ______ ____
ROOT
ATOM      1  C   UNL     1      -0.412  -0.583   0.000  0.00  0.00    +0.000 C 
ATOM      2  C   UNL     1      -0.996   0.000   0.000  0.00  0.00    +0.000 C 
ATOM      3  O   UNL     1      -0.412   0.583   0.000  0.00  0.00    +0.000 OA
ATOM      4  C   UNL     1       0.171   0.000   0.000  0.00  0.00    +0.000 C 
ATOM      5  O   UNL     1       0.996   0.000   0.000  0.00  0.00    +0.000 OA
ENDROOT
TORSDOF 0
