REMARK  Name = 
REMARK  8 active torsions:
REMARK  status: ('A' for Active; 'I' for Inactive)
REMARK    1  A    between atoms: C_12  and  O_35
REMARK    2  A    between atoms: O_35  and  C_36
REMARK    3  A    between atoms: C_39  and  C_40
REMARK    4  A    between atoms: C_44  and  O_45
REMARK    5  A    between atoms: O_45  and  C_46
REMARK    6  A    between atoms: C_49  and  C_50
REMARK    7  A    between atoms: C_58  and  O_59
REMARK    8  A    between atoms: O_59  and  C_60
REMARK                            x       y       z     vdW  Elec       q    Type
REMARK                         _______ _______ _______ _____ _____    ______ ____
ROOT
ATOM      1  C   UNL     1      14.192  -2.185   0.000  0.00  0.00    +0.000 C 
ATOM      2  O   UNL     1      13.739  -1.496   0.000  0.00  0.00    +0.000 OA
ATOM      3  C   UNL     1      14.109  -0.759   0.000  0.00  0.00    +0.000 C 
ATOM      4  C   UNL     1      14.933  -0.711   0.000  0.00  0.00    +0.000 C 
ATOM      5  O   UNL     1      15.303   0.026   0.000  0.00  0.00    +0.000 OA
ATOM      6  C   UNL     1      15.386  -1.400   0.000  0.00  0.00    +0.000 C 
ATOM      7  C   UNL     1      15.016  -2.137   0.000  0.00  0.00    +0.000 C 
ENDROOT
BRANCH   3   8
ATOM      8  C   UNL     1      13.656  -0.069   0.000  0.00  0.00    +0.000 C 
ATOM      9  O   UNL     1      14.026   0.668   0.000  0.00  0.00    +0.000 OA
ENDBRANCH   3   8
BRANCH   1  10
ATOM     10  O   UNL     1      13.822  -2.922   0.000  0.00  0.00    +0.000 OA
BRANCH  10  19
ATOM     11  C   UNL     1       7.931  -2.272   0.000  0.00  0.00    +0.000 C 
ATOM     12  C   UNL     1       8.664  -1.893   0.000  0.00  0.00    +0.000 C 
ATOM     13  C   UNL     1       9.251  -2.473   0.000  0.00  0.00    +0.000 C 
ATOM     14  C   UNL     1      10.074  -2.425   0.000  0.00  0.00    +0.000 C 
ATOM     15  C   UNL     1      10.445  -1.688   0.000  0.00  0.00    +0.000 C 
ATOM     16  C   UNL     1      11.268  -1.640   0.000  0.00  0.00    +0.000 C 
ATOM     17  C   UNL     1      11.722  -2.329   0.000  0.00  0.00    +0.000 C 
ATOM     18  C   UNL     1      12.545  -2.281   0.000  0.00  0.00    +0.000 C 
ATOM     19  C   UNL     1      12.998  -2.970   0.000  0.00  0.00    +0.000 C 
ATOM     20  C   UNL     1      12.628  -3.708   0.000  0.00  0.00    +0.000 C 
ATOM     21  C   UNL     1      11.805  -3.756   0.000  0.00  0.00    +0.000 C 
ATOM     22  C   UNL     1      11.351  -3.066   0.000  0.00  0.00    +0.000 C 
ATOM     23  C   UNL     1      10.981  -3.804   0.000  0.00  0.00    +0.000 C 
ATOM     24  C   UNL     1      10.528  -3.114   0.000  0.00  0.00    +0.000 C 
ATOM     25  C   UNL     1      10.157  -3.851   0.000  0.00  0.00    +0.000 C 
ATOM     26  C   UNL     1       9.334  -3.899   0.000  0.00  0.00    +0.000 C 
ATOM     27  C   UNL     1       8.880  -3.210   0.000  0.00  0.00    +0.000 C 
ATOM     28  C   UNL     1       8.435  -3.905   0.000  0.00  0.00    +0.000 C 
ATOM     29  C   UNL     1       8.065  -3.086   0.000  0.00  0.00    +0.000 C 
ATOM     30  C   UNL     1       7.332  -3.465   0.000  0.00  0.00    +0.000 C 
ATOM     31  C   UNL     1       7.208  -4.280   0.000  0.00  0.00    +0.000 C 
ATOM     32  C   UNL     1       6.745  -2.885   0.000  0.00  0.00    +0.000 C 
ATOM     33  C   UNL     1       6.454  -3.656   0.000  0.00  0.00    +0.000 C 
ATOM     34  C   UNL     1       5.640  -3.790   0.000  0.00  0.00    +0.000 C 
ATOM     35  C   UNL     1       5.117  -3.152   0.000  0.00  0.00    +0.000 C 
ATOM     36  C   UNL     1       4.303  -3.286   0.000  0.00  0.00    +0.000 C 
ATOM     37  C   UNL     1       5.408  -2.380   0.000  0.00  0.00    +0.000 C 
ATOM     38  N   UNL     1       6.222  -2.246   0.000  0.00  0.00    +0.000 NA
ATOM     39  O   UNL     1       7.115  -2.147   0.000  0.00  0.00    +0.000 OA
ENDBRANCH  10  19
ENDBRANCH   1  10
BRANCH   7  40
ATOM     40  O   UNL     1      15.469  -2.826   0.000  0.00  0.00    +0.000 OA
BRANCH  40  41
ATOM     41  C   UNL     1      15.099  -3.564   0.000  0.00  0.00    +0.000 C 
ATOM     42  O   UNL     1      14.275  -3.612   0.000  0.00  0.00    +0.000 OA
ATOM     43  C   UNL     1      13.905  -4.349   0.000  0.00  0.00    +0.000 C 
ATOM     44  C   UNL     1      13.082  -4.397   0.000  0.00  0.00    +0.000 C 
ATOM     45  C   UNL     1      14.358  -5.038   0.000  0.00  0.00    +0.000 C 
ATOM     46  O   UNL     1      13.988  -5.776   0.000  0.00  0.00    +0.000 OA
ATOM     47  C   UNL     1      15.182  -4.990   0.000  0.00  0.00    +0.000 C 
ATOM     48  O   UNL     1      15.635  -5.680   0.000  0.00  0.00    +0.000 OA
ATOM     49  C   UNL     1      15.552  -4.253   0.000  0.00  0.00    +0.000 C 
ATOM     50  O   UNL     1      16.376  -4.205   0.000  0.00  0.00    +0.000 OA
ENDBRANCH  40  41
ENDBRANCH   7  40
BRANCH   6  51
ATOM     51  O   UNL     1      16.210  -1.352   0.000  0.00  0.00    +0.000 OA
BRANCH  51  52
ATOM     52  C   UNL     1      16.580  -0.615   0.000  0.00  0.00    +0.000 C 
ATOM     53  O   UNL     1      16.127   0.074   0.000  0.00  0.00    +0.000 OA
ATOM     54  C   UNL     1      16.497   0.812   0.000  0.00  0.00    +0.000 C 
ATOM     55  C   UNL     1      17.321   0.860   0.000  0.00  0.00    +0.000 C 
ATOM     56  O   UNL     1      17.691   1.597   0.000  0.00  0.00    +0.000 OA
ATOM     57  C   UNL     1      17.774   0.170   0.000  0.00  0.00    +0.000 C 
ATOM     58  O   UNL     1      18.598   0.218   0.000  0.00  0.00    +0.000 OA
ATOM     59  C   UNL     1      17.404  -0.567   0.000  0.00  0.00    +0.000 C 
ATOM     60  O   UNL     1      17.857  -1.256   0.000  0.00  0.00    +0.000 OA
BRANCH  54  61
ATOM     61  C   UNL     1      16.044   1.501   0.000  0.00  0.00    +0.000 C 
ATOM     62  O   UNL     1      15.220   1.453   0.000  0.00  0.00    +0.000 OA
ENDBRANCH  54  61
ENDBRANCH  51  52
ENDBRANCH   6  51
TORSDOF 8
