REMARK  Name = 
REMARK  6 active torsions:
REMARK  status: ('A' for Active; 'I' for Inactive)
REMARK    1  A    between atoms: C_6  and  N_10
REMARK    2  A    between atoms: C_13  and  C_17
REMARK    3  A    between atoms: N_19  and  C_20
REMARK    4  A    between atoms: C_20  and  C_21
REMARK    5  A    between atoms: C_20  and  C_28
REMARK    6  A    between atoms: C_28  and  C_29
REMARK                            x       y       z     vdW  Elec       q    Type
REMARK                         _______ _______ _______ _____ _____    ______ ____
ROOT
ATOM      1  N   UNL     1       1.510  -0.829   0.000  0.00  0.00    +0.000 N 
ATOM      2  C   UNL     1       2.223  -0.416   0.000  0.00  0.00    +0.000 C 
ATOM      3  C   UNL     1       2.223   0.409   0.000  0.00  0.00    +0.000 C 
ATOM      4  C   UNL     1       1.510   0.829   0.000  0.00  0.00    +0.000 C 
ATOM      5  C   UNL     1       0.797   0.409   0.000  0.00  0.00    +0.000 C 
ATOM      6  C   UNL     1       0.797  -0.416   0.000  0.00  0.00    +0.000 C 
ATOM      7  N   UNL     1       2.223   1.241   0.000  0.00  0.00    +0.000 NA
ENDROOT
BRANCH   1  13
ATOM      8  N   UNL     1       0.797  -2.066   0.000  0.00  0.00    +0.000 NA
ATOM      9  C   UNL     1       0.797  -2.891   0.000  0.00  0.00    +0.000 A 
ATOM     10  N   UNL     1       1.510  -3.304   0.000  0.00  0.00    +0.000 NA
ATOM     11  C   UNL     1       2.223  -2.891   0.000  0.00  0.00    +0.000 A 
ATOM     12  C   UNL     1       2.223  -2.066   0.000  0.00  0.00    +0.000 A 
ATOM     13  C   UNL     1       1.510  -1.654   0.000  0.00  0.00    +0.000 A 
ATOM     14  N   UNL     1       3.014  -3.143   0.000  0.00  0.00    +0.000 NA
ATOM     15  C   UNL     1       3.496  -2.479   0.000  0.00  0.00    +0.000 A 
ATOM     16  C   UNL     1       3.014  -1.807   0.000  0.00  0.00    +0.000 A 
ENDBRANCH   1  13
BRANCH   4  17
ATOM     17  C   UNL     1       0.797   1.241   0.000  0.00  0.00    +0.000 C 
ATOM     18  O   UNL     1       0.797   2.066   0.000  0.00  0.00    +0.000 OA
ATOM     19  N   UNL     1       0.077   0.829   0.000  0.00  0.00    +0.000 NA
BRANCH  19  20
ATOM     20  C   UNL     1      -0.636   1.241   0.000  0.00  0.00    +0.000 C 
BRANCH  20  21
ATOM     21  C   UNL     1      -1.349   0.829   0.000  0.00  0.00    +0.000 A 
ATOM     22  C   UNL     1      -2.062   1.241   0.000  0.00  0.00    +0.000 A 
ATOM     23  C   UNL     1      -2.783   0.829   0.000  0.00  0.00    +0.000 A 
ATOM     24  C   UNL     1      -2.783  -0.003   0.000  0.00  0.00    +0.000 A 
ATOM     25  C   UNL     1      -2.062  -0.416   0.000  0.00  0.00    +0.000 A 
ATOM     26  C   UNL     1      -1.349  -0.003   0.000  0.00  0.00    +0.000 A 
ATOM     27 CL   UNL     1      -3.496  -0.416   0.000  0.00  0.00    +0.000 Cl
ENDBRANCH  20  21
BRANCH  20  28
ATOM     28  C   UNL     1      -0.636   2.066   0.000  0.00  0.00    +0.000 C 
BRANCH  28  29
ATOM     29  C   UNL     1      -1.349   2.479   0.000  0.00  0.00    +0.000 C 
ATOM     30  O   UNL     1      -1.349   3.304   0.000  0.00  0.00    +0.000 OA
ENDBRANCH  28  29
ENDBRANCH  20  28
ENDBRANCH  19  20
ENDBRANCH   4  17
TORSDOF 6
