REMARK  Name = 
REMARK  6 active torsions:
REMARK  status: ('A' for Active; 'I' for Inactive)
REMARK    1  A    between atoms: N_1  and  C_3
REMARK    2  A    between atoms: C_12  and  C_17
REMARK    3  A    between atoms: C_17  and  O_19
REMARK    4  A    between atoms: O_19  and  P_20
REMARK    5  A    between atoms: P_20  and  O_21
REMARK    6  A    between atoms: O_21  and  P_24
REMARK                            x       y       z     vdW  Elec       q    Type
REMARK                         _______ _______ _______ _____ _____    ______ ____
ROOT
ATOM      1  C   UNL     1       3.137  -1.401   0.000  0.00  0.00    +0.000 C 
ATOM      2  O   UNL     1       2.121  -0.836   0.000  0.00  0.00    +0.000 OA
ATOM      3  C   UNL     1       2.744  -2.169   0.000  0.00  0.00    +0.000 C 
ATOM      4  C   UNL     1       1.109  -1.401   0.000  0.00  0.00    +0.000 C 
ATOM      5  C   UNL     1       1.487  -2.169   0.000  0.00  0.00    +0.000 C 
ATOM      6  O   UNL     1       2.961  -2.826   0.000  0.00  0.00    +0.000 OA
ATOM      7  O   UNL     1       1.204  -2.826   0.000  0.00  0.00    +0.000 OA
ENDROOT
BRANCH   1   8
ATOM      8  N   UNL     1       3.126   0.386   0.000  0.00  0.00    +0.000 N 
ATOM      9  C   UNL     1       2.419   0.791   0.000  0.00  0.00    +0.000 A 
ATOM     10  C   UNL     1       3.828   0.794   0.000  0.00  0.00    +0.000 A 
ATOM     11  C   UNL     1       2.415   1.616   0.000  0.00  0.00    +0.000 A 
ATOM     12  N   UNL     1       1.712   0.390   0.000  0.00  0.00    +0.000 NA
ATOM     13  N   UNL     1       3.825   1.619   0.000  0.00  0.00    +0.000 NA
ATOM     14  C   UNL     1       1.708   2.013   0.000  0.00  0.00    +0.000 A 
ATOM     15  C   UNL     1       1.013   0.791   0.000  0.00  0.00    +0.000 A 
ATOM     16  N   UNL     1       1.013   1.612   0.000  0.00  0.00    +0.000 NA
ATOM     17  N   UNL     1       1.708   2.826   0.000  0.00  0.00    +0.000 NA
ENDBRANCH   1   8
BRANCH   4  18
ATOM     18  C   UNL     1       0.502  -0.886   0.000  0.00  0.00    +0.000 C 
BRANCH  18  19
ATOM     19  O   UNL     1      -0.439  -1.236   0.000  0.00  0.00    +0.000 OA
BRANCH  19  20
ATOM     20  P   UNL     1      -1.389  -0.859   0.000  0.00  0.00    +0.000 P 
ATOM     21  O   UNL     1      -1.389  -0.122   0.000  0.00  0.00    +0.000 OA
ATOM     22  O   UNL     1      -1.389  -1.604   0.000  0.00  0.00    +0.000 OA
BRANCH  20  23
ATOM     23  O   UNL     1      -2.194  -1.295   0.000  0.00  0.00    +0.000 OA
BRANCH  23  24
ATOM     24  P   UNL     1      -3.016  -0.829   0.000  0.00  0.00    +0.000 P 
ATOM     25  O   UNL     1      -3.828  -1.213   0.000  0.00  0.00    +0.000 OA
ATOM     26  O   UNL     1      -3.016  -0.111   0.000  0.00  0.00    +0.000 OA
ATOM     27  O   UNL     1      -3.036  -1.635   0.000  0.00  0.00    +0.000 OA
ENDBRANCH  23  24
ENDBRANCH  20  23
ENDBRANCH  19  20
ENDBRANCH  18  19
ENDBRANCH   4  18
TORSDOF 6
