REMARK  Name = 
REMARK  12 active torsions:
REMARK  status: ('A' for Active; 'I' for Inactive)
REMARK    1  A    between atoms: C_16  and  C_17
REMARK    2  A    between atoms: C_16  and  C_26
REMARK    3  A    between atoms: C_17  and  O_36
REMARK    4  A    between atoms: C_18  and  C_21
REMARK    5  A    between atoms: C_18  and  N_31
REMARK    6  A    between atoms: C_19  and  C_27
REMARK    7  A    between atoms: C_19  and  N_31
REMARK    8  A    between atoms: C_22  and  C_28
REMARK    9  A    between atoms: C_23  and  O_35
REMARK   10  A    between atoms: C_24  and  O_36
REMARK   11  A    between atoms: C_25  and  O_38
REMARK   12  A    between atoms: C_29  and  O_38
REMARK                            x       y       z     vdW  Elec       q    Type
REMARK                         _______ _______ _______ _____ _____    ______ ____
ROOT
ATOM      1  C   UNL     1       3.572   2.888   0.000  0.00  0.00    +0.000 A 
ATOM      2  C   UNL     1       2.858   1.650   0.000  0.00  0.00    +0.000 A 
ATOM      3  C   UNL     1       2.858   3.300   0.000  0.00  0.00    +0.000 A 
ATOM      4  C   UNL     1       2.143   2.062   0.000  0.00  0.00    +0.000 A 
ATOM      5  C   UNL     1       3.572   2.062   0.000  0.00  0.00    +0.000 A 
ATOM      6  C   UNL     1       2.143   2.888   0.000  0.00  0.00    +0.000 A 
ENDROOT
BRANCH   5   7
ATOM      7  C   UNL     1       4.287   1.650   0.000  0.00  0.00    +0.000 C 
BRANCH   7   9
ATOM      8  C   UNL     1       5.001   0.412   0.000  0.00  0.00    +0.000 C 
ATOM      9  N   UNL     1       4.287   0.825   0.000  0.00  0.00    +0.000 N 
ATOM     10  O   UNL     1       5.716   0.825   0.000  0.00  0.00    +0.000 OA
BRANCH   9  11
ATOM     11  C   UNL     1       3.572   0.412   0.000  0.00  0.00    +0.000 C 
BRANCH  11  12
ATOM     12  C   UNL     1       3.572  -0.412   0.000  0.00  0.00    +0.000 C 
ATOM     13  O   UNL     1       4.287  -0.825   0.000  0.00  0.00    +0.000 OA
ATOM     14  O   UNL     1       2.858  -0.825   0.000  0.00  0.00    +0.000 OA
ENDBRANCH  11  12
ENDBRANCH   9  11
BRANCH   8  15
ATOM     15  O   UNL     1       5.001  -0.412   0.000  0.00  0.00    +0.000 OA
BRANCH  15  21
ATOM     16  C   UNL     1       7.145  -0.825   0.000  0.00  0.00    +0.000 A 
ATOM     17  C   UNL     1       6.430  -2.062   0.000  0.00  0.00    +0.000 A 
ATOM     18  C   UNL     1       6.430  -0.412   0.000  0.00  0.00    +0.000 A 
ATOM     19  C   UNL     1       5.716  -1.650   0.000  0.00  0.00    +0.000 A 
ATOM     20  C   UNL     1       7.145  -1.650   0.000  0.00  0.00    +0.000 A 
ATOM     21  C   UNL     1       5.716  -0.825   0.000  0.00  0.00    +0.000 A 
BRANCH  20  23
ATOM     22  C   UNL     1       7.859  -2.888   0.000  0.00  0.00    +0.000 C 
ATOM     23  O   UNL     1       7.859  -2.062   0.000  0.00  0.00    +0.000 OA
ENDBRANCH  20  23
ENDBRANCH  15  21
ENDBRANCH   8  15
ENDBRANCH   7   9
ENDBRANCH   5   7
BRANCH   6  24
ATOM     24  O   UNL     1       1.429   3.300   0.000  0.00  0.00    +0.000 OA
BRANCH  24  25
ATOM     25  C   UNL     1       0.715   2.888   0.000  0.00  0.00    +0.000 C 
BRANCH  25  26
ATOM     26  C   UNL     1       0.000   3.300   0.000  0.00  0.00    +0.000 C 
BRANCH  26  29
ATOM     27  C   UNL     1      -0.188   1.515   0.000  0.00  0.00    +0.000 C 
ATOM     28  C   UNL     1      -0.801   2.067   0.000  0.00  0.00    +0.000 A 
ATOM     29  C   UNL     1      -0.715   2.888   0.000  0.00  0.00    +0.000 A 
ATOM     30  C   UNL     1      -2.020   2.610   0.000  0.00  0.00    +0.000 A 
ATOM     31  N   UNL     1      -1.468   3.223   0.000  0.00  0.00    +0.000 NA
ATOM     32  O   UNL     1      -1.608   1.895   0.000  0.00  0.00    +0.000 OA
BRANCH  30  38
ATOM     33  C   UNL     1      -4.482   2.869   0.000  0.00  0.00    +0.000 A 
ATOM     34  C   UNL     1      -4.146   2.115   0.000  0.00  0.00    +0.000 A 
ATOM     35  C   UNL     1      -3.997   3.536   0.000  0.00  0.00    +0.000 A 
ATOM     36  C   UNL     1      -3.326   2.029   0.000  0.00  0.00    +0.000 A 
ATOM     37  C   UNL     1      -3.176   3.450   0.000  0.00  0.00    +0.000 A 
ATOM     38  C   UNL     1      -2.841   2.696   0.000  0.00  0.00    +0.000 A 
ENDBRANCH  30  38
ENDBRANCH  26  29
ENDBRANCH  25  26
ENDBRANCH  24  25
ENDBRANCH   6  24
TORSDOF 12
