REMARK  Name = 
REMARK  11 active torsions:
REMARK  status: ('A' for Active; 'I' for Inactive)
REMARK    1  A    between atoms: C_2  and  C_3
REMARK    2  A    between atoms: C_3  and  C_4
REMARK    3  A    between atoms: C_4  and  C_5
REMARK    4  A    between atoms: C_5  and  N_6
REMARK    5  A    between atoms: C_7  and  C_9
REMARK    6  A    between atoms: C_12  and  C_14
REMARK    7  A    between atoms: C_19  and  C_20
REMARK    8  A    between atoms: C_20  and  C_21
REMARK    9  A    between atoms: C_26  and  C_27
REMARK   10  A    between atoms: C_27  and  C_28
REMARK   11  A    between atoms: C_28  and  C_29
REMARK                            x       y       z     vdW  Elec       q    Type
REMARK                         _______ _______ _______ _____ _____    ______ ____
ROOT
ATOM      1  C   UNL     1       1.443  -3.234   0.000  0.00  0.00    +0.000 C 
ATOM      2  C   UNL     1       1.779  -3.988   0.000  0.00  0.00    +0.000 C 
ATOM      3  C   UNL     1       2.599  -4.074   0.000  0.00  0.00    +0.000 C 
ATOM      4  C   UNL     1       3.084  -3.407   0.000  0.00  0.00    +0.000 C 
ATOM      5  C   UNL     1       2.749  -2.653   0.000  0.00  0.00    +0.000 C 
ATOM      6  C   UNL     1       1.928  -2.567   0.000  0.00  0.00    +0.000 C 
ATOM      7  O   UNL     1       2.097  -3.199   0.000  0.00  0.00    +0.000 OA
ENDROOT
BRANCH   1  11
ATOM      8  C   UNL     1      -0.683  -3.425   0.000  0.00  0.00    +0.000 A 
ATOM      9  C   UNL     1      -0.597  -2.605   0.000  0.00  0.00    +0.000 A 
ATOM     10  O   UNL     1       0.210  -2.433   0.000  0.00  0.00    +0.000 OA
ATOM     11  C   UNL     1       0.623  -3.148   0.000  0.00  0.00    +0.000 A 
ATOM     12  N   UNL     1       0.071  -3.761   0.000  0.00  0.00    +0.000 NA
BRANCH   8  14
ATOM     13  N   UNL     1      -2.112  -3.425   0.000  0.00  0.00    +0.000 NA
ATOM     14  C   UNL     1      -1.397  -3.838   0.000  0.00  0.00    +0.000 C 
ATOM     15  O   UNL     1      -1.397  -4.663   0.000  0.00  0.00    +0.000 OA
BRANCH  13  16
ATOM     16  C   UNL     1      -2.826  -3.838   0.000  0.00  0.00    +0.000 C 
BRANCH  16  17
ATOM     17  C   UNL     1      -3.541  -3.425   0.000  0.00  0.00    +0.000 C 
BRANCH  17  18
ATOM     18  C   UNL     1      -4.255  -3.838   0.000  0.00  0.00    +0.000 C 
BRANCH  18  20
ATOM     19  C   UNL     1      -5.684  -3.838   0.000  0.00  0.00    +0.000 C 
ATOM     20  C   UNL     1      -4.970  -3.425   0.000  0.00  0.00    +0.000 C 
ENDBRANCH  18  20
ENDBRANCH  17  18
ENDBRANCH  16  17
ENDBRANCH  13  16
ENDBRANCH   8  14
ENDBRANCH   1  11
BRANCH   6  21
ATOM     21  C   UNL     1       1.593  -1.813   0.000  0.00  0.00    +0.000 C 
BRANCH  21  22
ATOM     22  C   UNL     1       2.078  -1.146   0.000  0.00  0.00    +0.000 A 
ATOM     23  C   UNL     1       1.742  -0.392   0.000  0.00  0.00    +0.000 A 
ATOM     24  C   UNL     1       2.227   0.276   0.000  0.00  0.00    +0.000 A 
ATOM     25  C   UNL     1       3.047   0.189   0.000  0.00  0.00    +0.000 A 
ATOM     26  C   UNL     1       3.383  -0.564   0.000  0.00  0.00    +0.000 A 
ATOM     27  C   UNL     1       2.898  -1.232   0.000  0.00  0.00    +0.000 A 
BRANCH  27  28
ATOM     28  C   UNL     1       3.234  -1.986   0.000  0.00  0.00    +0.000 C 
BRANCH  28  29
ATOM     29  C   UNL     1       4.054  -2.072   0.000  0.00  0.00    +0.000 C 
BRANCH  29  30
ATOM     30  C   UNL     1       4.390  -2.825   0.000  0.00  0.00    +0.000 C 
ATOM     31  O   UNL     1       5.210  -2.912   0.000  0.00  0.00    +0.000 OA
ATOM     32  O   UNL     1       3.905  -3.493   0.000  0.00  0.00    +0.000 OA
ENDBRANCH  29  30
ENDBRANCH  28  29
ENDBRANCH  27  28
ENDBRANCH  21  22
ENDBRANCH   6  21
TORSDOF 11
