REMARK  Name = 
REMARK  7 active torsions:
REMARK  status: ('A' for Active; 'I' for Inactive)
REMARK    1  A    between atoms: C_2  and  C_3
REMARK    2  A    between atoms: C_2  and  N_6
REMARK    3  A    between atoms: N_6  and  C_7
REMARK    4  A    between atoms: C_7  and  C_8
REMARK    5  A    between atoms: C_11  and  O_14
REMARK    6  A    between atoms: O_14  and  C_15
REMARK    7  A    between atoms: C_15  and  C_16
REMARK                            x       y       z     vdW  Elec       q    Type
REMARK                         _______ _______ _______ _____ _____    ______ ____
ROOT
ATOM      1  C   UNL     1       4.287  -6.600   0.000  0.00  0.00    +0.000 A 
ATOM      2  C   UNL     1       5.001  -6.188   0.000  0.00  0.00    +0.000 A 
ATOM      3  C   UNL     1       5.716  -6.600   0.000  0.00  0.00    +0.000 A 
ATOM      4  C   UNL     1       5.716  -7.425   0.000  0.00  0.00    +0.000 A 
ATOM      5  C   UNL     1       5.001  -7.838   0.000  0.00  0.00    +0.000 A 
ATOM      6  C   UNL     1       4.287  -7.425   0.000  0.00  0.00    +0.000 A 
ENDROOT
BRANCH   1   7
ATOM      7  C   UNL     1       3.572  -6.188   0.000  0.00  0.00    +0.000 C 
BRANCH   7   8
ATOM      8  N   UNL     1       2.858  -6.600   0.000  0.00  0.00    +0.000 NA
BRANCH   8  10
ATOM      9  C   UNL     1       2.143  -5.362   0.000  0.00  0.00    +0.000 C 
ATOM     10  C   UNL     1       2.143  -6.188   0.000  0.00  0.00    +0.000 C 
BRANCH  10  11
ATOM     11  C   UNL     1       1.429  -6.600   0.000  0.00  0.00    +0.000 C 
ATOM     12  O   UNL     1       0.715  -6.188   0.000  0.00  0.00    +0.000 OA
ATOM     13  N   UNL     1       1.429  -7.425   0.000  0.00  0.00    +0.000 NA
ENDBRANCH  10  11
ENDBRANCH   8  10
ENDBRANCH   7   8
ENDBRANCH   1   7
BRANCH   4  14
ATOM     14  O   UNL     1       6.430  -7.838   0.000  0.00  0.00    +0.000 OA
BRANCH  14  15
ATOM     15  C   UNL     1       7.145  -7.425   0.000  0.00  0.00    +0.000 C 
BRANCH  15  16
ATOM     16  C   UNL     1       7.859  -7.838   0.000  0.00  0.00    +0.000 A 
ATOM     17  C   UNL     1       8.574  -7.425   0.000  0.00  0.00    +0.000 A 
ATOM     18  C   UNL     1       9.288  -7.838   0.000  0.00  0.00    +0.000 A 
ATOM     19  C   UNL     1       9.288  -8.662   0.000  0.00  0.00    +0.000 A 
ATOM     20  C   UNL     1       8.574  -9.075   0.000  0.00  0.00    +0.000 A 
ATOM     21  C   UNL     1       7.859  -8.662   0.000  0.00  0.00    +0.000 A 
ATOM     22  F   UNL     1       7.145  -9.075   0.000  0.00  0.00    +0.000 F 
ENDBRANCH  15  16
ENDBRANCH  14  15
ENDBRANCH   4  14
TORSDOF 7
