REMARK  Name = 
REMARK  8 active torsions:
REMARK  status: ('A' for Active; 'I' for Inactive)
REMARK    1  A    between atoms: C_2  and  C_4
REMARK    2  A    between atoms: C_10  and  C_11
REMARK    3  A    between atoms: C_31  and  C_32
REMARK    4  A    between atoms: C_32  and  C_33
REMARK    5  A    between atoms: C_33  and  C_34
REMARK    6  A    between atoms: C_37  and  C_38
REMARK    7  A    between atoms: C_38  and  C_39
REMARK    8  A    between atoms: C_39  and  C_40
REMARK                            x       y       z     vdW  Elec       q    Type
REMARK                         _______ _______ _______ _____ _____    ______ ____
ROOT
ATOM      1  C   UNL     1      -2.043  -1.511   0.000  0.00  0.00    +0.000 C 
ATOM      2  C   UNL     1      -1.482  -2.062   0.000  0.00  0.00    +0.000 C 
ATOM      3  C   UNL     1      -1.595  -2.880   0.000  0.00  0.00    +0.000 C 
ATOM      4  C   UNL     1      -0.724  -1.646   0.000  0.00  0.00    +0.000 C 
ATOM      5  C   UNL     1       0.011  -2.049   0.000  0.00  0.00    +0.000 C 
ATOM      6  C   UNL     1       0.711  -1.663   0.000  0.00  0.00    +0.000 A 
ATOM      7  C   UNL     1       1.504  -2.036   0.000  0.00  0.00    +0.000 A 
ATOM      8  C   UNL     1       2.056  -1.475   0.000  0.00  0.00    +0.000 A 
ATOM      9  C   UNL     1       2.870  -1.606   0.000  0.00  0.00    +0.000 C 
ATOM     10  C   UNL     1       1.668  -0.688   0.000  0.00  0.00    +0.000 A 
ATOM     11  N   UNL     1       0.850  -0.871   0.000  0.00  0.00    +0.000 NA
ATOM     12  C   UNL     1       2.043   0.018   0.000  0.00  0.00    +0.000 C 
ATOM     13  C   UNL     1       1.627   0.746   0.000  0.00  0.00    +0.000 C 
ATOM     14  N   UNL     1       0.864   0.857   0.000  0.00  0.00    +0.000 NA
ATOM     15  C   UNL     1       0.711   1.675   0.000  0.00  0.00    +0.000 C 
ATOM     16  C   UNL     1       0.005   2.050   0.000  0.00  0.00    +0.000 C 
ATOM     17  C   UNL     1      -0.724   1.663   0.000  0.00  0.00    +0.000 A 
ATOM     18  N   UNL     1      -0.893   0.871   0.000  0.00  0.00    +0.000 NA
ATOM     19  C   UNL     1      -1.682   0.717   0.000  0.00  0.00    +0.000 A 
ATOM     20  C   UNL     1      -2.056  -0.047   0.000  0.00  0.00    +0.000 C 
ATOM     21  C   UNL     1      -1.669  -0.747   0.000  0.00  0.00    +0.000 C 
ATOM     22  N   UNL     1      -0.848  -0.886   0.000  0.00  0.00    +0.000 NA
ATOM     23  C   UNL     1      -2.039   1.417   0.000  0.00  0.00    +0.000 A 
ATOM     24  C   UNL     1      -2.855   1.542   0.000  0.00  0.00    +0.000 C 
ATOM     25  C   UNL     1      -1.459   2.008   0.000  0.00  0.00    +0.000 A 
ATOM     26  C   UNL     1       1.469   2.062   0.000  0.00  0.00    +0.000 C 
ATOM     27  C   UNL     1       2.030   1.511   0.000  0.00  0.00    +0.000 C 
ATOM     28  C   UNL     1       2.845   1.638   0.000  0.00  0.00    +0.000 C 
ENDROOT
BRANCH   1  30
ATOM     29  C   UNL     1      -3.383  -1.016   0.000  0.00  0.00    +0.000 C 
ATOM     30  C   UNL     1      -2.856  -1.650   0.000  0.00  0.00    +0.000 C 
ATOM     31  O   UNL     1      -3.142  -2.424   0.000  0.00  0.00    +0.000 OA
ENDBRANCH   1  30
BRANCH   7  32
ATOM     32  C   UNL     1       1.650  -2.849   0.000  0.00  0.00    +0.000 C 
ATOM     33  C   UNL     1       2.426  -3.129   0.000  0.00  0.00    +0.000 C 
ATOM     34  O   UNL     1       1.019  -3.380   0.000  0.00  0.00    +0.000 OA
ENDBRANCH   7  32
BRANCH  25  35
ATOM     35  C   UNL     1      -1.605   2.820   0.000  0.00  0.00    +0.000 C 
BRANCH  35  36
ATOM     36  C   UNL     1      -2.381   3.099   0.000  0.00  0.00    +0.000 C 
BRANCH  36  37
ATOM     37  C   UNL     1      -2.526   3.911   0.000  0.00  0.00    +0.000 C 
ATOM     38  O   UNL     1      -3.303   4.191   0.000  0.00  0.00    +0.000 OA
ATOM     39  O   UNL     1      -1.896   4.444   0.000  0.00  0.00    +0.000 OA
ENDBRANCH  36  37
ENDBRANCH  35  36
ENDBRANCH  25  35
BRANCH  26  40
ATOM     40  C   UNL     1       1.594   2.878   0.000  0.00  0.00    +0.000 C 
BRANCH  40  41
ATOM     41  C   UNL     1       2.362   3.177   0.000  0.00  0.00    +0.000 C 
BRANCH  41  42
ATOM     42  C   UNL     1       2.487   3.993   0.000  0.00  0.00    +0.000 C 
ATOM     43  O   UNL     1       1.844   4.509   0.000  0.00  0.00    +0.000 OA
ATOM     44  O   UNL     1       3.256   4.292   0.000  0.00  0.00    +0.000 OA
ENDBRANCH  41  42
ENDBRANCH  40  41
ENDBRANCH  26  40
TORSDOF 8
