REMARK  Name = 
REMARK  5 active torsions:
REMARK  status: ('A' for Active; 'I' for Inactive)
REMARK    1  A    between atoms: N_7  and  C_8
REMARK    2  A    between atoms: C_8  and  C_9
REMARK    3  A    between atoms: C_13  and  C_14
REMARK    4  A    between atoms: C_16  and  C_17
REMARK    5  A    between atoms: C_17  and  N_18
REMARK                            x       y       z     vdW  Elec       q    Type
REMARK                         _______ _______ _______ _____ _____    ______ ____
ROOT
ATOM      1  C   UNL     1      -1.774   0.120   0.000  0.00  0.00    +0.000 A 
ATOM      2  C   UNL     1      -1.060  -0.293   0.000  0.00  0.00    +0.000 A 
ATOM      3  C   UNL     1      -0.345   0.120   0.000  0.00  0.00    +0.000 A 
ATOM      4  C   UNL     1       0.439  -0.135   0.000  0.00  0.00    +0.000 C 
ATOM      5  C   UNL     1       0.694  -0.920   0.000  0.00  0.00    +0.000 C 
ATOM      6  C   UNL     1       0.924   0.532   0.000  0.00  0.00    +0.000 C 
ATOM      7  O   UNL     1       1.749   0.532   0.000  0.00  0.00    +0.000 OA
ATOM      8  N   UNL     1       0.439   1.200   0.000  0.00  0.00    +0.000 NA
ATOM      9  C   UNL     1      -0.345   0.945   0.000  0.00  0.00    +0.000 A 
ATOM     10  C   UNL     1      -1.060   1.357   0.000  0.00  0.00    +0.000 A 
ATOM     11  C   UNL     1      -1.774   0.945   0.000  0.00  0.00    +0.000 A 
ENDROOT
BRANCH   5  12
ATOM     12  C   UNL     1       1.501  -1.091   0.000  0.00  0.00    +0.000 A 
ATOM     13  C   UNL     1       2.114  -0.539   0.000  0.00  0.00    +0.000 A 
ATOM     14  C   UNL     1       2.829  -0.952   0.000  0.00  0.00    +0.000 A 
ATOM     15  C   UNL     1       2.657  -1.759   0.000  0.00  0.00    +0.000 A 
ATOM     16  N   UNL     1       1.837  -1.845   0.000  0.00  0.00    +0.000 NA
BRANCH  14  17
ATOM     17  C   UNL     1       3.583  -0.616   0.000  0.00  0.00    +0.000 C 
BRANCH  17  18
ATOM     18  N   UNL     1       3.669   0.204   0.000  0.00  0.00    +0.000 NA
ATOM     19  C   UNL     1       3.001   0.689   0.000  0.00  0.00    +0.000 C 
ATOM     20  C   UNL     1       3.088   1.510   0.000  0.00  0.00    +0.000 C 
ATOM     21  O   UNL     1       3.841   1.845   0.000  0.00  0.00    +0.000 OA
ATOM     22  C   UNL     1       4.509   1.360   0.000  0.00  0.00    +0.000 C 
ATOM     23  C   UNL     1       4.423   0.540   0.000  0.00  0.00    +0.000 C 
ENDBRANCH  17  18
ENDBRANCH  14  17
ENDBRANCH   5  12
BRANCH   1  24
ATOM     24  C   UNL     1      -2.489  -0.293   0.000  0.00  0.00    +0.000 C 
BRANCH  24  31
ATOM     25  O   UNL     1      -4.128  -1.023   0.000  0.00  0.00    +0.000 OA
ATOM     26  C   UNL     1      -3.957  -0.216   0.000  0.00  0.00    +0.000 C 
ATOM     27  C   UNL     1      -4.509   0.397   0.000  0.00  0.00    +0.000 C 
ATOM     28  S   UNL     1      -4.096   1.112   0.000  0.00  0.00    +0.000 S 
ATOM     29  C   UNL     1      -3.289   0.940   0.000  0.00  0.00    +0.000 C 
ATOM     30  O   UNL     1      -2.676   1.492   0.000  0.00  0.00    +0.000 OA
ATOM     31  N   UNL     1      -3.203   0.120   0.000  0.00  0.00    +0.000 N 
ENDBRANCH  24  31
ENDBRANCH   1  24
TORSDOF 5
