REMARK  Name = 
REMARK  5 active torsions:
REMARK  status: ('A' for Active; 'I' for Inactive)
REMARK    1  A    between atoms: C_4  and  O_20
REMARK    2  A    between atoms: C_5  and  N_9
REMARK    3  A    between atoms: N_12  and  C_13
REMARK    4  A    between atoms: O_20  and  C_21
REMARK    5  A    between atoms: C_21  and  C_22
REMARK                            x       y       z     vdW  Elec       q    Type
REMARK                         _______ _______ _______ _____ _____    ______ ____
ROOT
ATOM      1  C   UNL     1      -1.429   0.825   0.000  0.00  0.00    +0.000 C 
ATOM      2  C   UNL     1      -1.429   0.000   0.000  0.00  0.00    +0.000 A 
ATOM      3  C   UNL     1      -0.715  -0.412   0.000  0.00  0.00    +0.000 A 
ATOM      4  C   UNL     1      -0.715  -1.238   0.000  0.00  0.00    +0.000 A 
ATOM      5  C   UNL     1      -1.429  -1.650   0.000  0.00  0.00    +0.000 A 
ATOM      6  C   UNL     1      -2.143  -1.238   0.000  0.00  0.00    +0.000 A 
ATOM      7  C   UNL     1      -2.143  -0.412   0.000  0.00  0.00    +0.000 A 
ATOM      8 BR   UNL     1      -2.858   0.000   0.000  0.00  0.00    +0.000 Br
ENDROOT
BRANCH   5   9
ATOM      9  N   UNL     1      -1.429  -2.475   0.000  0.00  0.00    +0.000 NA
ATOM     10  C   UNL     1      -2.143  -2.888   0.000  0.00  0.00    +0.000 C 
ATOM     11  O   UNL     1      -2.858  -2.475   0.000  0.00  0.00    +0.000 OA
ATOM     12  N   UNL     1      -2.143  -3.712   0.000  0.00  0.00    +0.000 NA
BRANCH  12  13
ATOM     13  C   UNL     1      -2.858  -4.125   0.000  0.00  0.00    +0.000 A 
ATOM     14  C   UNL     1      -2.858  -4.950   0.000  0.00  0.00    +0.000 A 
ATOM     15  N   UNL     1      -3.572  -5.362   0.000  0.00  0.00    +0.000 NA
ATOM     16  C   UNL     1      -4.287  -4.950   0.000  0.00  0.00    +0.000 A 
ATOM     17  C   UNL     1      -4.287  -4.125   0.000  0.00  0.00    +0.000 A 
ATOM     18  N   UNL     1      -3.572  -3.712   0.000  0.00  0.00    +0.000 NA
ATOM     19  C   UNL     1      -5.001  -5.362   0.000  0.00  0.00    +0.000 C 
ENDBRANCH  12  13
ENDBRANCH   5   9
BRANCH   4  20
ATOM     20  O   UNL     1       0.000  -1.650   0.000  0.00  0.00    +0.000 OA
BRANCH  20  21
ATOM     21  C   UNL     1       0.715  -1.238   0.000  0.00  0.00    +0.000 C 
BRANCH  21  22
ATOM     22  C   UNL     1       0.715  -0.412   0.000  0.00  0.00    +0.000 C 
ATOM     23  C   UNL     1       0.000   0.000   0.000  0.00  0.00    +0.000 C 
ATOM     24  N   UNL     1       0.000   0.825   0.000  0.00  0.00    +0.000 NA
ATOM     25  C   UNL     1       0.715   1.238   0.000  0.00  0.00    +0.000 C 
ATOM     26  C   UNL     1       1.429   0.825   0.000  0.00  0.00    +0.000 C 
ATOM     27  O   UNL     1       1.429   0.000   0.000  0.00  0.00    +0.000 OA
ENDBRANCH  21  22
ENDBRANCH  20  21
ENDBRANCH   4  20
TORSDOF 5
