REMARK  Name = 
REMARK  5 active torsions:
REMARK  status: ('A' for Active; 'I' for Inactive)
REMARK    1  A    between atoms: C_4  and  C_5
REMARK    2  A    between atoms: C_9  and  C_10
REMARK    3  A    between atoms: C_10  and  O_12
REMARK    4  A    between atoms: O_12  and  C_13
REMARK    5  A    between atoms: C_13  and  C_14
REMARK                            x       y       z     vdW  Elec       q    Type
REMARK                         _______ _______ _______ _____ _____    ______ ____
ROOT
ATOM      1  O   UNL     1       0.715  -3.364   0.000  0.00  0.00    +0.000 OA
ENDROOT
BRANCH   1   2
ATOM      2  C   UNL     1       1.429  -3.776   0.000  0.00  0.00    +0.000 C 
ATOM      3  O   UNL     1       1.429  -4.601   0.000  0.00  0.00    +0.000 OA
BRANCH   2   8
ATOM      4  C   UNL     1       3.188  -2.119   0.000  0.00  0.00    +0.000 C 
ATOM      5  C   UNL     1       2.556  -2.649   0.000  0.00  0.00    +0.000 C 
ATOM      6  C   UNL     1       1.924  -2.119   0.000  0.00  0.00    +0.000 C 
ATOM      7  C   UNL     1       2.968  -3.364   0.000  0.00  0.00    +0.000 C 
ATOM      8  C   UNL     1       2.143  -3.364   0.000  0.00  0.00    +0.000 C 
BRANCH   7   9
ATOM      9  C   UNL     1       3.683  -3.776   0.000  0.00  0.00    +0.000 C 
ATOM     10  C   UNL     1       3.683  -4.601   0.000  0.00  0.00    +0.000 C 
ATOM     11 CL   UNL     1       4.397  -5.014   0.000  0.00  0.00    +0.000 Cl
ATOM     12 CL   UNL     1       2.968  -5.014   0.000  0.00  0.00    +0.000 Cl
ENDBRANCH   7   9
ENDBRANCH   2   8
ENDBRANCH   1   2
BRANCH   1  13
ATOM     13  C   UNL     1       0.000  -3.776   0.000  0.00  0.00    +0.000 C 
BRANCH  13  14
ATOM     14  C   UNL     1      -0.715  -3.364   0.000  0.00  0.00    +0.000 A 
ATOM     15  C   UNL     1      -1.429  -3.776   0.000  0.00  0.00    +0.000 A 
ATOM     16  F   UNL     1      -1.429  -4.601   0.000  0.00  0.00    +0.000 F 
ATOM     17  C   UNL     1      -2.143  -3.364   0.000  0.00  0.00    +0.000 A 
ATOM     18  F   UNL     1      -2.858  -3.776   0.000  0.00  0.00    +0.000 F 
ATOM     19  C   UNL     1      -2.143  -2.539   0.000  0.00  0.00    +0.000 A 
ATOM     20  C   UNL     1      -1.429  -2.126   0.000  0.00  0.00    +0.000 A 
ATOM     21  F   UNL     1      -1.429  -1.301   0.000  0.00  0.00    +0.000 F 
ATOM     22  C   UNL     1      -0.715  -2.539   0.000  0.00  0.00    +0.000 A 
ATOM     23  F   UNL     1       0.000  -2.126   0.000  0.00  0.00    +0.000 F 
ENDBRANCH  13  14
ENDBRANCH   1  13
TORSDOF 5
