REMARK  Name = 
REMARK  2 active torsions:
REMARK  status: ('A' for Active; 'I' for Inactive)
REMARK    1  A    between atoms: C_3  and  C_11
REMARK    2  A    between atoms: C_11  and  C_12
REMARK                            x       y       z     vdW  Elec       q    Type
REMARK                         _______ _______ _______ _____ _____    ______ ____
ROOT
ATOM      1  C   UNL     1      -0.171  -0.698   0.000  0.00  0.00    +0.000 C 
ATOM      2  C   UNL     1       0.654  -0.698   0.000  0.00  0.00    +0.000 A 
ATOM      3  C   UNL     1       1.139  -0.030   0.000  0.00  0.00    +0.000 A 
ATOM      4  C   UNL     1       1.923  -0.285   0.000  0.00  0.00    +0.000 A 
ATOM      5  C   UNL     1       2.638   0.127   0.000  0.00  0.00    +0.000 A 
ATOM      6  C   UNL     1       3.352  -0.285   0.000  0.00  0.00    +0.000 A 
ATOM      7  C   UNL     1       3.352  -1.110   0.000  0.00  0.00    +0.000 A 
ATOM      8  C   UNL     1       2.638  -1.523   0.000  0.00  0.00    +0.000 A 
ATOM      9  C   UNL     1       1.923  -1.110   0.000  0.00  0.00    +0.000 A 
ATOM     10  S   UNL     1       1.139  -1.365   0.000  0.00  0.00    +0.000 S 
ENDROOT
BRANCH   3  11
ATOM     11  C   UNL     1       0.884   0.754   0.000  0.00  0.00    +0.000 C 
BRANCH  11  12
ATOM     12  C   UNL     1       1.436   1.367   0.000  0.00  0.00    +0.000 C 
ATOM     13  N   UNL     1       1.264   2.174   0.000  0.00  0.00    +0.000 NA
ATOM     14  C   UNL     1       1.979   2.587   0.000  0.00  0.00    +0.000 C 
ATOM     15  C   UNL     1       2.592   2.035   0.000  0.00  0.00    +0.000 C 
ATOM     16  N   UNL     1       2.256   1.281   0.000  0.00  0.00    +0.000 NA
ENDBRANCH  11  12
ENDBRANCH   3  11
TORSDOF 2
