REMARK  Name = 
REMARK  2 active torsions:
REMARK  status: ('A' for Active; 'I' for Inactive)
REMARK    1  A    between atoms: C_2  and  C_3
REMARK    2  A    between atoms: C_2  and  C_6
REMARK                            x       y       z     vdW  Elec       q    Type
REMARK                         _______ _______ _______ _____ _____    ______ ____
ROOT
ATOM      1 SR   UNL     1      -1.786   0.825   0.000  0.00  0.00    +0.000 Sr
ENDROOT
TORSDOF 0
REMARK  Name = 
REMARK  2 active torsions:
REMARK  status: ('A' for Active; 'I' for Inactive)
REMARK    1  A    between atoms: C_2  and  C_3
REMARK    2  A    between atoms: C_2  and  C_6
REMARK                            x       y       z     vdW  Elec       q    Type
REMARK                         _______ _______ _______ _____ _____    ______ ____
ROOT
ATOM      1  C   UNL     1       0.357   0.412   0.000  0.00  0.00    +0.000 C 
ENDROOT
BRANCH   1   2
ATOM      2  C   UNL     1      -0.357   0.000   0.000  0.00  0.00    +0.000 C 
ATOM      3  O   UNL     1      -0.357  -0.825   0.000  0.00  0.00    +0.000 OA
ATOM      4  O   UNL     1      -1.072   0.412   0.000  0.00  0.00    +0.000 OA
ENDBRANCH   1   2
BRANCH   1   5
ATOM      5  C   UNL     1       1.072   0.000   0.000  0.00  0.00    +0.000 C 
ATOM      6  O   UNL     1       1.786   0.412   0.000  0.00  0.00    +0.000 OA
ATOM      7  O   UNL     1       1.072  -0.825   0.000  0.00  0.00    +0.000 OA
ENDBRANCH   1   5
TORSDOF 2
