REMARK  Name = 
REMARK  2 active torsions:
REMARK  status: ('A' for Active; 'I' for Inactive)
REMARK    1  A    between atoms: C_1  and  C_11
REMARK    2  A    between atoms: C_13  and  S_14
REMARK                            x       y       z     vdW  Elec       q    Type
REMARK                         _______ _______ _______ _____ _____    ______ ____
ROOT
ATOM      1  C   UNL     1       0.641  -0.213   0.000  0.00  0.00    +0.000 C 
ATOM      2  N   UNL     1       0.143   0.436   0.000  0.00  0.00    +0.000 NA
ATOM      3  C   UNL     1       0.628   1.103   0.000  0.00  0.00    +0.000 C 
ATOM      4  O   UNL     1       0.373   1.893   0.000  0.00  0.00    +0.000 OA
ATOM      5  C   UNL     1       1.420   0.852   0.000  0.00  0.00    +0.000 A 
ATOM      6  C   UNL     1       1.420   0.052   0.000  0.00  0.00    +0.000 A 
ATOM      7  C   UNL     1       2.146  -0.380   0.000  0.00  0.00    +0.000 A 
ATOM      8  C   UNL     1       2.858   0.052   0.000  0.00  0.00    +0.000 A 
ATOM      9  C   UNL     1       2.858   0.873   0.000  0.00  0.00    +0.000 A 
ATOM     10  C   UNL     1       2.146   1.270   0.000  0.00  0.00    +0.000 A 
ATOM     11  O   UNL     1       1.128  -0.852   0.000  0.00  0.00    +0.000 OA
ENDROOT
BRANCH   1  12
ATOM     12  C   UNL     1      -0.066  -0.629   0.000  0.00  0.00    +0.000 A 
ATOM     13  C   UNL     1      -0.795  -0.224   0.000  0.00  0.00    +0.000 A 
ATOM     14  C   UNL     1      -1.504  -0.642   0.000  0.00  0.00    +0.000 A 
ATOM     15  C   UNL     1      -1.504  -1.477   0.000  0.00  0.00    +0.000 A 
ATOM     16  C   UNL     1      -0.781  -1.885   0.000  0.00  0.00    +0.000 A 
ATOM     17  C   UNL     1      -0.066  -1.477   0.000  0.00  0.00    +0.000 A 
ATOM     18 CL   UNL     1      -2.217  -1.893   0.000  0.00  0.00    +0.000 Cl
BRANCH  14  19
ATOM     19  S   UNL     1      -2.230  -0.242   0.000  0.00  0.00    +0.000 S 
ATOM     20  O   UNL     1      -1.785   0.338   0.000  0.00  0.00    +0.000 OA
ATOM     21  O   UNL     1      -2.858   0.179   0.000  0.00  0.00    +0.000 OA
ATOM     22  N   UNL     1      -2.718  -0.833   0.000  0.00  0.00    +0.000 NA
ENDBRANCH  14  19
ENDBRANCH   1  12
TORSDOF 2
