REMARK  Name = 
REMARK  7 active torsions:
REMARK  status: ('A' for Active; 'I' for Inactive)
REMARK    1  A    between atoms: N_1  and  C_6
REMARK    2  A    between atoms: C_2  and  C_7
REMARK    3  A    between atoms: C_6  and  C_13
REMARK    4  A    between atoms: N_10  and  C_26
REMARK    5  A    between atoms: C_18  and  O_25
REMARK    6  A    between atoms: O_25  and  C_29
REMARK    7  A    between atoms: C_26  and  C_29
REMARK                            x       y       z     vdW  Elec       q    Type
REMARK                         _______ _______ _______ _____ _____    ______ ____
ROOT
ATOM      1  N   UNL     1       1.088  -1.052   0.000  0.00  0.00    +0.000 N 
ATOM      2  C   UNL     1       1.580  -1.718   0.000  0.00  0.00    +0.000 A 
ATOM      3  C   UNL     1       1.088  -2.384   0.000  0.00  0.00    +0.000 A 
ATOM      4  C   UNL     1       0.306  -2.133   0.000  0.00  0.00    +0.000 A 
ATOM      5  C   UNL     1       0.306  -1.308   0.000  0.00  0.00    +0.000 A 
ATOM      6  C   UNL     1      -0.403  -0.893   0.000  0.00  0.00    +0.000 A 
ATOM      7  C   UNL     1      -0.403  -2.543   0.000  0.00  0.00    +0.000 A 
ATOM      8  C   UNL     1      -1.117  -2.133   0.000  0.00  0.00    +0.000 A 
ATOM      9  C   UNL     1       1.349  -3.165   0.000  0.00  0.00    +0.000 C 
ATOM     10  C   UNL     1      -1.117  -1.308   0.000  0.00  0.00    +0.000 A 
ATOM     11  O   UNL     1      -1.836  -2.543   0.000  0.00  0.00    +0.000 OA
ENDROOT
BRANCH   2  12
ATOM     12  C   UNL     1       2.405  -1.718   0.000  0.00  0.00    +0.000 A 
ATOM     13  C   UNL     1       2.811  -1.004   0.000  0.00  0.00    +0.000 A 
ATOM     14  C   UNL     1       2.811  -2.427   0.000  0.00  0.00    +0.000 A 
ATOM     15  C   UNL     1       4.051  -1.718   0.000  0.00  0.00    +0.000 A 
ATOM     16  C   UNL     1       3.636  -2.427   0.000  0.00  0.00    +0.000 A 
ATOM     17  C   UNL     1       3.636  -1.004   0.000  0.00  0.00    +0.000 A 
ATOM     18  O   UNL     1       4.876  -1.718   0.000  0.00  0.00    +0.000 OA
ENDBRANCH   2  12
BRANCH   1  19
ATOM     19  C   UNL     1       1.349  -0.265   0.000  0.00  0.00    +0.000 C 
BRANCH  19  20
ATOM     20  C   UNL     1       0.798   0.343   0.000  0.00  0.00    +0.000 A 
ATOM     21  C   UNL     1      -0.306   1.568   0.000  0.00  0.00    +0.000 A 
ATOM     22  C   UNL     1      -0.012   0.178   0.000  0.00  0.00    +0.000 A 
ATOM     23  C   UNL     1       1.054   1.134   0.000  0.00  0.00    +0.000 A 
ATOM     24  C   UNL     1       0.494   1.742   0.000  0.00  0.00    +0.000 A 
ATOM     25  C   UNL     1      -0.562   0.786   0.000  0.00  0.00    +0.000 A 
BRANCH  21  26
ATOM     26  O   UNL     1      -0.866   2.191   0.000  0.00  0.00    +0.000 OA
BRANCH  26  27
ATOM     27  C   UNL     1      -1.667   2.031   0.000  0.00  0.00    +0.000 C 
BRANCH  27  28
ATOM     28  C   UNL     1      -2.212   2.644   0.000  0.00  0.00    +0.000 C 
BRANCH  28  29
ATOM     29  N   UNL     1      -3.009   2.485   0.000  0.00  0.00    +0.000 NA
ATOM     30  C   UNL     1      -3.520   3.136   0.000  0.00  0.00    +0.000 C 
ATOM     31  C   UNL     1      -3.216   1.674   0.000  0.00  0.00    +0.000 C 
ATOM     32  C   UNL     1      -3.978   1.351   0.000  0.00  0.00    +0.000 C 
ATOM     33  C   UNL     1      -4.340   3.165   0.000  0.00  0.00    +0.000 C 
ATOM     34  C   UNL     1      -4.876   2.538   0.000  0.00  0.00    +0.000 C 
ATOM     35  C   UNL     1      -4.717   1.727   0.000  0.00  0.00    +0.000 C 
ENDBRANCH  28  29
ENDBRANCH  27  28
ENDBRANCH  26  27
ENDBRANCH  21  26
ENDBRANCH  19  20
ENDBRANCH   1  19
TORSDOF 7
