REMARK  Name = 
REMARK  16 active torsions:
REMARK  status: ('A' for Active; 'I' for Inactive)
REMARK    1  A    between atoms: C_3  and  C_4
REMARK    2  A    between atoms: C_4  and  C_5
REMARK    3  A    between atoms: C_5  and  C_6
REMARK    4  A    between atoms: C_5  and  O_38
REMARK    5  A    between atoms: C_6  and  C_7
REMARK    6  A    between atoms: C_8  and  N_9
REMARK    7  A    between atoms: C_10  and  C_12
REMARK    8  A    between atoms: C_12  and  C_13
REMARK    9  A    between atoms: C_12  and  N_17
REMARK   10  A    between atoms: C_18  and  C_20
REMARK   11  A    between atoms: C_21  and  C_22
REMARK   12  A    between atoms: C_23  and  C_24
REMARK   13  A    between atoms: C_25  and  C_26
REMARK   14  A    between atoms: C_26  and  C_28
REMARK   15  A    between atoms: C_31  and  O_35
REMARK   16  A    between atoms: O_38  and  C_39
REMARK                            x       y       z     vdW  Elec       q    Type
REMARK                         _______ _______ _______ _____ _____    ______ ____
ROOT
ATOM      1  N   UNL     1      -0.715  -7.013   0.000  0.00  0.00    +0.000 NA
ATOM      2  C   UNL     1      -1.429  -6.600   0.000  0.00  0.00    +0.000 C 
ATOM      3  O   UNL     1      -1.429  -5.775   0.000  0.00  0.00    +0.000 OA
ENDROOT
BRANCH   2   4
ATOM      4  C   UNL     1      -2.143  -7.013   0.000  0.00  0.00    +0.000 C 
ATOM      5  C   UNL     1      -2.858  -6.600   0.000  0.00  0.00    +0.000 C 
BRANCH   5   6
ATOM      6  C   UNL     1      -2.858  -5.775   0.000  0.00  0.00    +0.000 C 
ATOM      7  C   UNL     1      -3.572  -5.362   0.000  0.00  0.00    +0.000 C 
BRANCH   7   8
ATOM      8  C   UNL     1      -4.287  -5.775   0.000  0.00  0.00    +0.000 C 
ATOM      9  C   UNL     1      -5.001  -5.362   0.000  0.00  0.00    +0.000 C 
ATOM     10  C   UNL     1      -4.287  -6.600   0.000  0.00  0.00    +0.000 C 
BRANCH   9  11
ATOM     11  C   UNL     1      -5.716  -5.775   0.000  0.00  0.00    +0.000 C 
ATOM     12  C   UNL     1      -5.716  -6.600   0.000  0.00  0.00    +0.000 C 
BRANCH  11  13
ATOM     13  C   UNL     1      -6.430  -5.362   0.000  0.00  0.00    +0.000 C 
ATOM     14  C   UNL     1      -7.145  -5.775   0.000  0.00  0.00    +0.000 C 
ATOM     15  C   UNL     1      -7.859  -5.362   0.000  0.00  0.00    +0.000 C 
ATOM     16  C   UNL     1      -7.859  -4.537   0.000  0.00  0.00    +0.000 C 
ATOM     17  C   UNL     1      -7.145  -4.125   0.000  0.00  0.00    +0.000 C 
ATOM     18  O   UNL     1      -7.145  -3.300   0.000  0.00  0.00    +0.000 OA
ATOM     19  O   UNL     1      -6.430  -4.537   0.000  0.00  0.00    +0.000 OA
BRANCH  16  20
ATOM     20  O   UNL     1      -8.574  -4.125   0.000  0.00  0.00    +0.000 OA
ATOM     21  C   UNL     1      -9.288  -4.537   0.000  0.00  0.00    +0.000 C 
ENDBRANCH  16  20
ENDBRANCH  11  13
ENDBRANCH   9  11
ENDBRANCH   7   8
ENDBRANCH   5   6
ENDBRANCH   2   4
BRANCH   1  22
ATOM     22  C   UNL     1       0.000  -6.600   0.000  0.00  0.00    +0.000 C 
BRANCH  22  23
ATOM     23  C   UNL     1       0.000  -5.775   0.000  0.00  0.00    +0.000 C 
ATOM     24  C   UNL     1       0.825  -5.775   0.000  0.00  0.00    +0.000 C 
ATOM     25  C   UNL     1      -0.825  -5.775   0.000  0.00  0.00    +0.000 C 
ATOM     26  C   UNL     1       0.000  -4.950   0.000  0.00  0.00    +0.000 C 
ENDBRANCH  22  23
BRANCH  22  28
ATOM     27  N   UNL     1       1.429  -6.600   0.000  0.00  0.00    +0.000 NA
ATOM     28  C   UNL     1       0.715  -7.013   0.000  0.00  0.00    +0.000 C 
ATOM     29  O   UNL     1       0.715  -7.838   0.000  0.00  0.00    +0.000 OA
BRANCH  27  31
ATOM     30  C   UNL     1       2.143  -7.838   0.000  0.00  0.00    +0.000 C 
ATOM     31  C   UNL     1       2.143  -7.013   0.000  0.00  0.00    +0.000 C 
BRANCH  30  32
ATOM     32  C   UNL     1       1.429  -8.250   0.000  0.00  0.00    +0.000 C 
BRANCH  32  33
ATOM     33  C   UNL     1       1.429  -9.075   0.000  0.00  0.00    +0.000 C 
BRANCH  33  34
ATOM     34  C   UNL     1       0.715  -9.488   0.000  0.00  0.00    +0.000 C 
BRANCH  34  37
ATOM     35  C   UNL     1      -0.715 -10.312   0.000  0.00  0.00    +0.000 C 
ATOM     36  C   UNL     1       0.000 -10.725   0.000  0.00  0.00    +0.000 C 
ATOM     37  C   UNL     1       0.715 -10.312   0.000  0.00  0.00    +0.000 C 
ENDBRANCH  34  37
ENDBRANCH  33  34
BRANCH  33  38
ATOM     38  O   UNL     1       2.143  -9.488   0.000  0.00  0.00    +0.000 OA
BRANCH  38  39
ATOM     39  C   UNL     1       2.858  -9.075   0.000  0.00  0.00    +0.000 C 
ATOM     40  O   UNL     1       2.858  -8.250   0.000  0.00  0.00    +0.000 OA
ATOM     41  N   UNL     1       3.572  -9.488   0.000  0.00  0.00    +0.000 NA
ENDBRANCH  38  39
ENDBRANCH  33  38
ENDBRANCH  32  33
ENDBRANCH  30  32
ENDBRANCH  27  31
ENDBRANCH  22  28
ENDBRANCH   1  22
TORSDOF 16
