REMARK  Name = 
REMARK  3 active torsions:
REMARK  status: ('A' for Active; 'I' for Inactive)
REMARK    1  A    between atoms: C_6  and  N_11
REMARK    2  A    between atoms: C_10  and  S_20
REMARK    3  A    between atoms: N_11  and  C_12
REMARK                            x       y       z     vdW  Elec       q    Type
REMARK                         _______ _______ _______ _____ _____    ______ ____
ROOT
ATOM      1  C   UNL     1       0.715  -1.650   0.000  0.00  0.00    +0.000 A 
ATOM      2  C   UNL     1       1.429  -2.062   0.000  0.00  0.00    +0.000 A 
ATOM      3  C   UNL     1      -0.714  -0.825   0.000  0.00  0.00    +0.000 A 
ATOM      4  C   UNL     1      -0.714  -1.650   0.000  0.00  0.00    +0.000 A 
ATOM      5  C   UNL     1       0.000  -2.062   0.000  0.00  0.00    +0.000 A 
ATOM      6  C   UNL     1       0.000  -0.412   0.000  0.00  0.00    +0.000 A 
ATOM      7  C   UNL     1       0.715  -0.825   0.000  0.00  0.00    +0.000 A 
ATOM      8  C   UNL     1       2.143  -1.650   0.000  0.00  0.00    +0.000 A 
ATOM      9  C   UNL     1       2.143  -0.825   0.000  0.00  0.00    +0.000 A 
ATOM     10  C   UNL     1       1.429  -0.412   0.000  0.00  0.00    +0.000 A 
ENDROOT
BRANCH  10  13
ATOM     11  O   UNL     1       1.429   1.238   0.000  0.00  0.00    +0.000 OA
ATOM     12  O   UNL     1       0.714   0.825   0.000  0.00  0.00    +0.000 OA
ATOM     13  S   UNL     1       1.429   0.413   0.000  0.00  0.00    +0.000 S 
ATOM     14  O   UNL     1       2.143   0.825   0.000  0.00  0.00    +0.000 OA
ENDBRANCH  10  13
BRANCH   6  15
ATOM     15  N   UNL     1       0.000   0.413   0.000  0.00  0.00    +0.000 NA
BRANCH  15  16
ATOM     16  C   UNL     1      -0.715   0.825   0.000  0.00  0.00    +0.000 A 
ATOM     17  C   UNL     1      -1.429   2.062   0.000  0.00  0.00    +0.000 A 
ATOM     18  C   UNL     1      -2.143   1.650   0.000  0.00  0.00    +0.000 A 
ATOM     19  C   UNL     1      -2.143   0.825   0.000  0.00  0.00    +0.000 A 
ATOM     20  C   UNL     1      -1.429   0.412   0.000  0.00  0.00    +0.000 A 
ATOM     21  C   UNL     1      -0.715   1.650   0.000  0.00  0.00    +0.000 A 
ENDBRANCH  15  16
ENDBRANCH   6  15
TORSDOF 3
