REMARK  Name = 
REMARK  0 active torsions:
REMARK  status: ('A' for Active; 'I' for Inactive)
REMARK                            x       y       z     vdW  Elec       q    Type
REMARK                         _______ _______ _______ _____ _____    ______ ____
ROOT
ATOM      1  C   UNL     1      -0.641  -0.111   0.000  0.00  0.00    +0.000 C 
ATOM      2  C   UNL     1      -0.641  -0.936   0.000  0.00  0.00    +0.000 C 
ATOM      3  C   UNL     1      -1.354   0.312   0.000  0.00  0.00    +0.000 C 
ATOM      4  C   UNL     1      -1.354  -1.343   0.000  0.00  0.00    +0.000 C 
ATOM      5  C   UNL     1      -2.062  -0.111   0.000  0.00  0.00    +0.000 C 
ATOM      6  C   UNL     1      -2.062  -0.936   0.000  0.00  0.00    +0.000 C 
ATOM      7  C   UNL     1       0.084   0.312   0.000  0.00  0.00    +0.000 C 
ATOM      8  C   UNL     1       0.791  -0.111   0.000  0.00  0.00    +0.000 C 
ATOM      9  C   UNL     1       0.084  -1.343   0.000  0.00  0.00    +0.000 C 
ATOM     10  C   UNL     1       0.791  -0.936   0.000  0.00  0.00    +0.000 C 
ATOM     11  C   UNL     1       0.084   1.137   0.000  0.00  0.00    +0.000 C 
ATOM     12  C   UNL     1       0.791   1.544   0.000  0.00  0.00    +0.000 C 
ATOM     13  C   UNL     1       1.516   0.312   0.000  0.00  0.00    +0.000 C 
ATOM     14  C   UNL     1       1.516   1.137   0.000  0.00  0.00    +0.000 C 
ATOM     15  C   UNL     1       2.296   0.056   0.000  0.00  0.00    +0.000 C 
ATOM     16  C   UNL     1       2.787   0.719   0.000  0.00  0.00    +0.000 C 
ATOM     17  C   UNL     1       2.296   1.393   0.000  0.00  0.00    +0.000 C 
ATOM     18  O   UNL     1      -2.787  -1.343   0.000  0.00  0.00    +0.000 OA
ATOM     19  O   UNL     1      -1.354  -2.174   0.000  0.00  0.00    +0.000 OA
ATOM     20  O   UNL     1       2.553   2.174   0.000  0.00  0.00    +0.000 OA
ATOM     21  C   UNL     1       1.516   1.968   0.000  0.00  0.00    +0.000 C 
ENDROOT
TORSDOF 0
