REMARK  Name = 
REMARK  4 active torsions:
REMARK  status: ('A' for Active; 'I' for Inactive)
REMARK    1  A    between atoms: C_6  and  C_8
REMARK    2  A    between atoms: N_16  and  C_17
REMARK    3  A    between atoms: C_20  and  N_23
REMARK    4  A    between atoms: N_26  and  C_29
REMARK                            x       y       z     vdW  Elec       q    Type
REMARK                         _______ _______ _______ _____ _____    ______ ____
ROOT
ATOM      1  C   UNL     1       2.070   1.110   0.000  0.00  0.00    +0.000 A 
ATOM      2  C   UNL     1       1.356   0.698   0.000  0.00  0.00    +0.000 A 
ATOM      3  N   UNL     1       0.641   1.110   0.000  0.00  0.00    +0.000 N 
ATOM      4  C   UNL     1      -0.143   0.856   0.000  0.00  0.00    +0.000 A 
ATOM      5  C   UNL     1      -0.628   1.523   0.000  0.00  0.00    +0.000 A 
ATOM      6  N   UNL     1      -0.143   2.190   0.000  0.00  0.00    +0.000 NA
ATOM      7  C   UNL     1       0.641   1.935   0.000  0.00  0.00    +0.000 A 
ATOM      8  C   UNL     1       1.356   2.348   0.000  0.00  0.00    +0.000 A 
ATOM      9  N   UNL     1       1.356   3.173   0.000  0.00  0.00    +0.000 NA
ATOM     10  N   UNL     1       2.070   1.935   0.000  0.00  0.00    +0.000 NA
ENDROOT
BRANCH   1  16
ATOM     11  N   UNL     1       4.928   1.110   0.000  0.00  0.00    +0.000 NA
ATOM     12  C   UNL     1       4.213   0.698   0.000  0.00  0.00    +0.000 A 
ATOM     13  C   UNL     1       4.213  -0.127   0.000  0.00  0.00    +0.000 A 
ATOM     14  N   UNL     1       3.499  -0.540   0.000  0.00  0.00    +0.000 NA
ATOM     15  C   UNL     1       2.784  -0.127   0.000  0.00  0.00    +0.000 A 
ATOM     16  C   UNL     1       2.784   0.698   0.000  0.00  0.00    +0.000 A 
ATOM     17  N   UNL     1       3.499   1.110   0.000  0.00  0.00    +0.000 NA
ENDBRANCH   1  16
BRANCH   9  18
ATOM     18  C   UNL     1       2.070   3.585   0.000  0.00  0.00    +0.000 A 
ATOM     19  C   UNL     1       2.070   4.410   0.000  0.00  0.00    +0.000 A 
ATOM     20  C   UNL     1       2.784   4.823   0.000  0.00  0.00    +0.000 A 
ATOM     21  C   UNL     1       3.499   4.410   0.000  0.00  0.00    +0.000 A 
ATOM     22  C   UNL     1       3.499   3.585   0.000  0.00  0.00    +0.000 A 
ATOM     23  C   UNL     1       2.784   3.173   0.000  0.00  0.00    +0.000 A 
BRANCH  21  24
ATOM     24  N   UNL     1       4.213   4.823   0.000  0.00  0.00    +0.000 N 
ATOM     25  C   UNL     1       4.213   5.648   0.000  0.00  0.00    +0.000 C 
ATOM     26  C   UNL     1       4.928   6.060   0.000  0.00  0.00    +0.000 C 
ATOM     27  N   UNL     1       5.642   5.648   0.000  0.00  0.00    +0.000 NA
ATOM     28  C   UNL     1       5.642   4.823   0.000  0.00  0.00    +0.000 C 
ATOM     29  C   UNL     1       4.928   4.410   0.000  0.00  0.00    +0.000 C 
BRANCH  27  30
ATOM     30  C   UNL     1       6.357   6.060   0.000  0.00  0.00    +0.000 C 
ATOM     31  C   UNL     1       6.570   6.857   0.000  0.00  0.00    +0.000 C 
ATOM     32  O   UNL     1       7.367   6.644   0.000  0.00  0.00    +0.000 OA
ATOM     33  C   UNL     1       7.154   5.847   0.000  0.00  0.00    +0.000 C 
ENDBRANCH  27  30
ENDBRANCH  21  24
ENDBRANCH   9  18
TORSDOF 4
