REMARK  Name = 
REMARK  1 active torsions:
REMARK  status: ('A' for Active; 'I' for Inactive)
REMARK    1  A    between atoms: C_13  and  O_20
REMARK                            x       y       z     vdW  Elec       q    Type
REMARK                         _______ _______ _______ _____ _____    ______ ____
ROOT
ATOM      1  C   UNL     1       0.855  -0.664   0.000  0.00  0.00    +0.000 C 
ATOM      2  C   UNL     1       0.033  -0.664   0.000  0.00  0.00    +0.000 A 
ATOM      3  C   UNL     1      -0.376  -1.362   0.000  0.00  0.00    +0.000 A 
ATOM      4  C   UNL     1       1.264  -1.384   0.000  0.00  0.00    +0.000 C 
ATOM      5  C   UNL     1       1.280   0.046   0.000  0.00  0.00    +0.000 C 
ATOM      6  O   UNL     1       0.439  -1.854   0.000  0.00  0.00    +0.000 OA
ATOM      7  C   UNL     1       0.855   0.740   0.000  0.00  0.00    +0.000 C 
ATOM      8  C   UNL     1      -0.376   0.049   0.000  0.00  0.00    +0.000 A 
ATOM      9  C   UNL     1       0.033   0.769   0.000  0.00  0.00    +0.000 C 
ATOM     10  N   UNL     1       1.251   1.384   0.000  0.00  0.00    +0.000 NA
ATOM     11  C   UNL     1       1.441  -0.664   0.000  0.00  0.00    +0.000 C 
ATOM     12  C   UNL     1       2.107   0.049   0.000  0.00  0.00    +0.000 C 
ATOM     13  C   UNL     1      -1.194  -1.362   0.000  0.00  0.00    +0.000 A 
ATOM     14  C   UNL     1       2.098  -1.391   0.000  0.00  0.00    +0.000 C 
ATOM     15  C   UNL     1       2.399   1.384   0.000  0.00  0.00    +0.000 C 
ATOM     16  C   UNL     1      -1.188   0.049   0.000  0.00  0.00    +0.000 A 
ATOM     17  C   UNL     1       2.516  -0.674   0.000  0.00  0.00    +0.000 C 
ATOM     18  C   UNL     1      -1.597  -0.652   0.000  0.00  0.00    +0.000 A 
ATOM     19  O   UNL     1       2.542  -2.174   0.000  0.00  0.00    +0.000 OA
ATOM     20  C   UNL     1       1.248   2.282   0.000  0.00  0.00    +0.000 C 
ENDROOT
BRANCH  13  21
ATOM     21  O   UNL     1      -1.644  -2.139   0.000  0.00  0.00    +0.000 OA
ATOM     22  C   UNL     1      -2.542  -2.139   0.000  0.00  0.00    +0.000 C 
ENDBRANCH  13  21
TORSDOF 1
