REMARK  Name = 
REMARK  0 active torsions:
REMARK  status: ('A' for Active; 'I' for Inactive)
REMARK                            x       y       z     vdW  Elec       q    Type
REMARK                         _______ _______ _______ _____ _____    ______ ____
ROOT
ATOM      1  C   UNL     1      -1.783   0.414   0.000  0.00  0.00    +0.000 A 
ATOM      2  C   UNL     1      -1.783  -0.413   0.000  0.00  0.00    +0.000 A 
ATOM      3  C   UNL     1      -1.071  -0.824   0.000  0.00  0.00    +0.000 A 
ATOM      4  C   UNL     1      -1.071   0.830   0.000  0.00  0.00    +0.000 A 
ATOM      5  C   UNL     1      -0.353   0.414   0.000  0.00  0.00    +0.000 A 
ATOM      6  C   UNL     1      -0.357  -0.413   0.000  0.00  0.00    +0.000 A 
ATOM      7  N   UNL     1       0.354  -0.827   0.000  0.00  0.00    +0.000 N 
ATOM      8  C   UNL     1       1.073  -0.419   0.000  0.00  0.00    +0.000 A 
ATOM      9  N   UNL     1       1.076   0.408   0.000  0.00  0.00    +0.000 NA
ATOM     10  N   UNL     1       0.361   0.827   0.000  0.00  0.00    +0.000 N 
ATOM     11  N   UNL     1       1.783  -0.834   0.000  0.00  0.00    +0.000 NA
ATOM     12  O   UNL     1       0.363   1.650   0.000  0.00  0.00    +0.000 OA
ATOM     13  O   UNL     1       0.349  -1.650   0.000  0.00  0.00    +0.000 OA
ENDROOT
TORSDOF 0
