REMARK  Name = 
REMARK  8 active torsions:
REMARK  status: ('A' for Active; 'I' for Inactive)
REMARK    1  A    between atoms: C_2  and  C_3
REMARK    2  A    between atoms: C_3  and  C_7
REMARK    3  A    between atoms: C_7  and  O_15
REMARK    4  A    between atoms: C_8  and  C_9
REMARK    5  A    between atoms: C_8  and  O_15
REMARK    6  A    between atoms: C_9  and  O_16
REMARK    7  A    between atoms: C_11  and  C_12
REMARK    8  A    between atoms: C_12  and  O_16
REMARK                            x       y       z     vdW  Elec       q    Type
REMARK                         _______ _______ _______ _____ _____    ______ ____
ROOT
ATOM      1  C   UNL     1      10.717  -0.412   0.000  0.00  0.00    +0.000 C 
ATOM      2  O   UNL     1      10.717   0.412   0.000  0.00  0.00    +0.000 OA
ENDROOT
BRANCH   1   7
ATOM      3  C   UNL     1      12.861  -0.825   0.000  0.00  0.00    +0.000 A 
ATOM      4  C   UNL     1      12.146  -0.412   0.000  0.00  0.00    +0.000 A 
ATOM      5  C   UNL     1      12.861  -1.650   0.000  0.00  0.00    +0.000 A 
ATOM      6  C   UNL     1      11.431  -1.650   0.000  0.00  0.00    +0.000 A 
ATOM      7  C   UNL     1      11.431  -0.825   0.000  0.00  0.00    +0.000 A 
ATOM      8  N   UNL     1      12.146  -2.062   0.000  0.00  0.00    +0.000 NA
ENDBRANCH   1   7
BRANCH   1   9
ATOM      9  O   UNL     1      10.003  -0.825   0.000  0.00  0.00    +0.000 OA
BRANCH   9  10
ATOM     10  C   UNL     1       9.288  -0.412   0.000  0.00  0.00    +0.000 C 
BRANCH  10  11
ATOM     11  C   UNL     1       8.574  -0.825   0.000  0.00  0.00    +0.000 C 
BRANCH  11  12
ATOM     12  O   UNL     1       7.859  -0.412   0.000  0.00  0.00    +0.000 OA
BRANCH  12  13
ATOM     13  C   UNL     1       7.145  -0.825   0.000  0.00  0.00    +0.000 C 
BRANCH  13  14
ATOM     14  C   UNL     1       6.430  -0.412   0.000  0.00  0.00    +0.000 C 
BRANCH  14  16
ATOM     15  C   UNL     1       5.001  -0.412   0.000  0.00  0.00    +0.000 C 
ATOM     16  C   UNL     1       5.716  -0.825   0.000  0.00  0.00    +0.000 C 
ENDBRANCH  14  16
ENDBRANCH  13  14
ENDBRANCH  12  13
ENDBRANCH  11  12
ENDBRANCH  10  11
ENDBRANCH   9  10
ENDBRANCH   1   9
TORSDOF 8
