REMARK  Name = 
REMARK  15 active torsions:
REMARK  status: ('A' for Active; 'I' for Inactive)
REMARK    1  A    between atoms: C_10  and  O_52
REMARK    2  A    between atoms: C_12  and  O_41
REMARK    3  A    between atoms: C_18  and  O_19
REMARK    4  A    between atoms: O_19  and  C_20
REMARK    5  A    between atoms: C_20  and  C_22
REMARK    6  A    between atoms: C_22  and  C_23
REMARK    7  A    between atoms: C_23  and  C_24
REMARK    8  A    between atoms: C_23  and  N_31
REMARK    9  A    between atoms: C_32  and  O_34
REMARK   10  A    between atoms: O_34  and  C_35
REMARK   11  A    between atoms: O_41  and  C_42
REMARK   12  A    between atoms: C_42  and  C_44
REMARK   13  A    between atoms: O_52  and  C_53
REMARK   14  A    between atoms: C_58  and  C_60
REMARK   15  A    between atoms: C_60  and  N_61
REMARK                            x       y       z     vdW  Elec       q    Type
REMARK                         _______ _______ _______ _____ _____    ______ ____
ROOT
ATOM      1  C   UNL     1      -1.000  -0.158   0.000  0.00  0.00    +0.000 C 
ATOM      2  C   UNL     1      -0.290   0.262   0.000  0.00  0.00    +0.000 C 
ATOM      3  C   UNL     1       0.458  -0.206   0.000  0.00  0.00    +0.000 C 
ATOM      4  C   UNL     1       1.020  -0.880   0.000  0.00  0.00    +0.000 C 
ATOM      5  C   UNL     1       1.831  -1.030   0.000  0.00  0.00    +0.000 C 
ATOM      6  C   UNL     1       2.537  -0.537   0.000  0.00  0.00    +0.000 C 
ATOM      7  C   UNL     1       3.201  -1.028   0.000  0.00  0.00    +0.000 C 
ATOM      8  C   UNL     1       3.957  -0.698   0.000  0.00  0.00    +0.000 C 
ATOM      9  C   UNL     1       4.050   0.122   0.000  0.00  0.00    +0.000 C 
ATOM     10  C   UNL     1       3.386   0.612   0.000  0.00  0.00    +0.000 C 
ATOM     11  C   UNL     1       2.630   0.282   0.000  0.00  0.00    +0.000 C 
ATOM     12  C   UNL     1       2.071   0.947   0.000  0.00  0.00    +0.000 C 
ATOM     13  C   UNL     1       1.206   1.094   0.000  0.00  0.00    +0.000 C 
ATOM     14  C   UNL     1       0.876   0.418   0.000  0.00  0.00    +0.000 C 
ATOM     15  C   UNL     1       1.694   0.303   0.000  0.00  0.00    +0.000 C 
ATOM     16  C   UNL     1       1.386  -0.231   0.000  0.00  0.00    +0.000 C 
ATOM     17  C   UNL     1       0.425   1.506   0.000  0.00  0.00    +0.000 C 
ATOM     18  C   UNL     1      -0.339   1.117   0.000  0.00  0.00    +0.000 C 
ATOM     19  O   UNL     1       1.470   1.875   0.000  0.00  0.00    +0.000 OA
ATOM     20  C   UNL     1       3.877   1.275   0.000  0.00  0.00    +0.000 C 
ATOM     21  O   UNL     1       4.540   0.785   0.000  0.00  0.00    +0.000 OA
ATOM     22  C   UNL     1       2.526  -1.362   0.000  0.00  0.00    +0.000 C 
ATOM     23  O   UNL     1       1.940  -1.847   0.000  0.00  0.00    +0.000 OA
ATOM     24  C   UNL     1       1.195  -2.203   0.000  0.00  0.00    +0.000 C 
ATOM     25  O   UNL     1       0.627  -1.605   0.000  0.00  0.00    +0.000 OA
ENDROOT
BRANCH  18  26
ATOM     26  O   UNL     1      -1.054   1.529   0.000  0.00  0.00    +0.000 OA
BRANCH  26  27
ATOM     27  C   UNL     1      -1.768   1.115   0.000  0.00  0.00    +0.000 C 
ATOM     28  O   UNL     1      -1.766   0.290   0.000  0.00  0.00    +0.000 OA
BRANCH  27  29
ATOM     29  C   UNL     1      -2.483   1.527   0.000  0.00  0.00    +0.000 C 
ATOM     30  O   UNL     1      -2.484   2.352   0.000  0.00  0.00    +0.000 OA
BRANCH  29  31
ATOM     31  C   UNL     1      -3.196   1.113   0.000  0.00  0.00    +0.000 C 
BRANCH  31  32
ATOM     32  C   UNL     1      -3.195   0.288   0.000  0.00  0.00    +0.000 A 
ATOM     33  C   UNL     1      -3.909  -0.125   0.000  0.00  0.00    +0.000 A 
ATOM     34  C   UNL     1      -3.908  -0.950   0.000  0.00  0.00    +0.000 A 
ATOM     35  C   UNL     1      -3.193  -1.362   0.000  0.00  0.00    +0.000 A 
ATOM     36  C   UNL     1      -2.479  -0.948   0.000  0.00  0.00    +0.000 A 
ATOM     37  N   UNL     1      -2.480  -0.123   0.000  0.00  0.00    +0.000 NA
ATOM     38  F   UNL     1      -4.624   0.286   0.000  0.00  0.00    +0.000 F 
ENDBRANCH  31  32
BRANCH  31  39
ATOM     39  N   UNL     1      -3.912   1.525   0.000  0.00  0.00    +0.000 NA
ATOM     40  C   UNL     1      -3.913   2.350   0.000  0.00  0.00    +0.000 C 
ATOM     41  O   UNL     1      -3.199   2.763   0.000  0.00  0.00    +0.000 OA
BRANCH  40  42
ATOM     42  O   UNL     1      -4.628   2.761   0.000  0.00  0.00    +0.000 OA
BRANCH  42  43
ATOM     43  C   UNL     1      -4.629   3.586   0.000  0.00  0.00    +0.000 C 
ATOM     44  C   UNL     1      -4.630   4.411   0.000  0.00  0.00    +0.000 C 
ATOM     45  C   UNL     1      -5.454   3.585   0.000  0.00  0.00    +0.000 C 
ATOM     46  C   UNL     1      -3.804   3.587   0.000  0.00  0.00    +0.000 C 
ENDBRANCH  42  43
ENDBRANCH  40  42
ENDBRANCH  31  39
ENDBRANCH  29  31
ENDBRANCH  27  29
ENDBRANCH  26  27
ENDBRANCH  18  26
BRANCH  10  47
ATOM     47  O   UNL     1       2.872   1.257   0.000  0.00  0.00    +0.000 OA
BRANCH  47  48
ATOM     48  C   UNL     1       3.174   2.025   0.000  0.00  0.00    +0.000 C 
ATOM     49  O   UNL     1       2.660   2.670   0.000  0.00  0.00    +0.000 OA
ATOM     50  C   UNL     1       3.990   2.147   0.000  0.00  0.00    +0.000 C 
ENDBRANCH  47  48
ENDBRANCH  10  47
BRANCH  12  51
ATOM     51  O   UNL     1       2.481   1.663   0.000  0.00  0.00    +0.000 OA
BRANCH  51  52
ATOM     52  C   UNL     1       2.065   2.376   0.000  0.00  0.00    +0.000 C 
ATOM     53  O   UNL     1       1.240   2.373   0.000  0.00  0.00    +0.000 OA
BRANCH  52  54
ATOM     54  C   UNL     1       2.475   3.092   0.000  0.00  0.00    +0.000 A 
ATOM     55  C   UNL     1       2.059   3.805   0.000  0.00  0.00    +0.000 A 
ATOM     56  C   UNL     1       2.469   4.521   0.000  0.00  0.00    +0.000 A 
ATOM     57  C   UNL     1       3.294   4.524   0.000  0.00  0.00    +0.000 A 
ATOM     58  C   UNL     1       3.709   3.811   0.000  0.00  0.00    +0.000 A 
ATOM     59  C   UNL     1       3.300   3.095   0.000  0.00  0.00    +0.000 A 
ENDBRANCH  52  54
ENDBRANCH  51  52
ENDBRANCH  12  51
BRANCH  24  60
ATOM     60  C   UNL     1       1.046  -3.015   0.000  0.00  0.00    +0.000 C 
BRANCH  60  61
ATOM     61  N   UNL     1       1.674  -3.550   0.000  0.00  0.00    +0.000 NA
ATOM     62  C   UNL     1       2.451  -3.274   0.000  0.00  0.00    +0.000 C 
ATOM     63  C   UNL     1       1.524  -4.361   0.000  0.00  0.00    +0.000 C 
ENDBRANCH  60  61
ENDBRANCH  24  60
TORSDOF 15
