REMARK  Name = 
REMARK  3 active torsions:
REMARK  status: ('A' for Active; 'I' for Inactive)
REMARK    1  A    between atoms: C_15  and  C_20
REMARK    2  A    between atoms: C_15  and  O_23
REMARK    3  A    between atoms: O_23  and  C_32
REMARK                            x       y       z     vdW  Elec       q    Type
REMARK                         _______ _______ _______ _____ _____    ______ ____
ROOT
ATOM      1  C   UNL     1      -2.137   0.079   0.000  0.00  0.00    +0.000 C 
ATOM      2  C   UNL     1      -2.852  -0.334   0.000  0.00  0.00    +0.000 C 
ATOM      3  C   UNL     1      -2.852  -1.159   0.000  0.00  0.00    +0.000 C 
ATOM      4  C   UNL     1      -2.137  -1.571   0.000  0.00  0.00    +0.000 C 
ATOM      5  C   UNL     1      -1.423  -1.159   0.000  0.00  0.00    +0.000 C 
ATOM      6  C   UNL     1      -1.423  -0.334   0.000  0.00  0.00    +0.000 C 
ATOM      7  C   UNL     1      -0.708   0.079   0.000  0.00  0.00    +0.000 C 
ATOM      8  C   UNL     1      -0.708  -1.571   0.000  0.00  0.00    +0.000 C 
ATOM      9  C   UNL     1       0.006  -1.159   0.000  0.00  0.00    +0.000 C 
ATOM     10  C   UNL     1       0.006  -0.334   0.000  0.00  0.00    +0.000 C 
ATOM     11  C   UNL     1       0.006   1.316   0.000  0.00  0.00    +0.000 C 
ATOM     12  C   UNL     1      -0.708   0.904   0.000  0.00  0.00    +0.000 C 
ATOM     13  C   UNL     1       0.721   0.079   0.000  0.00  0.00    +0.000 C 
ATOM     14  C   UNL     1       0.721   0.904   0.000  0.00  0.00    +0.000 C 
ATOM     15  C   UNL     1       1.505   1.159   0.000  0.00  0.00    +0.000 C 
ATOM     16  C   UNL     1       1.505  -0.176   0.000  0.00  0.00    +0.000 C 
ATOM     17  C   UNL     1       1.990   0.491   0.000  0.00  0.00    +0.000 C 
ATOM     18  O   UNL     1      -3.566  -1.571   0.000  0.00  0.00    +0.000 OA
ATOM     19 CL   UNL     1      -0.708  -2.396   0.000  0.00  0.00    +0.000 Cl
ATOM     20  C   UNL     1       0.721   1.729   0.000  0.00  0.00    +0.000 C 
ATOM     21  C   UNL     1      -1.423   0.491   0.000  0.00  0.00    +0.000 C 
ATOM     22  C   UNL     1      -2.852   0.491   0.000  0.00  0.00    +0.000 C 
ENDROOT
BRANCH  15  23
ATOM     23  C   UNL     1       1.505   1.984   0.000  0.00  0.00    +0.000 C 
ATOM     24  C   UNL     1       0.791   2.396   0.000  0.00  0.00    +0.000 C 
ATOM     25  O   UNL     1       2.220   2.396   0.000  0.00  0.00    +0.000 OA
ENDBRANCH  15  23
BRANCH  15  26
ATOM     26  O   UNL     1       2.220   1.571   0.000  0.00  0.00    +0.000 OA
BRANCH  26  27
ATOM     27  C   UNL     1       2.934   1.159   0.000  0.00  0.00    +0.000 C 
ATOM     28  C   UNL     1       3.649   1.571   0.000  0.00  0.00    +0.000 C 
ATOM     29  O   UNL     1       2.934   0.334   0.000  0.00  0.00    +0.000 OA
ENDBRANCH  26  27
ENDBRANCH  15  26
TORSDOF 3
