REMARK  Name = 
REMARK  10 active torsions:
REMARK  status: ('A' for Active; 'I' for Inactive)
REMARK    1  A    between atoms: C_2  and  C_3
REMARK    2  A    between atoms: C_2  and  C_24
REMARK    3  A    between atoms: C_7  and  O_8
REMARK    4  A    between atoms: O_8  and  C_9
REMARK    5  A    between atoms: C_11  and  C_18
REMARK    6  A    between atoms: C_18  and  O_19
REMARK    7  A    between atoms: O_19  and  C_34
REMARK    8  A    between atoms: C_21  and  O_22
REMARK    9  A    between atoms: C_25  and  C_26
REMARK   10  A    between atoms: C_29  and  O_30
REMARK                            x       y       z     vdW  Elec       q    Type
REMARK                         _______ _______ _______ _____ _____    ______ ____
ROOT
ATOM      1  C   UNL     1      -0.282  -1.408   0.000  0.00  0.00    +0.000 A 
ATOM      2  C   UNL     1      -0.275  -2.236   0.000  0.00  0.00    +0.000 A 
ATOM      3  O   UNL     1       0.443  -2.642   0.000  0.00  0.00    +0.000 OA
ATOM      4  C   UNL     1      -0.983  -2.651   0.000  0.00  0.00    +0.000 A 
ATOM      5  C   UNL     1      -1.701  -2.246   0.000  0.00  0.00    +0.000 A 
ATOM      6  C   UNL     1      -1.712  -1.426   0.000  0.00  0.00    +0.000 A 
ATOM      7  C   UNL     1      -1.001  -1.003   0.000  0.00  0.00    +0.000 A 
ENDROOT
BRANCH   1   9
ATOM      8  O   UNL     1       0.421  -0.161   0.000  0.00  0.00    +0.000 OA
ATOM      9  C   UNL     1       0.428  -0.988   0.000  0.00  0.00    +0.000 C 
BRANCH   9  10
ATOM     10  C   UNL     1       1.143  -1.391   0.000  0.00  0.00    +0.000 C 
ATOM     11  C   UNL     1       1.855  -0.969   0.000  0.00  0.00    +0.000 C 
BRANCH  11  12
ATOM     12  C   UNL     1       2.574  -1.374   0.000  0.00  0.00    +0.000 A 
ATOM     13  C   UNL     1       2.584  -2.202   0.000  0.00  0.00    +0.000 A 
ATOM     14  C   UNL     1       3.295  -2.599   0.000  0.00  0.00    +0.000 A 
ATOM     15  C   UNL     1       4.011  -2.183   0.000  0.00  0.00    +0.000 A 
ATOM     16  C   UNL     1       4.003  -1.361   0.000  0.00  0.00    +0.000 A 
ATOM     17  C   UNL     1       3.285  -0.954   0.000  0.00  0.00    +0.000 A 
ATOM     18  O   UNL     1       3.288  -3.408   0.000  0.00  0.00    +0.000 OA
BRANCH  15  19
ATOM     19  O   UNL     1       4.729  -2.589   0.000  0.00  0.00    +0.000 OA
ATOM     20  C   UNL     1       5.286  -2.226   0.000  0.00  0.00    +0.000 C 
ENDBRANCH  15  19
ENDBRANCH  11  12
ENDBRANCH   9  10
ENDBRANCH   1   9
BRANCH   7  21
ATOM     21  O   UNL     1      -1.010  -0.178   0.000  0.00  0.00    +0.000 OA
ATOM     22  C   UNL     1      -1.730   0.226   0.000  0.00  0.00    +0.000 C 
ENDBRANCH   7  21
BRANCH   5  23
ATOM     23  O   UNL     1      -2.411  -2.667   0.000  0.00  0.00    +0.000 OA
BRANCH  23  24
ATOM     24  C   UNL     1      -3.130  -2.264   0.000  0.00  0.00    +0.000 C 
ATOM     25  O   UNL     1      -3.141  -1.436   0.000  0.00  0.00    +0.000 OA
ATOM     26  C   UNL     1      -3.857  -1.036   0.000  0.00  0.00    +0.000 C 
ATOM     27  C   UNL     1      -4.567  -1.456   0.000  0.00  0.00    +0.000 C 
ATOM     28  O   UNL     1      -5.286  -1.050   0.000  0.00  0.00    +0.000 OA
ATOM     29  C   UNL     1      -4.561  -2.277   0.000  0.00  0.00    +0.000 C 
ATOM     30  O   UNL     1      -5.271  -2.695   0.000  0.00  0.00    +0.000 OA
ATOM     31  C   UNL     1      -3.840  -2.684   0.000  0.00  0.00    +0.000 C 
ATOM     32  O   UNL     1      -3.832  -3.509   0.000  0.00  0.00    +0.000 OA
BRANCH  26  33
ATOM     33  C   UNL     1      -3.868  -0.211   0.000  0.00  0.00    +0.000 C 
BRANCH  33  34
ATOM     34  O   UNL     1      -3.234   0.225   0.000  0.00  0.00    +0.000 OA
BRANCH  34  35
ATOM     35  C   UNL     1      -3.234   1.036   0.000  0.00  0.00    +0.000 C 
ATOM     36  O   UNL     1      -3.945   1.459   0.000  0.00  0.00    +0.000 OA
ATOM     37  C   UNL     1      -3.933   2.280   0.000  0.00  0.00    +0.000 C 
ATOM     38  C   UNL     1      -3.214   2.684   0.000  0.00  0.00    +0.000 C 
ATOM     39  O   UNL     1      -3.206   3.509   0.000  0.00  0.00    +0.000 OA
ATOM     40  C   UNL     1      -2.507   2.268   0.000  0.00  0.00    +0.000 C 
ATOM     41  O   UNL     1      -1.788   2.674   0.000  0.00  0.00    +0.000 OA
ATOM     42  C   UNL     1      -2.515   1.440   0.000  0.00  0.00    +0.000 C 
ATOM     43  O   UNL     1      -1.805   1.020   0.000  0.00  0.00    +0.000 OA
ATOM     44  C   UNL     1      -4.642   2.702   0.000  0.00  0.00    +0.000 C 
ENDBRANCH  34  35
ENDBRANCH  33  34
ENDBRANCH  26  33
ENDBRANCH  23  24
ENDBRANCH   5  23
TORSDOF 10
