REMARK  Name = 
REMARK  9 active torsions:
REMARK  status: ('A' for Active; 'I' for Inactive)
REMARK    1  A    between atoms: C_19  and  N_41
REMARK    2  A    between atoms: C_19  and  O_46
REMARK    3  A    between atoms: C_21  and  C_29
REMARK    4  A    between atoms: C_22  and  C_30
REMARK    5  A    between atoms: C_23  and  C_31
REMARK    6  A    between atoms: C_24  and  C_25
REMARK    7  A    between atoms: C_26  and  N_39
REMARK    8  A    between atoms: C_28  and  C_29
REMARK    9  A    between atoms: O_46  and  P_47
REMARK                            x       y       z     vdW  Elec       q    Type
REMARK                         _______ _______ _______ _____ _____    ______ ____
ROOT
ATOM      1  C   UNL     1      -2.894   2.671   0.000  0.00  0.00    +0.000 C 
ATOM      2  C   UNL     1      -1.183   1.896   0.000  0.00  0.00    +0.000 C 
ATOM      3  C   UNL     1      -1.897   0.658   0.000  0.00  0.00    +0.000 C 
ATOM      4  C   UNL     1      -1.897   2.308   0.000  0.00  0.00    +0.000 C 
ATOM      5  C   UNL     1      -2.611   1.071   0.000  0.00  0.00    +0.000 C 
ATOM      6  C   UNL     1      -0.468  -0.166   0.000  0.00  0.00    +0.000 A 
ATOM      7  C   UNL     1       0.961   0.658   0.000  0.00  0.00    +0.000 A 
ATOM      8  C   UNL     1       0.246  -0.579   0.000  0.00  0.00    +0.000 A 
ATOM      9  C   UNL     1       0.961  -0.166   0.000  0.00  0.00    +0.000 A 
ATOM     10  C   UNL     1      -0.468   0.658   0.000  0.00  0.00    +0.000 A 
ATOM     11  N   UNL     1       0.246   1.071   0.000  0.00  0.00    +0.000 NA
ATOM     12  N   UNL     1      -1.183   1.071   0.000  0.00  0.00    +0.000 N 
ATOM     13  N   UNL     1      -2.611   1.896   0.000  0.00  0.00    +0.000 N 
ENDROOT
BRANCH   8  20
ATOM     14  C   UNL     1      -1.183  -1.404   0.000  0.00  0.00    +0.000 C 
ATOM     15  C   UNL     1       0.246  -3.054   0.000  0.00  0.00    +0.000 A 
ATOM     16  C   UNL     1       0.961  -2.641   0.000  0.00  0.00    +0.000 A 
ATOM     17  C   UNL     1      -0.468  -2.641   0.000  0.00  0.00    +0.000 A 
ATOM     18  C   UNL     1       0.961  -1.816   0.000  0.00  0.00    +0.000 A 
ATOM     19  C   UNL     1      -0.468  -1.816   0.000  0.00  0.00    +0.000 A 
ATOM     20  C   UNL     1       0.246  -1.404   0.000  0.00  0.00    +0.000 A 
ENDBRANCH   8  20
BRANCH   9  23
ATOM     21  C   UNL     1       1.675  -1.404   0.000  0.00  0.00    +0.000 C 
ATOM     22  C   UNL     1       2.390  -0.166   0.000  0.00  0.00    +0.000 C 
ATOM     23  N   UNL     1       1.675  -0.579   0.000  0.00  0.00    +0.000 N 
ATOM     24  O   UNL     1       3.104  -0.579   0.000  0.00  0.00    +0.000 OA
BRANCH  22  27
ATOM     25  C   UNL     1       2.390   1.484   0.000  0.00  0.00    +0.000 C 
ATOM     26  C   UNL     1       1.565   0.658   0.000  0.00  0.00    +0.000 C 
ATOM     27  C   UNL     1       2.390   0.658   0.000  0.00  0.00    +0.000 C 
BRANCH  27  31
ATOM     28  C   UNL     1       3.627   1.373   0.000  0.00  0.00    +0.000 A 
ATOM     29  C   UNL     1       3.627  -0.056   0.000  0.00  0.00    +0.000 A 
ATOM     30  C   UNL     1       4.865   0.658   0.000  0.00  0.00    +0.000 A 
ATOM     31  C   UNL     1       3.215   0.658   0.000  0.00  0.00    +0.000 A 
ATOM     32  C   UNL     1       4.452   1.373   0.000  0.00  0.00    +0.000 A 
ATOM     33  C   UNL     1       4.452  -0.056   0.000  0.00  0.00    +0.000 A 
BRANCH  32  34
ATOM     34  C   UNL     1       4.865   2.087   0.000  0.00  0.00    +0.000 C 
ATOM     35  F   UNL     1       5.277   2.802   0.000  0.00  0.00    +0.000 F 
ATOM     36  F   UNL     1       4.150   2.500   0.000  0.00  0.00    +0.000 F 
ATOM     37  F   UNL     1       5.579   1.675   0.000  0.00  0.00    +0.000 F 
ENDBRANCH  32  34
BRANCH  33  38
ATOM     38  C   UNL     1       4.865  -0.770   0.000  0.00  0.00    +0.000 C 
ATOM     39  F   UNL     1       5.277  -1.485   0.000  0.00  0.00    +0.000 F 
ATOM     40  F   UNL     1       5.579  -0.358   0.000  0.00  0.00    +0.000 F 
ATOM     41  F   UNL     1       4.150  -1.183   0.000  0.00  0.00    +0.000 F 
ENDBRANCH  33  38
ENDBRANCH  27  31
ENDBRANCH  22  27
ENDBRANCH   9  23
BRANCH  13  42
ATOM     42  C   UNL     1      -3.424   1.753   0.000  0.00  0.00    +0.000 C 
BRANCH  42  43
ATOM     43  O   UNL     1      -3.954   2.385   0.000  0.00  0.00    +0.000 OA
BRANCH  43  47
ATOM     44  O   UNL     1      -5.579   2.098   0.000  0.00  0.00    +0.000 OA
ATOM     45  O   UNL     1      -4.910   3.054   0.000  0.00  0.00    +0.000 OA
ATOM     46  O   UNL     1      -4.623   1.429   0.000  0.00  0.00    +0.000 OA
ATOM     47  P   UNL     1      -4.767   2.241   0.000  0.00  0.00    +0.000 P 
ENDBRANCH  43  47
ENDBRANCH  42  43
ENDBRANCH  13  42
TORSDOF 9
