REMARK  Name = 
REMARK  9 active torsions:
REMARK  status: ('A' for Active; 'I' for Inactive)
REMARK    1  A    between atoms: C_2  and  C_16
REMARK    2  A    between atoms: C_3  and  C_9
REMARK    3  A    between atoms: C_6  and  C_7
REMARK    4  A    between atoms: C_6  and  C_11
REMARK    5  A    between atoms: C_6  and  C_20
REMARK    6  A    between atoms: C_6  and  C_21
REMARK    7  A    between atoms: C_8  and  C_11
REMARK    8  A    between atoms: N_10  and  C_15
REMARK    9  A    between atoms: C_12  and  C_17
REMARK                            x       y       z     vdW  Elec       q    Type
REMARK                         _______ _______ _______ _____ _____    ______ ____
ROOT
ATOM      1  C   UNL     1       0.643  -0.922   0.000  0.00  0.00    +0.000 A 
ATOM      2  C   UNL     1      -0.793  -0.931   0.000  0.00  0.00    +0.000 A 
ATOM      3  C   UNL     1      -0.079  -0.509   0.000  0.00  0.00    +0.000 A 
ATOM      4  C   UNL     1      -0.079  -2.170   0.000  0.00  0.00    +0.000 A 
ATOM      5  C   UNL     1       0.643  -1.757   0.000  0.00  0.00    +0.000 A 
ATOM      6  C   UNL     1      -0.793  -1.757   0.000  0.00  0.00    +0.000 A 
ENDROOT
BRANCH   1   8
ATOM      7  C   UNL     1       2.074  -0.918   0.000  0.00  0.00    +0.000 C 
ATOM      8  N   UNL     1       1.356  -0.509   0.000  0.00  0.00    +0.000 NA
ATOM      9  O   UNL     1       2.074  -1.744   0.000  0.00  0.00    +0.000 OA
BRANCH   7  10
ATOM     10  C   UNL     1       2.788  -0.505   0.000  0.00  0.00    +0.000 C 
BRANCH  10  11
ATOM     11  C   UNL     1       3.501  -0.910   0.000  0.00  0.00    +0.000 C 
BRANCH  11  12
ATOM     12  C   UNL     1       4.215  -0.497   0.000  0.00  0.00    +0.000 C 
ATOM     13  O   UNL     1       4.215   0.330   0.000  0.00  0.00    +0.000 OA
ATOM     14  O   UNL     1       4.937  -0.910   0.000  0.00  0.00    +0.000 OA
ENDBRANCH  11  12
BRANCH  11  15
ATOM     15  C   UNL     1       2.913  -1.498   0.000  0.00  0.00    +0.000 C 
ATOM     16  C   UNL     1       3.126  -2.295   0.000  0.00  0.00    +0.000 C 
ENDBRANCH  11  15
BRANCH  11  17
ATOM     17  C   UNL     1       4.090  -1.498   0.000  0.00  0.00    +0.000 C 
ATOM     18  C   UNL     1       3.877  -2.295   0.000  0.00  0.00    +0.000 C 
ENDBRANCH  11  17
ENDBRANCH  10  11
ENDBRANCH   7  10
ENDBRANCH   1   8
BRANCH   2  20
ATOM     19  C   UNL     1      -2.220  -0.931   0.000  0.00  0.00    +0.000 C 
ATOM     20  C   UNL     1      -1.506  -0.517   0.000  0.00  0.00    +0.000 C 
BRANCH  19  23
ATOM     21  N   UNL     1      -3.021   0.305   0.000  0.00  0.00    +0.000 NA
ATOM     22  C   UNL     1      -3.835   0.480   0.000  0.00  0.00    +0.000 A 
ATOM     23  C   UNL     1      -2.934  -0.517   0.000  0.00  0.00    +0.000 A 
ATOM     24  S   UNL     1      -3.689  -0.847   0.000  0.00  0.00    +0.000 S 
ATOM     25  C   UNL     1      -4.248  -0.234   0.000  0.00  0.00    +0.000 A 
BRANCH  22  26
ATOM     26  C   UNL     1      -4.165   1.231   0.000  0.00  0.00    +0.000 C 
ATOM     27  C   UNL     1      -4.641   2.295   0.000  0.00  0.00    +0.000 C 
ATOM     28  C   UNL     1      -3.873   1.999   0.000  0.00  0.00    +0.000 C 
ATOM     29  C   UNL     1      -4.937   1.523   0.000  0.00  0.00    +0.000 C 
ENDBRANCH  22  26
ENDBRANCH  19  23
ENDBRANCH   2  20
TORSDOF 9
