REMARK  Name = 
REMARK  6 active torsions:
REMARK  status: ('A' for Active; 'I' for Inactive)
REMARK    1  A    between atoms: C_7  and  C_8
REMARK    2  A    between atoms: C_13  and  N_14
REMARK    3  A    between atoms: C_16  and  C_18
REMARK    4  A    between atoms: C_18  and  C_21
REMARK    5  A    between atoms: C_23  and  C_31
REMARK    6  A    between atoms: C_25  and  C_27
REMARK                            x       y       z     vdW  Elec       q    Type
REMARK                         _______ _______ _______ _____ _____    ______ ____
ROOT
ATOM      1  N   UNL     1       0.714  -3.712   0.000  0.00  0.00    +0.000 N 
ATOM      2  C   UNL     1       0.000  -4.125   0.000  0.00  0.00    +0.000 C 
ATOM      3  C   UNL     1       1.429  -4.125   0.000  0.00  0.00    +0.000 C 
ATOM      4  O   UNL     1       1.429  -4.950   0.000  0.00  0.00    +0.000 OA
ENDROOT
BRANCH   1  10
ATOM      5  C   UNL     1       0.000  -2.475   0.000  0.00  0.00    +0.000 A 
ATOM      6  C   UNL     1       0.000  -1.650   0.000  0.00  0.00    +0.000 A 
ATOM      7  C   UNL     1       0.714  -1.238   0.000  0.00  0.00    +0.000 A 
ATOM      8  N   UNL     1       1.429  -1.650   0.000  0.00  0.00    +0.000 NA
ATOM      9  C   UNL     1       1.429  -2.475   0.000  0.00  0.00    +0.000 A 
ATOM     10  C   UNL     1       0.714  -2.888   0.000  0.00  0.00    +0.000 A 
ATOM     11  N   UNL     1       0.714  -0.412   0.000  0.00  0.00    +0.000 N 
ATOM     12  C   UNL     1       0.000   0.000   0.000  0.00  0.00    +0.000 C 
ATOM     13  C   UNL     1       0.000   0.825   0.000  0.00  0.00    +0.000 C 
ATOM     14  N   UNL     1       0.714   1.238   0.000  0.00  0.00    +0.000 NA
ATOM     15  C   UNL     1       1.429   0.825   0.000  0.00  0.00    +0.000 C 
ATOM     16  C   UNL     1       1.429   0.000   0.000  0.00  0.00    +0.000 C 
ATOM     17  C   UNL     1       0.714   2.062   0.000  0.00  0.00    +0.000 C 
BRANCH   5  24
ATOM     18  C   UNL     1      -1.429  -1.650   0.000  0.00  0.00    +0.000 C 
ATOM     19  C   UNL     1      -1.429  -2.475   0.000  0.00  0.00    +0.000 A 
ATOM     20  C   UNL     1      -2.143  -2.888   0.000  0.00  0.00    +0.000 A 
ATOM     21  C   UNL     1      -2.143  -3.712   0.000  0.00  0.00    +0.000 A 
ATOM     22  C   UNL     1      -1.429  -4.125   0.000  0.00  0.00    +0.000 A 
ATOM     23  C   UNL     1      -0.714  -3.712   0.000  0.00  0.00    +0.000 A 
ATOM     24  C   UNL     1      -0.714  -2.888   0.000  0.00  0.00    +0.000 A 
ENDBRANCH   5  24
ENDBRANCH   1  10
BRANCH   3  25
ATOM     25  C   UNL     1       2.143  -3.712   0.000  0.00  0.00    +0.000 C 
ATOM     26  C   UNL     1       2.858  -3.300   0.000  0.00  0.00    +0.000 C 
ATOM     27  C   UNL     1       1.731  -2.998   0.000  0.00  0.00    +0.000 C 
BRANCH  25  28
ATOM     28  C   UNL     1       2.556  -4.427   0.000  0.00  0.00    +0.000 A 
ATOM     29  C   UNL     1       3.381  -4.427   0.000  0.00  0.00    +0.000 A 
ATOM     30  C   UNL     1       3.793  -5.141   0.000  0.00  0.00    +0.000 A 
ATOM     31  C   UNL     1       3.381  -5.856   0.000  0.00  0.00    +0.000 A 
ATOM     32  C   UNL     1       2.556  -5.856   0.000  0.00  0.00    +0.000 A 
ATOM     33  C   UNL     1       2.143  -5.141   0.000  0.00  0.00    +0.000 A 
BRANCH  30  34
ATOM     34  C   UNL     1       4.618  -5.141   0.000  0.00  0.00    +0.000 C 
ATOM     35  F   UNL     1       5.443  -5.141   0.000  0.00  0.00    +0.000 F 
ATOM     36  F   UNL     1       4.618  -5.966   0.000  0.00  0.00    +0.000 F 
ATOM     37  F   UNL     1       4.618  -4.316   0.000  0.00  0.00    +0.000 F 
ENDBRANCH  30  34
BRANCH  32  38
ATOM     38  C   UNL     1       2.143  -6.570   0.000  0.00  0.00    +0.000 C 
ATOM     39  F   UNL     1       1.731  -7.285   0.000  0.00  0.00    +0.000 F 
ATOM     40  F   UNL     1       2.858  -6.983   0.000  0.00  0.00    +0.000 F 
ATOM     41  F   UNL     1       1.429  -6.158   0.000  0.00  0.00    +0.000 F 
ENDBRANCH  32  38
ENDBRANCH  25  28
ENDBRANCH   3  25
TORSDOF 6
