REMARK  Name = 
REMARK  6 active torsions:
REMARK  status: ('A' for Active; 'I' for Inactive)
REMARK    1  A    between atoms: C_2  and  C_11
REMARK    2  A    between atoms: C_3  and  C_10
REMARK    3  A    between atoms: C_6  and  C_15
REMARK    4  A    between atoms: C_9  and  O_21
REMARK    5  A    between atoms: C_14  and  O_25
REMARK    6  A    between atoms: C_22  and  O_26
REMARK                            x       y       z     vdW  Elec       q    Type
REMARK                         _______ _______ _______ _____ _____    ______ ____
ROOT
ATOM      1  C   UNL     1       0.511  -1.160   0.000  0.00  0.00    +0.000 C 
ATOM      2  C   UNL     1      -0.248  -0.829   0.000  0.00  0.00    +0.000 C 
ATOM      3  C   UNL     1      -0.373  -2.162   0.000  0.00  0.00    +0.000 C 
ATOM      4  C   UNL     1       1.058  -0.541   0.000  0.00  0.00    +0.000 A 
ATOM      5  C   UNL     1       0.431  -1.981   0.000  0.00  0.00    +0.000 C 
ATOM      6  C   UNL     1      -0.795  -1.448   0.000  0.00  0.00    +0.000 C 
ATOM      7  O   UNL     1      -0.165  -0.006   0.000  0.00  0.00    +0.000 OA
ATOM      8  C   UNL     1       0.642   0.171   0.000  0.00  0.00    +0.000 A 
ATOM      9  C   UNL     1       1.885  -0.540   0.000  0.00  0.00    +0.000 A 
ATOM     10  C   UNL     1       1.055   0.890   0.000  0.00  0.00    +0.000 A 
ATOM     11  C   UNL     1       2.293   0.171   0.000  0.00  0.00    +0.000 A 
ATOM     12  C   UNL     1       1.882   0.891   0.000  0.00  0.00    +0.000 A 
ATOM     13  O   UNL     1       1.230  -1.573   0.000  0.00  0.00    +0.000 OA
ATOM     14  O   UNL     1       1.051  -2.528   0.000  0.00  0.00    +0.000 OA
ENDROOT
BRANCH   6  15
ATOM     15  C   UNL     1      -1.614  -1.372   0.000  0.00  0.00    +0.000 A 
ATOM     16  C   UNL     1      -2.089  -2.041   0.000  0.00  0.00    +0.000 A 
ATOM     17  C   UNL     1      -1.958  -0.618   0.000  0.00  0.00    +0.000 A 
ATOM     18  C   UNL     1      -2.908  -1.965   0.000  0.00  0.00    +0.000 A 
ATOM     19  C   UNL     1      -2.776  -0.542   0.000  0.00  0.00    +0.000 A 
ATOM     20  C   UNL     1      -3.255  -1.213   0.000  0.00  0.00    +0.000 A 
ENDBRANCH   6  15
BRANCH   2  21
ATOM     21  C   UNL     1      -0.952  -0.417   0.000  0.00  0.00    +0.000 A 
ATOM     22  C   UNL     1      -1.772  -0.414   0.000  0.00  0.00    +0.000 A 
ATOM     23  C   UNL     1      -0.536   0.294   0.000  0.00  0.00    +0.000 A 
ATOM     24  C   UNL     1      -1.764   1.014   0.000  0.00  0.00    +0.000 A 
ATOM     25  C   UNL     1      -0.943   1.008   0.000  0.00  0.00    +0.000 A 
ATOM     26  C   UNL     1      -2.179   0.298   0.000  0.00  0.00    +0.000 A 
BRANCH  24  27
ATOM     27  O   UNL     1      -2.175   1.725   0.000  0.00  0.00    +0.000 OA
ATOM     28  C   UNL     1      -1.760   2.441   0.000  0.00  0.00    +0.000 C 
ENDBRANCH  24  27
ENDBRANCH   2  21
BRANCH   3  29
ATOM     29  C   UNL     1      -0.701  -2.919   0.000  0.00  0.00    +0.000 C 
ATOM     30  O   UNL     1      -0.213  -3.581   0.000  0.00  0.00    +0.000 OA
ATOM     31  N   UNL     1      -1.521  -3.013   0.000  0.00  0.00    +0.000 NA
ENDBRANCH   3  29
BRANCH   9  32
ATOM     32  O   UNL     1       2.296  -1.251   0.000  0.00  0.00    +0.000 OA
ATOM     33  C   UNL     1       1.887  -1.968   0.000  0.00  0.00    +0.000 C 
ENDBRANCH   9  32
BRANCH  12  34
ATOM     34  O   UNL     1       2.292   1.605   0.000  0.00  0.00    +0.000 OA
ATOM     35  C   UNL     1       3.116   1.604   0.000  0.00  0.00    +0.000 C 
ENDBRANCH  12  34
TORSDOF 6
