REMARK  Name = 
REMARK  2 active torsions:
REMARK  status: ('A' for Active; 'I' for Inactive)
REMARK    1  A    between atoms: PT_13  and  N_16
REMARK    2  A    between atoms: PT_13  and  N_18
REMARK                            x       y       z     vdW  Elec       q    Type
REMARK                         _______ _______ _______ _____ _____    ______ ____
ROOT
ATOM      1  O   UNL     1       0.659   0.377   0.000  0.00  0.00    +0.000 OA
ATOM      2  O   UNL     1      -0.770   0.377   0.000  0.00  0.00    +0.000 OA
ATOM      3  C   UNL     1      -0.770  -0.448   0.000  0.00  0.00    +0.000 C 
ATOM      4  O   UNL     1      -1.484  -0.860   0.000  0.00  0.00    +0.000 OA
ATOM      5  C   UNL     1       0.659  -0.448   0.000  0.00  0.00    +0.000 C 
ATOM      6  O   UNL     1       1.374  -0.860   0.000  0.00  0.00    +0.000 OA
ATOM      7  C   UNL     1      -0.055  -0.860   0.000  0.00  0.00    +0.000 C 
ATOM      8  C   UNL     1       0.528  -1.444   0.000  0.00  0.00    +0.000 C 
ATOM      9  C   UNL     1      -0.638  -1.444   0.000  0.00  0.00    +0.000 C 
ATOM     10  C   UNL     1      -0.055  -2.027   0.000  0.00  0.00    +0.000 C 
ATOM     11 PT   UNL     1      -0.055   0.790   0.000  0.00  0.00    +0.000 Pt
ENDROOT
BRANCH  11  14
ATOM     12  H   UNL     1       0.659   2.027   0.000  0.00  0.00    +0.000 HD
ATOM     13  H   UNL     1       1.484   1.202   0.000  0.00  0.00    +0.000 HD
ATOM     14  N   UNL     1       0.659   1.202   0.000  0.00  0.00    +0.000 N 
ATOM     15  H   UNL     1       1.374   0.790   0.000  0.00  0.00    +0.000 HD
ENDBRANCH  11  14
BRANCH  11  18
ATOM     16  H   UNL     1      -1.484   0.790   0.000  0.00  0.00    +0.000 HD
ATOM     17  H   UNL     1      -0.770   2.027   0.000  0.00  0.00    +0.000 HD
ATOM     18  N   UNL     1      -0.770   1.202   0.000  0.00  0.00    +0.000 N 
ATOM     19  H   UNL     1      -1.182   1.917   0.000  0.00  0.00    +0.000 HD
ENDBRANCH  11  18
TORSDOF 2
