REMARK  Name = 
REMARK  7 active torsions:
REMARK  status: ('A' for Active; 'I' for Inactive)
REMARK    1  A    between atoms: C_3  and  C_4
REMARK    2  A    between atoms: C_3  and  C_5
REMARK    3  A    between atoms: C_4  and  N_19
REMARK    4  A    between atoms: C_5  and  N_23
REMARK    5  A    between atoms: C_9  and  C_14
REMARK    6  A    between atoms: C_9  and  N_19
REMARK    7  A    between atoms: C_11  and  C_14
REMARK                            x       y       z     vdW  Elec       q    Type
REMARK                         _______ _______ _______ _____ _____    ______ ____
ROOT
ATOM      1  C   UNL     1      -1.995  -1.676   0.000  0.00  0.00    +0.000 C 
ENDROOT
BRANCH   1   2
ATOM      2  C   UNL     1      -2.709  -1.264   0.000  0.00  0.00    +0.000 C 
BRANCH   2   3
ATOM      3  N   UNL     1      -3.424  -1.676   0.000  0.00  0.00    +0.000 NA
BRANCH   3   4
ATOM      4  C   UNL     1      -4.138  -1.264   0.000  0.00  0.00    +0.000 C 
BRANCH   4   5
ATOM      5  C   UNL     1      -4.853  -1.676   0.000  0.00  0.00    +0.000 C 
ATOM      6  O   UNL     1      -4.853  -2.501   0.000  0.00  0.00    +0.000 OA
BRANCH   5  10
ATOM      7  C   UNL     1      -6.282  -1.676   0.000  0.00  0.00    +0.000 A 
ATOM      8  C   UNL     1      -5.567  -0.439   0.000  0.00  0.00    +0.000 A 
ATOM      9  C   UNL     1      -6.996  -0.439   0.000  0.00  0.00    +0.000 A 
ATOM     10  C   UNL     1      -5.567  -1.264   0.000  0.00  0.00    +0.000 A 
ATOM     11  C   UNL     1      -6.996  -1.264   0.000  0.00  0.00    +0.000 A 
ATOM     12  C   UNL     1      -6.282  -0.026   0.000  0.00  0.00    +0.000 A 
ATOM     13  O   UNL     1      -7.710  -1.676   0.000  0.00  0.00    +0.000 OA
ATOM     14  O   UNL     1      -6.282   0.799   0.000  0.00  0.00    +0.000 OA
ENDBRANCH   5  10
ENDBRANCH   4   5
ENDBRANCH   3   4
ENDBRANCH   2   3
ENDBRANCH   1   2
BRANCH   1  15
ATOM     15  C   UNL     1      -1.280  -1.264   0.000  0.00  0.00    +0.000 C 
BRANCH  15  26
ATOM     16  C   UNL     1       2.099  -2.395   0.000  0.00  0.00    +0.000 C 
ATOM     17  C   UNL     1       1.505   0.400   0.000  0.00  0.00    +0.000 C 
ATOM     18  C   UNL     1      -0.479  -2.497   0.000  0.00  0.00    +0.000 A 
ATOM     19  C   UNL     1       0.188  -1.341   0.000  0.00  0.00    +0.000 A 
ATOM     20  C   UNL     1       0.740  -1.954   0.000  0.00  0.00    +0.000 A 
ATOM     21  C   UNL     1       0.443  -0.556   0.000  0.00  0.00    +0.000 A 
ATOM     22  C   UNL     1       1.802  -0.998   0.000  0.00  0.00    +0.000 A 
ATOM     23  N   UNL     1       0.328  -2.668   0.000  0.00  0.00    +0.000 NA
ATOM     24  N   UNL     1       1.547  -1.782   0.000  0.00  0.00    +0.000 N 
ATOM     25  N   UNL     1       1.250  -0.384   0.000  0.00  0.00    +0.000 N 
ATOM     26  N   UNL     1      -0.566  -1.676   0.000  0.00  0.00    +0.000 N 
ATOM     27  O   UNL     1      -0.109   0.057   0.000  0.00  0.00    +0.000 OA
ATOM     28  O   UNL     1       2.609  -0.826   0.000  0.00  0.00    +0.000 OA
ENDBRANCH  15  26
ENDBRANCH   1  15
TORSDOF 7
