REMARK  Name = 
REMARK  17 active torsions:
REMARK  status: ('A' for Active; 'I' for Inactive)
REMARK    1  A    between atoms: O_5  and  C_29
REMARK    2  A    between atoms: O_5  and  C_38
REMARK    3  A    between atoms: N_9  and  C_15
REMARK    4  A    between atoms: N_11  and  C_25
REMARK    5  A    between atoms: C_13  and  C_14
REMARK    6  A    between atoms: C_14  and  C_15
REMARK    7  A    between atoms: C_15  and  C_18
REMARK    8  A    between atoms: C_18  and  C_23
REMARK    9  A    between atoms: C_20  and  C_21
REMARK   10  A    between atoms: C_20  and  C_22
REMARK   11  A    between atoms: C_20  and  C_24
REMARK   12  A    between atoms: C_22  and  C_26
REMARK   13  A    between atoms: C_23  and  C_29
REMARK   14  A    between atoms: C_24  and  C_28
REMARK   15  A    between atoms: C_25  and  C_26
REMARK   16  A    between atoms: C_25  and  C_27
REMARK   17  A    between atoms: C_34  and  C_39
REMARK                            x       y       z     vdW  Elec       q    Type
REMARK                         _______ _______ _______ _____ _____    ______ ____
ROOT
ATOM      1  C   UNL     1      -1.766  -0.635   0.000  0.00  0.00    +0.000 C 
ENDROOT
BRANCH   1   4
ATOM      2  O   UNL     1      -1.052   0.602   0.000  0.00  0.00    +0.000 OA
ATOM      3  N   UNL     1      -2.480   0.602   0.000  0.00  0.00    +0.000 N 
ATOM      4  C   UNL     1      -1.766   0.190   0.000  0.00  0.00    +0.000 C 
ATOM      5  H   UNL     1      -2.923   0.346   0.000  0.00  0.00    +0.000 HD
BRANCH   3   6
ATOM      6  C   UNL     1      -2.480   1.427   0.000  0.00  0.00    +0.000 C 
BRANCH   6   7
ATOM      7  C   UNL     1      -3.195   1.839   0.000  0.00  0.00    +0.000 C 
BRANCH   7  10
ATOM      8  O   UNL     1      -4.647   2.894   0.000  0.00  0.00    +0.000 OA
ATOM      9  N   UNL     1      -3.607   3.934   0.000  0.00  0.00    +0.000 N 
ATOM     10  C   UNL     1      -3.195   2.664   0.000  0.00  0.00    +0.000 C 
ATOM     11  C   UNL     1      -2.527   3.150   0.000  0.00  0.00    +0.000 C 
ATOM     12  C   UNL     1      -2.782   3.934   0.000  0.00  0.00    +0.000 C 
ATOM     13  C   UNL     1      -3.862   3.150   0.000  0.00  0.00    +0.000 C 
ATOM     14  H   UNL     1      -3.908   4.348   0.000  0.00  0.00    +0.000 HD
ENDBRANCH   7  10
ENDBRANCH   6   7
BRANCH   6  15
ATOM     15  C   UNL     1      -1.766   1.839   0.000  0.00  0.00    +0.000 C 
BRANCH  15  16
ATOM     16  C   UNL     1      -1.766   2.664   0.000  0.00  0.00    +0.000 C 
BRANCH  16  18
ATOM     17  O   UNL     1      -1.052   3.902   0.000  0.00  0.00    +0.000 OA
ATOM     18  C   UNL     1      -1.052   3.077   0.000  0.00  0.00    +0.000 C 
BRANCH  18  19
ATOM     19  O   UNL     1      -0.337   2.664   0.000  0.00  0.00    +0.000 OA
BRANCH  19  20
ATOM     20  C   UNL     1       0.377   3.077   0.000  0.00  0.00    +0.000 C 
ATOM     21  C   UNL     1       1.092   2.664   0.000  0.00  0.00    +0.000 C 
ENDBRANCH  19  20
ENDBRANCH  18  19
ENDBRANCH  16  18
ENDBRANCH  15  16
ENDBRANCH   6  15
ENDBRANCH   3   6
ENDBRANCH   1   4
BRANCH   1  22
ATOM     22  C   UNL     1      -1.052  -1.048   0.000  0.00  0.00    +0.000 C 
BRANCH  22  24
ATOM     23  O   UNL     1      -0.337   0.190   0.000  0.00  0.00    +0.000 OA
ATOM     24  C   UNL     1      -0.337  -0.635   0.000  0.00  0.00    +0.000 C 
BRANCH  24  25
ATOM     25  C   UNL     1       0.377  -1.048   0.000  0.00  0.00    +0.000 C 
BRANCH  25  27
ATOM     26  O   UNL     1       1.806  -1.873   0.000  0.00  0.00    +0.000 OA
ATOM     27  N   UNL     1       1.092  -0.635   0.000  0.00  0.00    +0.000 N 
ATOM     28  C   UNL     1       1.806  -1.048   0.000  0.00  0.00    +0.000 C 
ATOM     29  H   UNL     1       1.092  -0.124   0.000  0.00  0.00    +0.000 HD
BRANCH  28  32
ATOM     30  O   UNL     1       3.414   0.356   0.000  0.00  0.00    +0.000 OA
ATOM     31  N   UNL     1       2.607   0.185   0.000  0.00  0.00    +0.000 NA
ATOM     32  C   UNL     1       2.521  -0.635   0.000  0.00  0.00    +0.000 A 
ATOM     33  C   UNL     1       3.274  -0.971   0.000  0.00  0.00    +0.000 A 
ATOM     34  C   UNL     1       3.826  -0.358   0.000  0.00  0.00    +0.000 A 
ATOM     35  C   UNL     1       4.647  -0.444   0.000  0.00  0.00    +0.000 C 
ENDBRANCH  28  32
ENDBRANCH  25  27
BRANCH  25  36
ATOM     36  C   UNL     1       0.377  -1.873   0.000  0.00  0.00    +0.000 C 
ATOM     37  C   UNL     1      -0.337  -2.285   0.000  0.00  0.00    +0.000 C 
ATOM     38  C   UNL     1       1.092  -2.285   0.000  0.00  0.00    +0.000 C 
ENDBRANCH  25  36
ENDBRANCH  24  25
ENDBRANCH  22  24
ENDBRANCH   1  22
BRANCH   1  39
ATOM     39  C   UNL     1      -2.480  -1.048   0.000  0.00  0.00    +0.000 C 
BRANCH  39  41
ATOM     40  F   UNL     1      -2.480  -4.348   0.000  0.00  0.00    +0.000 F 
ATOM     41  C   UNL     1      -2.480  -1.873   0.000  0.00  0.00    +0.000 A 
ATOM     42  C   UNL     1      -1.766  -2.285   0.000  0.00  0.00    +0.000 A 
ATOM     43  C   UNL     1      -3.195  -2.285   0.000  0.00  0.00    +0.000 A 
ATOM     44  C   UNL     1      -1.766  -3.110   0.000  0.00  0.00    +0.000 A 
ATOM     45  C   UNL     1      -3.195  -3.110   0.000  0.00  0.00    +0.000 A 
ATOM     46  C   UNL     1      -2.480  -3.523   0.000  0.00  0.00    +0.000 A 
ENDBRANCH  39  41
ENDBRANCH   1  39
TORSDOF 17
