REMARK  Name = 
REMARK  2 active torsions:
REMARK  status: ('A' for Active; 'I' for Inactive)
REMARK    1  A    between atoms: C1*_1  and  N_2
REMARK    2  A    between atoms: C4*_7  and  C5*_12
REMARK                            x       y       z     vdW  Elec       q    Type
REMARK                         _______ _______ _______ _____ _____    ______ ____
ROOT
ATOM      1  N   UNL     1       0.900   0.294   0.000  0.00  0.00    +0.000 N 
ATOM      2  C   UNL     1       0.170   0.686   0.000  0.00  0.00    +0.000 A 
ATOM      3  C   UNL     1       1.575   0.710   0.000  0.00  0.00    +0.000 A 
ATOM      4  N   UNL     1       0.170   1.521   0.000  0.00  0.00    +0.000 NA
ATOM      5  O   UNL     1      -0.531   0.273   0.000  0.00  0.00    +0.000 OA
ATOM      6  C   UNL     1       1.575   1.521   0.000  0.00  0.00    +0.000 A 
ATOM      7  C   UNL     1       0.887   1.916   0.000  0.00  0.00    +0.000 A 
ATOM      8  F   UNL     1       2.265   1.976   0.000  0.00  0.00    +0.000 F 
ATOM      9  N   UNL     1       0.887   2.700   0.000  0.00  0.00    +0.000 NA
ENDROOT
BRANCH   1  10
ATOM     10  C1* UNL     1       0.900  -1.170   0.000  0.00  0.00    +0.000 C 
ATOM     11  O4* UNL     1      -0.015  -0.640   0.000  0.00  0.00    +0.000 OA
ATOM     12  C2* UNL     1       0.507  -1.955   0.000  0.00  0.00    +0.000 C 
ATOM     13  C4* UNL     1      -0.873  -1.170   0.000  0.00  0.00    +0.000 C 
ATOM     14  C3* UNL     1      -0.494  -1.955   0.000  0.00  0.00    +0.000 C 
ATOM     15  O3* UNL     1      -0.726  -2.700   0.000  0.00  0.00    +0.000 OA
BRANCH  13  16
ATOM     16  C5* UNL     1      -1.658  -0.921   0.000  0.00  0.00    +0.000 C 
ATOM     17  O5* UNL     1      -2.265  -1.476   0.000  0.00  0.00    +0.000 OA
ENDBRANCH  13  16
ENDBRANCH   1  10
TORSDOF 2
