REMARK  Name = 
REMARK  6 active torsions:
REMARK  status: ('A' for Active; 'I' for Inactive)
REMARK    1  A    between atoms: C_3  and  C_5
REMARK    2  A    between atoms: C_3  and  C_9
REMARK    3  A    between atoms: C_9  and  N_27
REMARK    4  A    between atoms: C_14  and  C_15
REMARK    5  A    between atoms: C_14  and  N_28
REMARK    6  A    between atoms: C_17  and  C_23
REMARK                            x       y       z     vdW  Elec       q    Type
REMARK                         _______ _______ _______ _____ _____    ______ ____
ROOT
ATOM      1  C   UNL     1       3.572   1.238   0.000  0.00  0.00    +0.000 A 
ATOM      2  C   UNL     1       3.572   2.062   0.000  0.00  0.00    +0.000 A 
ATOM      3  C   UNL     1       2.858   0.825   0.000  0.00  0.00    +0.000 A 
ATOM      4  C   UNL     1       1.429   0.000   0.000  0.00  0.00    +0.000 C 
ATOM      5  C   UNL     1       2.858   2.475   0.000  0.00  0.00    +0.000 A 
ATOM      6  C   UNL     1      -0.715   2.062   0.000  0.00  0.00    +0.000 A 
ATOM      7  C   UNL     1       0.000   2.475   0.000  0.00  0.00    +0.000 A 
ATOM      8  C   UNL     1       0.000   0.825   0.000  0.00  0.00    +0.000 A 
ATOM      9  C   UNL     1      -0.715   1.238   0.000  0.00  0.00    +0.000 A 
ATOM     10  C   UNL     1       1.429   0.825   0.000  0.00  0.00    +0.000 C 
ATOM     11  C   UNL     1       2.143   1.238   0.000  0.00  0.00    +0.000 A 
ATOM     12  C   UNL     1       0.715   1.238   0.000  0.00  0.00    +0.000 A 
ATOM     13  C   UNL     1       2.143   2.062   0.000  0.00  0.00    +0.000 A 
ATOM     14  C   UNL     1       0.715   2.062   0.000  0.00  0.00    +0.000 A 
ATOM     15  S   UNL     1       1.429   2.475   0.000  0.00  0.00    +0.000 S 
ENDROOT
BRANCH   9  16
ATOM     16  C   UNL     1      -1.429   0.825   0.000  0.00  0.00    +0.000 C 
ATOM     17  F   UNL     1      -2.143   0.412   0.000  0.00  0.00    +0.000 F 
ATOM     18  F   UNL     1      -1.016   0.111   0.000  0.00  0.00    +0.000 F 
ATOM     19  F   UNL     1      -1.841   1.540   0.000  0.00  0.00    +0.000 F 
ENDBRANCH   9  16
BRANCH   4  20
ATOM     20  C   UNL     1       0.715  -0.412   0.000  0.00  0.00    +0.000 C 
BRANCH  20  21
ATOM     21  C   UNL     1       0.715  -1.238   0.000  0.00  0.00    +0.000 C 
BRANCH  21  26
ATOM     22  C   UNL     1      -0.715  -1.238   0.000  0.00  0.00    +0.000 C 
ATOM     23  C   UNL     1       0.000  -2.475   0.000  0.00  0.00    +0.000 C 
ATOM     24  C   UNL     1      -1.429  -1.650   0.000  0.00  0.00    +0.000 C 
ATOM     25  C   UNL     1      -0.715  -2.888   0.000  0.00  0.00    +0.000 C 
ATOM     26  N   UNL     1       0.000  -1.650   0.000  0.00  0.00    +0.000 NA
ATOM     27  N   UNL     1      -1.429  -2.475   0.000  0.00  0.00    +0.000 NA
BRANCH  27  28
ATOM     28  C   UNL     1      -2.143  -2.888   0.000  0.00  0.00    +0.000 C 
BRANCH  28  29
ATOM     29  C   UNL     1      -2.858  -2.475   0.000  0.00  0.00    +0.000 C 
ATOM     30  O   UNL     1      -3.572  -2.888   0.000  0.00  0.00    +0.000 OA
ENDBRANCH  28  29
ENDBRANCH  27  28
ENDBRANCH  21  26
ENDBRANCH  20  21
ENDBRANCH   4  20
TORSDOF 6
