REMARK  Name = 
REMARK  5 active torsions:
REMARK  status: ('A' for Active; 'I' for Inactive)
REMARK    1  A    between atoms: N_9  and  C_10
REMARK    2  A    between atoms: C_10  and  C_11
REMARK    3  A    between atoms: C_11  and  O_12
REMARK    4  A    between atoms: O_12  and  C_13
REMARK    5  A    between atoms: C_13  and  P_14
REMARK                            x       y       z     vdW  Elec       q    Type
REMARK                         _______ _______ _______ _____ _____    ______ ____
ROOT
ATOM      1  C   UNL     1       0.654  -0.698   0.000  0.00  0.00    +0.000 A 
ATOM      2  N   UNL     1       1.139  -0.030   0.000  0.00  0.00    +0.000 NA
ATOM      3  C   UNL     1       1.923  -0.285   0.000  0.00  0.00    +0.000 A 
ATOM      4  C   UNL     1       2.638   0.127   0.000  0.00  0.00    +0.000 A 
ATOM      5  N   UNL     1       3.352  -0.285   0.000  0.00  0.00    +0.000 NA
ATOM      6  C   UNL     1       3.352  -1.110   0.000  0.00  0.00    +0.000 A 
ATOM      7  N   UNL     1       2.638  -1.523   0.000  0.00  0.00    +0.000 NA
ATOM      8  C   UNL     1       1.923  -1.110   0.000  0.00  0.00    +0.000 A 
ATOM      9  N   UNL     1       1.139  -1.365   0.000  0.00  0.00    +0.000 N 
ATOM     10  N   UNL     1       4.067  -1.523   0.000  0.00  0.00    +0.000 NA
ATOM     11  N   UNL     1       2.638   0.952   0.000  0.00  0.00    +0.000 NA
ENDROOT
BRANCH   9  12
ATOM     12  C   UNL     1       0.884  -2.150   0.000  0.00  0.00    +0.000 C 
BRANCH  12  13
ATOM     13  C   UNL     1       0.077  -2.321   0.000  0.00  0.00    +0.000 C 
BRANCH  13  14
ATOM     14  O   UNL     1      -0.178  -3.106   0.000  0.00  0.00    +0.000 OA
BRANCH  14  15
ATOM     15  C   UNL     1      -0.985  -3.278   0.000  0.00  0.00    +0.000 C 
BRANCH  15  16
ATOM     16  P   UNL     1      -1.240  -4.062   0.000  0.00  0.00    +0.000 P 
ATOM     17  O   UNL     1      -1.495  -4.847   0.000  0.00  0.00    +0.000 OA
ATOM     18  O   UNL     1      -2.025  -3.807   0.000  0.00  0.00    +0.000 OA
ATOM     19  O   UNL     1      -0.455  -4.317   0.000  0.00  0.00    +0.000 OA
ENDBRANCH  15  16
ENDBRANCH  14  15
ENDBRANCH  13  14
ENDBRANCH  12  13
ENDBRANCH   9  12
TORSDOF 5
