REMARK  Name = 
REMARK  8 active torsions:
REMARK  status: ('A' for Active; 'I' for Inactive)
REMARK    1  A    between atoms: N_2  and  C_6
REMARK    2  A    between atoms: N_3  and  C_17
REMARK    3  A    between atoms: C_6  and  C_15
REMARK    4  A    between atoms: C_17  and  C_18
REMARK    5  A    between atoms: C_18  and  C_19
REMARK    6  A    between atoms: C_19  and  C_20
REMARK    7  A    between atoms: C_19  and  C_21
REMARK    8  A    between atoms: C_19  and  C_22
REMARK                            x       y       z     vdW  Elec       q    Type
REMARK                         _______ _______ _______ _____ _____    ______ ____
ROOT
ATOM      1  C   UNL     1       0.591  -0.283   0.000  0.00  0.00    +0.000 C 
ENDROOT
BRANCH   1   2
ATOM      2  N   UNL     1       0.591   0.541   0.000  0.00  0.00    +0.000 NA
ATOM      3  C   UNL     1       0.591   2.191   0.000  0.00  0.00    +0.000 C 
ATOM      4  C   UNL     1      -0.124   1.779   0.000  0.00  0.00    +0.000 C 
ATOM      5  C   UNL     1       1.305   1.779   0.000  0.00  0.00    +0.000 C 
ATOM      6  C   UNL     1      -0.124   0.954   0.000  0.00  0.00    +0.000 C 
ATOM      7  C   UNL     1       1.305   0.954   0.000  0.00  0.00    +0.000 C 
BRANCH   3   8
ATOM      8  N   UNL     1       1.222   2.722   0.000  0.00  0.00    +0.000 NA
ATOM      9  C   UNL     1       1.998   2.440   0.000  0.00  0.00    +0.000 C 
ATOM     10  C   UNL     1       1.079   3.534   0.000  0.00  0.00    +0.000 C 
ATOM     11  C   UNL     1       2.630   2.970   0.000  0.00  0.00    +0.000 C 
ATOM     12  C   UNL     1       1.711   4.064   0.000  0.00  0.00    +0.000 C 
ATOM     13  C   UNL     1       2.486   3.782   0.000  0.00  0.00    +0.000 C 
ENDBRANCH   3   8
BRANCH   3  16
ATOM     14  O   UNL     1       0.321   3.718   0.000  0.00  0.00    +0.000 OA
ATOM     15  N   UNL     1      -0.647   2.906   0.000  0.00  0.00    +0.000 NA
ATOM     16  C   UNL     1       0.178   2.906   0.000  0.00  0.00    +0.000 C 
ENDBRANCH   3  16
ENDBRANCH   1   2
BRANCH   1  17
ATOM     17  C   UNL     1      -0.124  -0.696   0.000  0.00  0.00    +0.000 C 
BRANCH  17  18
ATOM     18  C   UNL     1      -0.124  -1.521   0.000  0.00  0.00    +0.000 C 
BRANCH  18  19
ATOM     19  C   UNL     1      -0.949  -1.521   0.000  0.00  0.00    +0.000 A 
ATOM     20  C   UNL     1      -1.361  -0.806   0.000  0.00  0.00    +0.000 A 
ATOM     21  C   UNL     1      -1.361  -2.235   0.000  0.00  0.00    +0.000 A 
ATOM     22  C   UNL     1      -2.186  -0.806   0.000  0.00  0.00    +0.000 A 
ATOM     23  C   UNL     1      -2.186  -2.235   0.000  0.00  0.00    +0.000 A 
ATOM     24  C   UNL     1      -2.599  -1.521   0.000  0.00  0.00    +0.000 A 
ENDBRANCH  18  19
BRANCH  18  25
ATOM     25  C   UNL     1      -0.124  -2.346   0.000  0.00  0.00    +0.000 A 
ATOM     26  C   UNL     1      -0.838  -2.759   0.000  0.00  0.00    +0.000 A 
ATOM     27  C   UNL     1       0.591  -2.759   0.000  0.00  0.00    +0.000 A 
ATOM     28  C   UNL     1      -0.838  -3.583   0.000  0.00  0.00    +0.000 A 
ATOM     29  C   UNL     1       0.591  -3.583   0.000  0.00  0.00    +0.000 A 
ATOM     30  C   UNL     1      -0.124  -3.996   0.000  0.00  0.00    +0.000 A 
ENDBRANCH  18  25
BRANCH  18  32
ATOM     31  N   UNL     1       1.526  -1.521   0.000  0.00  0.00    +0.000 NA
ATOM     32  C   UNL     1       0.701  -1.521   0.000  0.00  0.00    +0.000 C 
ENDBRANCH  18  32
ENDBRANCH  17  18
ENDBRANCH   1  17
TORSDOF 8
