REMARK  Name = 
REMARK  7 active torsions:
REMARK  status: ('A' for Active; 'I' for Inactive)
REMARK    1  A    between atoms: C_3  and  N_29
REMARK    2  A    between atoms: N_11  and  C_12
REMARK    3  A    between atoms: N_20  and  C_21
REMARK    4  A    between atoms: C_21  and  C_22
REMARK    5  A    between atoms: C_30  and  O_32
REMARK    6  A    between atoms: O_32  and  C_33
REMARK    7  A    between atoms: C_33  and  C_34
REMARK                            x       y       z     vdW  Elec       q    Type
REMARK                         _______ _______ _______ _____ _____    ______ ____
ROOT
ATOM      1  C   UNL     1       5.821   2.546   0.000  0.00  0.00    +0.000 C 
ATOM      2  C   UNL     1       5.566   3.330   0.000  0.00  0.00    +0.000 A 
ATOM      3  C   UNL     1       6.051   3.998   0.000  0.00  0.00    +0.000 A 
ATOM      4  C   UNL     1       5.566   4.665   0.000  0.00  0.00    +0.000 A 
ATOM      5  N   UNL     1       4.781   4.410   0.000  0.00  0.00    +0.000 N 
ATOM      6  C   UNL     1       4.781   3.585   0.000  0.00  0.00    +0.000 A 
ATOM      7  C   UNL     1       4.067   3.173   0.000  0.00  0.00    +0.000 A 
ATOM      8  N   UNL     1       3.352   3.585   0.000  0.00  0.00    +0.000 NA
ATOM      9  C   UNL     1       3.352   4.410   0.000  0.00  0.00    +0.000 A 
ATOM     10  N   UNL     1       4.067   4.823   0.000  0.00  0.00    +0.000 NA
ATOM     11  N   UNL     1       4.067   2.348   0.000  0.00  0.00    +0.000 NA
ENDROOT
BRANCH  11  12
ATOM     12  C   UNL     1       3.352   1.935   0.000  0.00  0.00    +0.000 A 
ATOM     13  C   UNL     1       3.352   1.110   0.000  0.00  0.00    +0.000 A 
ATOM     14  C   UNL     1       2.638   0.698   0.000  0.00  0.00    +0.000 A 
ATOM     15  C   UNL     1       1.923   1.110   0.000  0.00  0.00    +0.000 A 
ATOM     16  C   UNL     1       1.923   1.935   0.000  0.00  0.00    +0.000 A 
ATOM     17  C   UNL     1       2.638   2.348   0.000  0.00  0.00    +0.000 A 
ATOM     18  C   UNL     1       1.139   2.190   0.000  0.00  0.00    +0.000 A 
ATOM     19  N   UNL     1       0.654   1.523   0.000  0.00  0.00    +0.000 NA
ATOM     20  N   UNL     1       1.139   0.856   0.000  0.00  0.00    +0.000 N 
BRANCH  20  21
ATOM     21  C   UNL     1       0.884   0.071   0.000  0.00  0.00    +0.000 C 
BRANCH  21  22
ATOM     22  C   UNL     1       0.077  -0.101   0.000  0.00  0.00    +0.000 A 
ATOM     23  C   UNL     1      -0.178  -0.885   0.000  0.00  0.00    +0.000 A 
ATOM     24  C   UNL     1      -0.985  -1.057   0.000  0.00  0.00    +0.000 A 
ATOM     25  C   UNL     1      -1.537  -0.444   0.000  0.00  0.00    +0.000 A 
ATOM     26  C   UNL     1      -1.282   0.341   0.000  0.00  0.00    +0.000 A 
ATOM     27  C   UNL     1      -0.475   0.512   0.000  0.00  0.00    +0.000 A 
ATOM     28  F   UNL     1      -1.834   0.954   0.000  0.00  0.00    +0.000 F 
ENDBRANCH  21  22
ENDBRANCH  20  21
ENDBRANCH  11  12
BRANCH   3  29
ATOM     29  N   UNL     1       6.876   3.998   0.000  0.00  0.00    +0.000 NA
ATOM     30  C   UNL     1       7.288   4.712   0.000  0.00  0.00    +0.000 C 
ATOM     31  O   UNL     1       6.876   5.427   0.000  0.00  0.00    +0.000 OA
BRANCH  30  32
ATOM     32  O   UNL     1       8.113   4.712   0.000  0.00  0.00    +0.000 OA
BRANCH  32  33
ATOM     33  C   UNL     1       8.526   5.427   0.000  0.00  0.00    +0.000 C 
BRANCH  33  34
ATOM     34  C   UNL     1       9.351   5.427   0.000  0.00  0.00    +0.000 C 
ATOM     35  C   UNL     1       9.763   6.141   0.000  0.00  0.00    +0.000 C 
ATOM     36  O   UNL     1      10.588   6.141   0.000  0.00  0.00    +0.000 OA
ATOM     37  C   UNL     1      11.001   5.427   0.000  0.00  0.00    +0.000 C 
ATOM     38  C   UNL     1      10.588   4.712   0.000  0.00  0.00    +0.000 C 
ATOM     39  N   UNL     1       9.763   4.712   0.000  0.00  0.00    +0.000 NA
ENDBRANCH  33  34
ENDBRANCH  32  33
ENDBRANCH  30  32
ENDBRANCH   3  29
TORSDOF 7
