REMARK  Name = 
REMARK  5 active torsions:
REMARK  status: ('A' for Active; 'I' for Inactive)
REMARK    1  A    between atoms: C_3  and  C_4
REMARK    2  A    between atoms: C_4  and  N_5
REMARK    3  A    between atoms: C_9  and  C_10
REMARK    4  A    between atoms: C_20  and  C_21
REMARK    5  A    between atoms: C_29  and  N_30
REMARK                            x       y       z     vdW  Elec       q    Type
REMARK                         _______ _______ _______ _____ _____    ______ ____
ROOT
ATOM      1  C   UNL     1      -0.348  -0.342   0.000  0.00  0.00    +0.000 A 
ATOM      2  S   UNL     1       0.437  -0.087   0.000  0.00  0.00    +0.000 S 
ATOM      3  C   UNL     1       0.922  -0.755   0.000  0.00  0.00    +0.000 A 
ATOM      4  C   UNL     1       0.437  -1.422   0.000  0.00  0.00    +0.000 A 
ATOM      5  C   UNL     1       0.692  -2.207   0.000  0.00  0.00    +0.000 C 
ATOM      6  C   UNL     1      -0.347  -1.167   0.000  0.00  0.00    +0.000 A 
ATOM      7  N   UNL     1      -1.062  -1.580   0.000  0.00  0.00    +0.000 NA
ATOM      8  C   UNL     1      -1.776  -1.167   0.000  0.00  0.00    +0.000 A 
ATOM      9  N   UNL     1      -1.776  -0.342   0.000  0.00  0.00    +0.000 NA
ATOM     10  C   UNL     1      -1.062   0.070   0.000  0.00  0.00    +0.000 A 
ENDROOT
BRANCH   8  11
ATOM     11  C   UNL     1      -2.491  -1.580   0.000  0.00  0.00    +0.000 A 
ATOM     12  C   UNL     1      -2.491  -2.405   0.000  0.00  0.00    +0.000 A 
ATOM     13  N   UNL     1      -3.205  -2.817   0.000  0.00  0.00    +0.000 NA
ATOM     14  C   UNL     1      -3.920  -2.405   0.000  0.00  0.00    +0.000 A 
ATOM     15  N   UNL     1      -4.634  -2.817   0.000  0.00  0.00    +0.000 NA
ATOM     16  N   UNL     1      -3.920  -1.580   0.000  0.00  0.00    +0.000 NA
ATOM     17  C   UNL     1      -3.205  -1.167   0.000  0.00  0.00    +0.000 A 
ENDBRANCH   8  11
BRANCH  10  18
ATOM     18  N   UNL     1      -1.062   0.895   0.000  0.00  0.00    +0.000 N 
ATOM     19  C   UNL     1      -1.777   1.307   0.000  0.00  0.00    +0.000 C 
ATOM     20  C   UNL     1      -1.777   2.132   0.000  0.00  0.00    +0.000 C 
ATOM     21  O   UNL     1      -1.062   2.545   0.000  0.00  0.00    +0.000 OA
ATOM     22  C   UNL     1      -0.348   2.132   0.000  0.00  0.00    +0.000 C 
ATOM     23  C   UNL     1      -0.348   1.308   0.000  0.00  0.00    +0.000 C 
ENDBRANCH  10  18
BRANCH   3  24
ATOM     24  C   UNL     1       1.747  -0.755   0.000  0.00  0.00    +0.000 C 
BRANCH  24  25
ATOM     25  N   UNL     1       2.159  -0.040   0.000  0.00  0.00    +0.000 NA
ATOM     26  C   UNL     1       1.747   0.674   0.000  0.00  0.00    +0.000 C 
ATOM     27  C   UNL     1       2.159   1.389   0.000  0.00  0.00    +0.000 C 
ATOM     28  N   UNL     1       2.984   1.389   0.000  0.00  0.00    +0.000 N 
ATOM     29  C   UNL     1       3.397   2.103   0.000  0.00  0.00    +0.000 C 
ATOM     30  O   UNL     1       2.984   2.817   0.000  0.00  0.00    +0.000 OA
ATOM     31  C   UNL     1       3.397   0.674   0.000  0.00  0.00    +0.000 C 
ATOM     32  C   UNL     1       2.984  -0.040   0.000  0.00  0.00    +0.000 C 
BRANCH  29  33
ATOM     33  C   UNL     1       4.222   2.103   0.000  0.00  0.00    +0.000 C 
ATOM     34  O   UNL     1       4.634   2.817   0.000  0.00  0.00    +0.000 OA
ATOM     35  C   UNL     1       4.634   1.389   0.000  0.00  0.00    +0.000 C 
ENDBRANCH  29  33
ENDBRANCH  24  25
ENDBRANCH   3  24
TORSDOF 5
