REMARK  Name = 
REMARK  8 active torsions:
REMARK  status: ('A' for Active; 'I' for Inactive)
REMARK    1  A    between atoms: P_2  and  O_10
REMARK    2  A    between atoms: C_5  and  O_13
REMARK    3  A    between atoms: C_8  and  O_10
REMARK    4  A    between atoms: O_13  and  C_23
REMARK    5  A    between atoms: N_17  and  C_30
REMARK    6  A    between atoms: N_17  and  C_31
REMARK    7  A    between atoms: C_30  and  C_32
REMARK    8  A    between atoms: C_31  and  C_33
REMARK                            x       y       z     vdW  Elec       q    Type
REMARK                         _______ _______ _______ _____ _____    ______ ____
ROOT
ATOM      1  C   UNL     1       2.846   0.754   0.000  0.00  0.00    +0.000 C 
ATOM      2  C   UNL     1       2.846  -0.065   0.000  0.00  0.00    +0.000 C 
ATOM      3  C   UNL     1       2.114  -0.482   0.000  0.00  0.00    +0.000 C 
ATOM      4  C   UNL     1       1.406  -0.065   0.000  0.00  0.00    +0.000 C 
ATOM      5  C   UNL     1       0.664  -0.482   0.000  0.00  0.00    +0.000 A 
ATOM      6  C   UNL     1       3.631   1.016   0.000  0.00  0.00    +0.000 C 
ATOM      7  C   UNL     1       0.664  -1.306   0.000  0.00  0.00    +0.000 A 
ATOM      8  C   UNL     1       2.114   1.176   0.000  0.00  0.00    +0.000 C 
ATOM      9  C   UNL     1       1.406   0.754   0.000  0.00  0.00    +0.000 C 
ATOM     10  C   UNL     1       3.631  -0.313   0.000  0.00  0.00    +0.000 C 
ATOM     11  C   UNL     1       2.114  -1.326   0.000  0.00  0.00    +0.000 C 
ATOM     12  C   UNL     1      -0.048  -0.065   0.000  0.00  0.00    +0.000 A 
ATOM     13  C   UNL     1      -0.048  -1.723   0.000  0.00  0.00    +0.000 A 
ATOM     14  C   UNL     1      -0.766  -1.306   0.000  0.00  0.00    +0.000 A 
ATOM     15  C   UNL     1       1.406  -1.723   0.000  0.00  0.00    +0.000 C 
ATOM     16  C   UNL     1       4.096   0.356   0.000  0.00  0.00    +0.000 C 
ATOM     17  C   UNL     1      -0.766  -0.473   0.000  0.00  0.00    +0.000 A 
ATOM     18  C   UNL     1       2.846   1.583   0.000  0.00  0.00    +0.000 C 
ENDROOT
BRANCH  14  19
ATOM     19  O   UNL     1      -1.474  -1.723   0.000  0.00  0.00    +0.000 OA
BRANCH  19  20
ATOM     20  C   UNL     1      -2.215  -1.340   0.000  0.00  0.00    +0.000 C 
ATOM     21  N   UNL     1      -2.913  -1.723   0.000  0.00  0.00    +0.000 N 
ATOM     22  O   UNL     1      -2.230  -0.444   0.000  0.00  0.00    +0.000 OA
BRANCH  21  23
ATOM     23  C   UNL     1      -2.899  -2.567   0.000  0.00  0.00    +0.000 C 
BRANCH  23  25
ATOM     24 CL   UNL     1      -4.285  -2.552   0.000  0.00  0.00    +0.000 Cl
ATOM     25  C   UNL     1      -3.573  -2.974   0.000  0.00  0.00    +0.000 C 
ENDBRANCH  23  25
ENDBRANCH  21  23
BRANCH  21  26
ATOM     26  C   UNL     1      -3.641  -1.340   0.000  0.00  0.00    +0.000 C 
BRANCH  26  28
ATOM     27 CL   UNL     1      -5.051  -1.374   0.000  0.00  0.00    +0.000 Cl
ATOM     28  C   UNL     1      -4.339  -1.748   0.000  0.00  0.00    +0.000 C 
ENDBRANCH  26  28
ENDBRANCH  21  26
ENDBRANCH  19  20
ENDBRANCH  14  19
BRANCH   6  29
ATOM     29  O   UNL     1       3.626   1.840   0.000  0.00  0.00    +0.000 OA
BRANCH  29  30
ATOM     30  P   UNL     1       4.334   2.257   0.000  0.00  0.00    +0.000 P 
ATOM     31  O   UNL     1       5.051   1.849   0.000  0.00  0.00    +0.000 OA
ATOM     32  O   UNL     1       4.736   2.974   0.000  0.00  0.00    +0.000 OA
ATOM     33  O   UNL     1       3.917   2.974   0.000  0.00  0.00    +0.000 OA
ENDBRANCH  29  30
ENDBRANCH   6  29
TORSDOF 8
