REMARK  Name = 
REMARK  12 active torsions:
REMARK  status: ('A' for Active; 'I' for Inactive)
REMARK    1  A    between atoms: C_2  and  C_7
REMARK    2  A    between atoms: C_5  and  C_11
REMARK    3  A    between atoms: C_7  and  C_8
REMARK    4  A    between atoms: C_8  and  C_9
REMARK    5  A    between atoms: C_9  and  C_10
REMARK    6  A    between atoms: C_10  and  C_21
REMARK    7  A    between atoms: C_11  and  C_12
REMARK    8  A    between atoms: C_12  and  C_13
REMARK    9  A    between atoms: C_13  and  C_14
REMARK   10  A    between atoms: C_13  and  C_16
REMARK   11  A    between atoms: C_19  and  C_20
REMARK   12  A    between atoms: C_20  and  C_21
REMARK                            x       y       z     vdW  Elec       q    Type
REMARK                         _______ _______ _______ _____ _____    ______ ____
ROOT
ATOM      1  C   UNL     1      -1.072  -0.204   0.000  0.00  0.00    +0.000 A 
ATOM      2  C   UNL     1      -1.072  -1.029   0.000  0.00  0.00    +0.000 A 
ATOM      3  C   UNL     1      -0.357   0.209   0.000  0.00  0.00    +0.000 A 
ATOM      4  C   UNL     1      -0.357  -1.441   0.000  0.00  0.00    +0.000 A 
ATOM      5  C   UNL     1       0.357  -0.204   0.000  0.00  0.00    +0.000 A 
ATOM      6  C   UNL     1       0.357  -1.029   0.000  0.00  0.00    +0.000 A 
ENDROOT
BRANCH   5   7
ATOM      7  C   UNL     1       1.072   0.207   0.000  0.00  0.00    +0.000 C 
BRANCH   7   8
ATOM      8  C   UNL     1       1.786  -0.206   0.000  0.00  0.00    +0.000 C 
BRANCH   8   9
ATOM      9  C   UNL     1       2.501   0.205   0.000  0.00  0.00    +0.000 C 
ATOM     10  N   UNL     1       2.501  -0.620   0.000  0.00  0.00    +0.000 NA
BRANCH   9  11
ATOM     11  C   UNL     1       2.503   1.030   0.000  0.00  0.00    +0.000 C 
ATOM     12  O   UNL     1       3.218   1.441   0.000  0.00  0.00    +0.000 OA
ENDBRANCH   9  11
BRANCH   9  13
ATOM     13  C   UNL     1       3.215  -0.209   0.000  0.00  0.00    +0.000 C 
ATOM     14  O   UNL     1       3.930   0.203   0.000  0.00  0.00    +0.000 OA
ENDBRANCH   9  13
ENDBRANCH   8   9
ENDBRANCH   7   8
ENDBRANCH   5   7
BRANCH   2  15
ATOM     15  C   UNL     1      -1.787  -1.441   0.000  0.00  0.00    +0.000 C 
BRANCH  15  16
ATOM     16  C   UNL     1      -2.501  -1.027   0.000  0.00  0.00    +0.000 C 
BRANCH  16  17
ATOM     17  C   UNL     1      -3.216  -1.439   0.000  0.00  0.00    +0.000 C 
BRANCH  17  18
ATOM     18  C   UNL     1      -3.930  -1.026   0.000  0.00  0.00    +0.000 C 
BRANCH  18  19
ATOM     19  C   UNL     1      -3.930  -0.202   0.000  0.00  0.00    +0.000 C 
BRANCH  19  20
ATOM     20  C   UNL     1      -3.216   0.210   0.000  0.00  0.00    +0.000 C 
BRANCH  20  21
ATOM     21  C   UNL     1      -2.501  -0.202   0.000  0.00  0.00    +0.000 C 
ATOM     22  C   UNL     1      -1.786   0.210   0.000  0.00  0.00    +0.000 C 
ENDBRANCH  20  21
ENDBRANCH  19  20
ENDBRANCH  18  19
ENDBRANCH  17  18
ENDBRANCH  16  17
ENDBRANCH  15  16
ENDBRANCH   2  15
TORSDOF 12
