REMARK  Name = 
REMARK  2 active torsions:
REMARK  status: ('A' for Active; 'I' for Inactive)
REMARK    1  A    between atoms: C_1  and  N_3
REMARK    2  A    between atoms: N_3  and  C_9
REMARK                            x       y       z     vdW  Elec       q    Type
REMARK                         _______ _______ _______ _____ _____    ______ ____
ROOT
ATOM      1  C   UNL     1       0.357  -1.444   0.000  0.00  0.00    +0.000 A 
ATOM      2  C   UNL     1      -0.357  -1.856   0.000  0.00  0.00    +0.000 A 
ATOM      3  C   UNL     1      -1.072  -1.444   0.000  0.00  0.00    +0.000 A 
ATOM      4  C   UNL     1      -1.072  -0.619   0.000  0.00  0.00    +0.000 A 
ATOM      5  C   UNL     1      -0.357  -0.206   0.000  0.00  0.00    +0.000 A 
ATOM      6  C   UNL     1       0.357  -0.619   0.000  0.00  0.00    +0.000 A 
ENDROOT
BRANCH   5   7
ATOM      7  N   UNL     1      -0.357   0.619   0.000  0.00  0.00    +0.000 NA
BRANCH   7   8
ATOM      8  C   UNL     1       0.357   1.031   0.000  0.00  0.00    +0.000 C 
ATOM      9  S   UNL     1       0.357   1.856   0.000  0.00  0.00    +0.000 S 
ATOM     10  N   UNL     1       1.072   0.619   0.000  0.00  0.00    +0.000 NA
ENDBRANCH   7   8
ENDBRANCH   5   7
TORSDOF 2
