REMARK  Name = 
REMARK  3 active torsions:
REMARK  status: ('A' for Active; 'I' for Inactive)
REMARK    1  A    between atoms: C_1  and  C_2
REMARK    2  A    between atoms: C_2  and  C_5
REMARK    3  A    between atoms: C_5  and  N_9
REMARK                            x       y       z     vdW  Elec       q    Type
REMARK                         _______ _______ _______ _____ _____    ______ ____
ROOT
ATOM      1  C   UNL     1      -0.716   0.414   0.000  0.00  0.00    +0.000 C 
ATOM      2  O   UNL     1      -0.718   1.239   0.000  0.00  0.00    +0.000 OA
ENDROOT
BRANCH   1   3
ATOM      3  C   UNL     1      -1.430   0.000   0.000  0.00  0.00    +0.000 A 
ATOM      4  C   UNL     1      -2.145   0.411   0.000  0.00  0.00    +0.000 A 
ATOM      5  C   UNL     1      -1.428  -0.825   0.000  0.00  0.00    +0.000 A 
ATOM      6  C   UNL     1      -2.859  -0.003   0.000  0.00  0.00    +0.000 A 
ATOM      7  C   UNL     1      -2.142  -1.239   0.000  0.00  0.00    +0.000 A 
ATOM      8  C   UNL     1      -2.857  -0.828   0.000  0.00  0.00    +0.000 A 
ENDBRANCH   1   3
BRANCH   1   9
ATOM      9  C   UNL     1      -0.001   0.003   0.000  0.00  0.00    +0.000 C 
BRANCH   9  10
ATOM     10  N   UNL     1       0.713   0.416   0.000  0.00  0.00    +0.000 NA
ATOM     11  C   UNL     1       1.428   0.005   0.000  0.00  0.00    +0.000 A 
ATOM     12  C   UNL     1       1.430  -0.820   0.000  0.00  0.00    +0.000 A 
ATOM     13  N   UNL     1       2.142   0.419   0.000  0.00  0.00    +0.000 NA
ATOM     14  C   UNL     1       2.145  -1.231   0.000  0.00  0.00    +0.000 A 
ATOM     15  C   UNL     1       2.857   0.008   0.000  0.00  0.00    +0.000 A 
ATOM     16  C   UNL     1       2.859  -0.817   0.000  0.00  0.00    +0.000 A 
ENDBRANCH   9  10
ENDBRANCH   1   9
TORSDOF 3
