REMARK  Name = 
REMARK  2 active torsions:
REMARK  status: ('A' for Active; 'I' for Inactive)
REMARK    1  A    between atoms: C_2  and  S_12
REMARK    2  A    between atoms: S_12  and  N_13
REMARK                            x       y       z     vdW  Elec       q    Type
REMARK                         _______ _______ _______ _____ _____    ______ ____
ROOT
ATOM      1  C   UNL     1       0.172  -2.145   0.000  0.00  0.00    +0.000 A 
ATOM      2  C   UNL     1       0.172  -0.495   0.000  0.00  0.00    +0.000 A 
ATOM      3  C   UNL     1      -0.552  -0.907   0.000  0.00  0.00    +0.000 A 
ATOM      4  C   UNL     1      -0.552  -1.732   0.000  0.00  0.00    +0.000 A 
ATOM      5  C   UNL     1       0.887  -0.907   0.000  0.00  0.00    +0.000 A 
ATOM      6  C   UNL     1       0.887  -1.732   0.000  0.00  0.00    +0.000 A 
ATOM      7  C   UNL     1       1.601  -2.145   0.000  0.00  0.00    +0.000 A 
ATOM      8  N   UNL     1       2.315  -1.732   0.000  0.00  0.00    +0.000 NA
ATOM      9  C   UNL     1       2.315  -0.907   0.000  0.00  0.00    +0.000 A 
ATOM     10  C   UNL     1       1.601  -0.495   0.000  0.00  0.00    +0.000 A 
ATOM     11  F   UNL     1       1.601   0.167   0.000  0.00  0.00    +0.000 F 
ENDROOT
BRANCH   2  12
ATOM     12  S   UNL     1       0.177   0.332   0.000  0.00  0.00    +0.000 S 
ATOM     13  O   UNL     1       0.752   0.659   0.000  0.00  0.00    +0.000 OA
ATOM     14  O   UNL     1       0.748  -0.002   0.000  0.00  0.00    +0.000 OA
BRANCH  12  15
ATOM     15  N   UNL     1      -0.536   0.750   0.000  0.00  0.00    +0.000 NA
ATOM     16  C   UNL     1      -1.230   0.294   0.000  0.00  0.00    +0.000 C 
ATOM     17  C   UNL     1      -2.018   0.542   0.000  0.00  0.00    +0.000 C 
ATOM     18  C   UNL     1      -0.477   1.579   0.000  0.00  0.00    +0.000 C 
ATOM     19  C   UNL     1      -2.315   1.314   0.000  0.00  0.00    +0.000 C 
ATOM     20  C   UNL     1      -1.079   2.145   0.000  0.00  0.00    +0.000 C 
ATOM     21  N   UNL     1      -1.897   2.027   0.000  0.00  0.00    +0.000 NA
ATOM     22  C   UNL     1       0.139   1.819   0.000  0.00  0.00    +0.000 C 
ENDBRANCH  12  15
ENDBRANCH   2  12
TORSDOF 2
