REMARK  Name = 
REMARK  8 active torsions:
REMARK  status: ('A' for Active; 'I' for Inactive)
REMARK    1  A    between atoms: C_3  and  C_5
REMARK    2  A    between atoms: C_10  and  N_11
REMARK    3  A    between atoms: N_11  and  C_12
REMARK    4  A    between atoms: N_18  and  C_19
REMARK    5  A    between atoms: C_24  and  O_25
REMARK    6  A    between atoms: C_30  and  N_32
REMARK    7  A    between atoms: N_35  and  C_38
REMARK    8  A    between atoms: C_38  and  C_39
REMARK                            x       y       z     vdW  Elec       q    Type
REMARK                         _______ _______ _______ _____ _____    ______ ____
ROOT
ATOM      1  C   UNL     1      -0.837  -0.403   0.000  0.00  0.00    +0.000 A 
ATOM      2  C   UNL     1      -0.837  -1.228   0.000  0.00  0.00    +0.000 A 
ATOM      3  C   UNL     1      -0.123  -1.641   0.000  0.00  0.00    +0.000 A 
ATOM      4  C   UNL     1       0.592  -1.228   0.000  0.00  0.00    +0.000 A 
ATOM      5  C   UNL     1       0.592  -0.403   0.000  0.00  0.00    +0.000 A 
ATOM      6  C   UNL     1      -0.123   0.009   0.000  0.00  0.00    +0.000 A 
ATOM      7  C   UNL     1       1.236   0.111   0.000  0.00  0.00    +0.000 C 
ATOM      8  C   UNL     1       2.041  -0.072   0.000  0.00  0.00    +0.000 C 
ATOM      9  C   UNL     1       2.399  -0.816   0.000  0.00  0.00    +0.000 C 
ATOM     10  C   UNL     1       2.041  -1.559   0.000  0.00  0.00    +0.000 C 
ATOM     11  C   UNL     1       1.236  -1.743   0.000  0.00  0.00    +0.000 C 
ENDROOT
BRANCH   1  18
ATOM     12  C   UNL     1      -2.981  -1.641   0.000  0.00  0.00    +0.000 A 
ATOM     13  C   UNL     1      -3.695  -1.228   0.000  0.00  0.00    +0.000 A 
ATOM     14  C   UNL     1      -3.695  -0.403   0.000  0.00  0.00    +0.000 A 
ATOM     15  N   UNL     1      -2.981   0.009   0.000  0.00  0.00    +0.000 NA
ATOM     16  C   UNL     1      -2.266  -0.403   0.000  0.00  0.00    +0.000 A 
ATOM     17  N   UNL     1      -2.266  -1.228   0.000  0.00  0.00    +0.000 NA
ATOM     18  N   UNL     1      -1.552   0.009   0.000  0.00  0.00    +0.000 NA
ATOM     19 CL   UNL     1      -4.410  -1.641   0.000  0.00  0.00    +0.000 Cl
BRANCH  12  20
ATOM     20  N   UNL     1      -2.981  -2.466   0.000  0.00  0.00    +0.000 NA
BRANCH  20  26
ATOM     21  C   UNL     1      -3.695  -3.703   0.000  0.00  0.00    +0.000 A 
ATOM     22  C   UNL     1      -4.410  -4.116   0.000  0.00  0.00    +0.000 A 
ATOM     23  C   UNL     1      -5.124  -3.703   0.000  0.00  0.00    +0.000 A 
ATOM     24  C   UNL     1      -5.124  -2.878   0.000  0.00  0.00    +0.000 A 
ATOM     25  C   UNL     1      -4.410  -2.466   0.000  0.00  0.00    +0.000 A 
ATOM     26  C   UNL     1      -3.695  -2.878   0.000  0.00  0.00    +0.000 A 
BRANCH  21  29
ATOM     27  C   UNL     1      -2.266  -5.353   0.000  0.00  0.00    +0.000 C 
ATOM     28  N   UNL     1      -2.981  -4.941   0.000  0.00  0.00    +0.000 NA
ATOM     29  C   UNL     1      -2.981  -4.116   0.000  0.00  0.00    +0.000 C 
ATOM     30  O   UNL     1      -2.266  -3.703   0.000  0.00  0.00    +0.000 OA
ENDBRANCH  21  29
ENDBRANCH  20  26
ENDBRANCH  12  20
ENDBRANCH   1  18
BRANCH  10  31
ATOM     31  N   UNL     1       2.555  -2.204   0.000  0.00  0.00    +0.000 NA
ATOM     32  C   UNL     1       3.371  -2.081   0.000  0.00  0.00    +0.000 C 
ATOM     33  C   UNL     1       3.885  -2.726   0.000  0.00  0.00    +0.000 C 
ATOM     34  N   UNL     1       3.584  -3.494   0.000  0.00  0.00    +0.000 NA
ATOM     35  C   UNL     1       2.768  -3.617   0.000  0.00  0.00    +0.000 C 
ATOM     36  C   UNL     1       2.254  -2.972   0.000  0.00  0.00    +0.000 C 
BRANCH  34  37
ATOM     37  C   UNL     1       4.098  -4.139   0.000  0.00  0.00    +0.000 C 
BRANCH  37  38
ATOM     38  C   UNL     1       4.914  -4.016   0.000  0.00  0.00    +0.000 C 
ATOM     39  O   UNL     1       5.215  -3.248   0.000  0.00  0.00    +0.000 OA
ENDBRANCH  37  38
ENDBRANCH  34  37
ENDBRANCH  10  31
BRANCH   6  40
ATOM     40  O   UNL     1      -0.123   0.834   0.000  0.00  0.00    +0.000 OA
ATOM     41  C   UNL     1      -0.837   1.247   0.000  0.00  0.00    +0.000 C 
ENDBRANCH   6  40
TORSDOF 8
