REMARK  Name = 
REMARK  1 active torsions:
REMARK  status: ('A' for Active; 'I' for Inactive)
REMARK    1  A    between atoms: N_1  and  C_2
REMARK                            x       y       z     vdW  Elec       q    Type
REMARK                         _______ _______ _______ _____ _____    ______ ____
ROOT
ATOM      1  N   UNL     1      -0.361  -0.611   0.000  0.00  0.00    +0.000 N 
ATOM      2  C   UNL     1       0.305  -1.075   0.000  0.00  0.00    +0.000 A 
ATOM      3  N   UNL     1      -1.019  -1.075   0.000  0.00  0.00    +0.000 NA
ATOM      4  N   UNL     1       0.050  -1.866   0.000  0.00  0.00    +0.000 NA
ATOM      5  N   UNL     1       1.092  -0.815   0.000  0.00  0.00    +0.000 NA
ATOM      6  N   UNL     1      -0.783  -1.866   0.000  0.00  0.00    +0.000 NA
ENDROOT
BRANCH   1   7
ATOM      7  C   UNL     1      -0.361   0.211   0.000  0.00  0.00    +0.000 A 
ATOM      8  C   UNL     1       0.364   0.633   0.000  0.00  0.00    +0.000 A 
ATOM      9  C   UNL     1      -1.075   0.633   0.000  0.00  0.00    +0.000 A 
ATOM     10  C   UNL     1       0.336   1.450   0.000  0.00  0.00    +0.000 A 
ATOM     11  C   UNL     1      -1.092   1.450   0.000  0.00  0.00    +0.000 A 
ATOM     12  C   UNL     1      -0.361   1.866   0.000  0.00  0.00    +0.000 A 
ENDBRANCH   1   7
TORSDOF 1
