REMARK  Name = 
REMARK  4 active torsions:
REMARK  status: ('A' for Active; 'I' for Inactive)
REMARK    1  A    between atoms: C_10  and  C_11
REMARK    2  A    between atoms: C_10  and  C_12
REMARK    3  A    between atoms: C_21  and  C_25
REMARK    4  A    between atoms: C_22  and  C_26
REMARK                            x       y       z     vdW  Elec       q    Type
REMARK                         _______ _______ _______ _____ _____    ______ ____
ROOT
ATOM      1 ZN   UNL     1      -0.092   0.038   0.000  0.00  0.00    +0.000 Zn
ENDROOT
TORSDOF 0
REMARK  Name = 
REMARK  4 active torsions:
REMARK  status: ('A' for Active; 'I' for Inactive)
REMARK    1  A    between atoms: C_10  and  C_11
REMARK    2  A    between atoms: C_10  and  C_12
REMARK    3  A    between atoms: C_21  and  C_25
REMARK    4  A    between atoms: C_22  and  C_26
REMARK                            x       y       z     vdW  Elec       q    Type
REMARK                         _______ _______ _______ _____ _____    ______ ____
ROOT
ATOM      1  C   UNL     1      -1.472   0.835   0.000  0.00  0.00    +0.000 C 
ENDROOT
BRANCH   1   4
ATOM      2  N   UNL     1      -0.782  -0.360   0.000  0.00  0.00    +0.000 NA
ATOM      3  N   UNL     1      -2.059  -0.493   0.000  0.00  0.00    +0.000 NA
ATOM      4  C   UNL     1      -1.472   0.038   0.000  0.00  0.00    +0.000 A 
ATOM      5  C   UNL     1      -0.949  -1.135   0.000  0.00  0.00    +0.000 A 
ATOM      6  C   UNL     1      -1.737  -1.217   0.000  0.00  0.00    +0.000 A 
ATOM      7  C   UNL     1      -0.454  -1.795   0.000  0.00  0.00    +0.000 A 
ATOM      8  C   UNL     1      -2.084  -1.965   0.000  0.00  0.00    +0.000 A 
ATOM      9  C   UNL     1      -1.605  -2.636   0.000  0.00  0.00    +0.000 A 
ATOM     10  C   UNL     1      -0.785  -2.551   0.000  0.00  0.00    +0.000 A 
BRANCH   9  13
ATOM     11  N   UNL     1      -2.726  -3.442   0.000  0.00  0.00    +0.000 NA
ATOM     12  N   UNL     1      -1.468  -4.010   0.000  0.00  0.00    +0.000 NA
ATOM     13  C   UNL     1      -1.933  -3.363   0.000  0.00  0.00    +0.000 C 
ENDBRANCH   9  13
ENDBRANCH   1   4
BRANCH   1  16
ATOM     14  N   UNL     1      -0.092   0.835   0.000  0.00  0.00    +0.000 NA
ATOM     15  N   UNL     1      -0.616   2.008   0.000  0.00  0.00    +0.000 NA
ATOM     16  C   UNL     1      -0.782   1.233   0.000  0.00  0.00    +0.000 A 
ATOM     17  C   UNL     1       0.495   1.366   0.000  0.00  0.00    +0.000 A 
ATOM     18  C   UNL     1       0.172   2.090   0.000  0.00  0.00    +0.000 A 
ATOM     19  C   UNL     1       1.314   1.268   0.000  0.00  0.00    +0.000 A 
ATOM     20  C   UNL     1       0.646   2.765   0.000  0.00  0.00    +0.000 A 
ATOM     21  C   UNL     1       1.468   2.686   0.000  0.00  0.00    +0.000 A 
ATOM     22  C   UNL     1       1.804   1.932   0.000  0.00  0.00    +0.000 A 
BRANCH  21  25
ATOM     23  N   UNL     1       1.605   4.059   0.000  0.00  0.00    +0.000 NA
ATOM     24  N   UNL     1       2.726   3.253   0.000  0.00  0.00    +0.000 NA
ATOM     25  C   UNL     1       1.933   3.333   0.000  0.00  0.00    +0.000 C 
ENDBRANCH  21  25
ENDBRANCH   1  16
TORSDOF 4
