REMARK  Name = 
REMARK  7 active torsions:
REMARK  status: ('A' for Active; 'I' for Inactive)
REMARK    1  A    between atoms: C_3  and  N_29
REMARK    2  A    between atoms: C_5  and  N_8
REMARK    3  A    between atoms: C_9  and  C_11
REMARK    4  A    between atoms: C_14  and  C_21
REMARK    5  A    between atoms: C_15  and  C_17
REMARK    6  A    between atoms: C_21  and  N_22
REMARK    7  A    between atoms: C_34  and  C_36
REMARK                            x       y       z     vdW  Elec       q    Type
REMARK                         _______ _______ _______ _____ _____    ______ ____
ROOT
ATOM      1  N   UNL     1       2.143  -6.188   0.000  0.00  0.00    +0.000 NA
ATOM      2  C   UNL     1       1.429  -6.600   0.000  0.00  0.00    +0.000 C 
ATOM      3  O   UNL     1       0.715  -6.188   0.000  0.00  0.00    +0.000 OA
ENDROOT
BRANCH   1   8
ATOM      4  C   UNL     1       2.143  -2.888   0.000  0.00  0.00    +0.000 C 
ATOM      5  C   UNL     1       2.143  -3.712   0.000  0.00  0.00    +0.000 A 
ATOM      6  C   UNL     1       2.858  -4.125   0.000  0.00  0.00    +0.000 A 
ATOM      7  C   UNL     1       2.858  -4.950   0.000  0.00  0.00    +0.000 A 
ATOM      8  C   UNL     1       2.143  -5.362   0.000  0.00  0.00    +0.000 A 
ATOM      9  C   UNL     1       1.429  -4.950   0.000  0.00  0.00    +0.000 A 
ATOM     10  N   UNL     1       1.429  -4.125   0.000  0.00  0.00    +0.000 NA
BRANCH   6  11
ATOM     11  N   UNL     1       3.572  -3.712   0.000  0.00  0.00    +0.000 NA
ATOM     12  C   UNL     1       3.572  -2.888   0.000  0.00  0.00    +0.000 A 
ATOM     13  N   UNL     1       2.858  -2.475   0.000  0.00  0.00    +0.000 NA
ATOM     14  C   UNL     1       2.858  -1.650   0.000  0.00  0.00    +0.000 A 
ATOM     15  C   UNL     1       3.572  -1.238   0.000  0.00  0.00    +0.000 A 
ATOM     16  C   UNL     1       4.287  -1.650   0.000  0.00  0.00    +0.000 A 
ATOM     17  N   UNL     1       4.287  -2.475   0.000  0.00  0.00    +0.000 NA
BRANCH  16  18
ATOM     18  C   UNL     1       5.001  -1.238   0.000  0.00  0.00    +0.000 A 
ATOM     19  C   UNL     1       5.001  -0.412   0.000  0.00  0.00    +0.000 A 
ATOM     20  C   UNL     1       5.716   0.000   0.000  0.00  0.00    +0.000 A 
ATOM     21  C   UNL     1       6.430  -0.412   0.000  0.00  0.00    +0.000 A 
ATOM     22  N   UNL     1       6.430  -1.238   0.000  0.00  0.00    +0.000 NA
ATOM     23  C   UNL     1       5.716  -1.650   0.000  0.00  0.00    +0.000 A 
ENDBRANCH  16  18
ENDBRANCH   6  11
ENDBRANCH   1   8
BRANCH   2  24
ATOM     24  C   UNL     1       1.429  -7.425   0.000  0.00  0.00    +0.000 A 
ATOM     25  C   UNL     1       2.143  -7.838   0.000  0.00  0.00    +0.000 A 
ATOM     26  C   UNL     1       2.143  -8.662   0.000  0.00  0.00    +0.000 A 
ATOM     27  C   UNL     1       1.429  -9.075   0.000  0.00  0.00    +0.000 A 
ATOM     28  C   UNL     1       0.715  -8.662   0.000  0.00  0.00    +0.000 A 
ATOM     29  C   UNL     1       0.715  -7.838   0.000  0.00  0.00    +0.000 A 
BRANCH  28  30
ATOM     30  C   UNL     1       0.000  -9.075   0.000  0.00  0.00    +0.000 C 
ATOM     31  F   UNL     1      -0.715  -9.488   0.000  0.00  0.00    +0.000 F 
ATOM     32  F   UNL     1      -0.412  -8.361   0.000  0.00  0.00    +0.000 F 
ATOM     33  F   UNL     1       0.412  -9.790   0.000  0.00  0.00    +0.000 F 
ENDBRANCH  28  30
BRANCH  27  34
ATOM     34  C   UNL     1       1.429  -9.900   0.000  0.00  0.00    +0.000 C 
BRANCH  34  35
ATOM     35  N   UNL     1       2.143 -10.312   0.000  0.00  0.00    +0.000 NA
ATOM     36  C   UNL     1       2.858  -9.900   0.000  0.00  0.00    +0.000 C 
ATOM     37  C   UNL     1       3.572 -10.312   0.000  0.00  0.00    +0.000 C 
ATOM     38  N   UNL     1       3.572 -11.137   0.000  0.00  0.00    +0.000 NA
ATOM     39  C   UNL     1       2.858 -11.550   0.000  0.00  0.00    +0.000 C 
ATOM     40  C   UNL     1       2.143 -11.137   0.000  0.00  0.00    +0.000 C 
ATOM     41  C   UNL     1       4.287 -11.550   0.000  0.00  0.00    +0.000 C 
ENDBRANCH  34  35
ENDBRANCH  27  34
ENDBRANCH   2  24
TORSDOF 7
