REMARK  Name = 
REMARK  2 active torsions:
REMARK  status: ('A' for Active; 'I' for Inactive)
REMARK    1  A    between atoms: O_6  and  C_13
REMARK    2  A    between atoms: C_15  and  C_17
REMARK                            x       y       z     vdW  Elec       q    Type
REMARK                         _______ _______ _______ _____ _____    ______ ____
ROOT
ATOM      1  O   UNL     1      -1.005   0.825   0.000  0.00  0.00    +0.000 OA
ATOM      2  O   UNL     1       0.447  -0.854   0.000  0.00  0.00    +0.000 OA
ATOM      3  O   UNL     1       1.194   0.430   0.000  0.00  0.00    +0.000 OA
ATOM      4  O   UNL     1      -1.005  -1.650   0.000  0.00  0.00    +0.000 OA
ATOM      5  O   UNL     1      -2.434  -0.825   0.000  0.00  0.00    +0.000 OA
ATOM      6  C   UNL     1      -0.291  -0.412   0.000  0.00  0.00    +0.000 C 
ATOM      7  C   UNL     1      -0.291   0.412   0.000  0.00  0.00    +0.000 C 
ATOM      8  C   UNL     1      -1.005  -0.825   0.000  0.00  0.00    +0.000 C 
ATOM      9  C   UNL     1      -1.720  -0.412   0.000  0.00  0.00    +0.000 C 
ATOM     10  C   UNL     1      -1.720   0.412   0.000  0.00  0.00    +0.000 C 
ATOM     11  C   UNL     1       0.447   0.854   0.000  0.00  0.00    +0.000 C 
ATOM     12  C   UNL     1       1.194  -0.430   0.000  0.00  0.00    +0.000 C 
ATOM     13  C   UNL     1       1.604  -1.146   0.000  0.00  0.00    +0.000 C 
ENDROOT
BRANCH  12  16
ATOM     14  O   UNL     1       2.434   0.280   0.000  0.00  0.00    +0.000 OA
ATOM     15  O   UNL     1       2.429  -1.149   0.000  0.00  0.00    +0.000 OA
ATOM     16  C   UNL     1       2.019  -0.433   0.000  0.00  0.00    +0.000 C 
ENDBRANCH  12  16
BRANCH  10  17
ATOM     17  O   UNL     1      -2.434   0.825   0.000  0.00  0.00    +0.000 OA
ATOM     18  C   UNL     1      -2.434   1.650   0.000  0.00  0.00    +0.000 C 
ENDBRANCH  10  17
TORSDOF 2
