REMARK  Name = 
REMARK  1 active torsions:
REMARK  status: ('A' for Active; 'I' for Inactive)
REMARK    1  A    between atoms: C_2  and  C_4
REMARK                            x       y       z     vdW  Elec       q    Type
REMARK                         _______ _______ _______ _____ _____    ______ ____
ROOT
ATOM      1  C   UNL     1       1.368  -1.935   0.000  0.00  0.00    +0.000 A 
ATOM      2  O   UNL     1       1.853  -1.268   0.000  0.00  0.00    +0.000 OA
ATOM      3  C   UNL     1       2.638  -1.523   0.000  0.00  0.00    +0.000 A 
ATOM      4  C   UNL     1       3.352  -1.110   0.000  0.00  0.00    +0.000 C 
ATOM      5  O   UNL     1       3.352  -0.285   0.000  0.00  0.00    +0.000 OA
ATOM      6  C   UNL     1       4.067  -1.523   0.000  0.00  0.00    +0.000 A 
ATOM      7  C   UNL     1       4.781  -1.110   0.000  0.00  0.00    +0.000 A 
ATOM      8  C   UNL     1       5.496  -1.523   0.000  0.00  0.00    +0.000 A 
ATOM      9  C   UNL     1       5.496  -2.348   0.000  0.00  0.00    +0.000 A 
ATOM     10  C   UNL     1       4.781  -2.760   0.000  0.00  0.00    +0.000 A 
ATOM     11  C   UNL     1       4.067  -2.348   0.000  0.00  0.00    +0.000 A 
ATOM     12  C   UNL     1       3.352  -2.760   0.000  0.00  0.00    +0.000 C 
ATOM     13  O   UNL     1       3.352  -3.585   0.000  0.00  0.00    +0.000 OA
ATOM     14  C   UNL     1       2.638  -2.348   0.000  0.00  0.00    +0.000 A 
ATOM     15  C   UNL     1       1.853  -2.603   0.000  0.00  0.00    +0.000 A 
ENDROOT
BRANCH   1  17
ATOM     16  C   UNL     1       0.131  -2.650   0.000  0.00  0.00    +0.000 C 
ATOM     17  C   UNL     1       0.543  -1.935   0.000  0.00  0.00    +0.000 C 
ATOM     18  O   UNL     1       0.131  -1.221   0.000  0.00  0.00    +0.000 OA
ENDBRANCH   1  17
TORSDOF 1
