REMARK  Name = 
REMARK  0 active torsions:
REMARK  status: ('A' for Active; 'I' for Inactive)
REMARK                            x       y       z     vdW  Elec       q    Type
REMARK                         _______ _______ _______ _____ _____    ______ ____
ROOT
ATOM      1  C   UNL     1       0.512  -0.867   0.000  0.00  0.00    +0.000 C 
ATOM      2  C   UNL     1       0.793  -0.091   0.000  0.00  0.00    +0.000 C 
ATOM      3  C   UNL     1       1.325  -0.722   0.000  0.00  0.00    +0.000 C 
ATOM      4  C   UNL     1       2.137  -0.576   0.000  0.00  0.00    +0.000 C 
ATOM      5  C   UNL     1       2.417   0.200   0.000  0.00  0.00    +0.000 C 
ATOM      6  C   UNL     1       1.885   0.830   0.000  0.00  0.00    +0.000 C 
ATOM      7  C   UNL     1       1.073   0.685   0.000  0.00  0.00    +0.000 C 
ATOM      8  C   UNL     1       0.541   1.316   0.000  0.00  0.00    +0.000 C 
ATOM      9  C   UNL     1      -0.271   1.171   0.000  0.00  0.00    +0.000 C 
ATOM     10  C   UNL     1      -0.551   0.395   0.000  0.00  0.00    +0.000 C 
ATOM     11  C   UNL     1      -0.019  -0.236   0.000  0.00  0.00    +0.000 C 
ATOM     12  C   UNL     1      -0.300  -1.012   0.000  0.00  0.00    +0.000 C 
ATOM     13  C   UNL     1      -1.112  -1.157   0.000  0.00  0.00    +0.000 C 
ATOM     14  C   UNL     1      -1.644  -0.526   0.000  0.00  0.00    +0.000 C 
ATOM     15  C   UNL     1      -1.363   0.249   0.000  0.00  0.00    +0.000 C 
ATOM     16  C   UNL     1      -2.015   0.756   0.000  0.00  0.00    +0.000 C 
ATOM     17  C   UNL     1      -2.697   0.293   0.000  0.00  0.00    +0.000 C 
ATOM     18  C   UNL     1      -2.468  -0.500   0.000  0.00  0.00    +0.000 C 
ATOM     19  C   UNL     1      -3.229  -0.819   0.000  0.00  0.00    +0.000 C 
ATOM     20  O   UNL     1      -2.590  -1.316   0.000  0.00  0.00    +0.000 OA
ATOM     21  C   UNL     1      -2.003  -1.269   0.000  0.00  0.00    +0.000 C 
ATOM     22  O   UNL     1       3.229   0.345   0.000  0.00  0.00    +0.000 OA
ENDROOT
TORSDOF 0
