REMARK  Name = 
REMARK  1 active torsions:
REMARK  status: ('A' for Active; 'I' for Inactive)
REMARK    1  A    between atoms: CA_3  and  C_13
REMARK                            x       y       z     vdW  Elec       q    Type
REMARK                         _______ _______ _______ _____ _____    ______ ____
ROOT
ATOM      1  N   UNL     1       0.714  -1.238   0.000  0.00  0.00    +0.000 NA
ATOM      2  C   UNL     1       1.429  -0.825   0.000  0.00  0.00    +0.000 A 
ATOM      3  CA  UNL     1       1.429   0.000   0.000  0.00  0.00    +0.000 A 
ATOM      4  N   UNL     1       0.715   0.412   0.000  0.00  0.00    +0.000 NA
ATOM      5  C   UNL     1       0.000   0.000   0.000  0.00  0.00    +0.000 A 
ATOM      6  C   UNL     1       0.000  -0.825   0.000  0.00  0.00    +0.000 A 
ATOM      7  N   UNL     1      -0.715  -1.238   0.000  0.00  0.00    +0.000 NA
ATOM      8  C   UNL     1      -1.429  -0.825   0.000  0.00  0.00    +0.000 A 
ATOM      9  N   UNL     1      -1.429   0.000   0.000  0.00  0.00    +0.000 NA
ATOM     10  C   UNL     1      -0.715   0.413   0.000  0.00  0.00    +0.000 A 
ATOM     11  O   UNL     1      -0.714   1.238   0.000  0.00  0.00    +0.000 OA
ATOM     12  N   UNL     1      -2.144  -1.237   0.000  0.00  0.00    +0.000 NA
ENDROOT
BRANCH   3  13
ATOM     13  C   UNL     1       2.144   0.412   0.000  0.00  0.00    +0.000 C 
ATOM     14  O   UNL     1       2.144   1.237   0.000  0.00  0.00    +0.000 OA
ENDBRANCH   3  13
TORSDOF 1
