REMARK  Name = 
REMARK  4 active torsions:
REMARK  status: ('A' for Active; 'I' for Inactive)
REMARK    1  A    between atoms: N_2  and  C_3
REMARK    2  A    between atoms: N_2  and  C_6
REMARK    3  A    between atoms: C_3  and  C_4
REMARK    4  A    between atoms: C_4  and  C_7
REMARK                            x       y       z     vdW  Elec       q    Type
REMARK                         _______ _______ _______ _____ _____    ______ ____
ROOT
ATOM      1  O   UNL     1      -1.072   0.412   0.000  0.00  0.00    +0.000 OA
ATOM      2  C   UNL     1      -0.357   0.000   0.000  0.00  0.00    +0.000 C 
ENDROOT
BRANCH   2   3
ATOM      3  C   UNL     1      -0.357  -0.825   0.000  0.00  0.00    +0.000 A 
ATOM      4  C   UNL     1       0.357  -1.238   0.000  0.00  0.00    +0.000 A 
ATOM      5  C   UNL     1      -1.072  -1.238   0.000  0.00  0.00    +0.000 A 
ATOM      6  C   UNL     1       0.357  -2.062   0.000  0.00  0.00    +0.000 A 
ATOM      7  C   UNL     1      -1.072  -2.062   0.000  0.00  0.00    +0.000 A 
ATOM      8  C   UNL     1      -0.357  -2.475   0.000  0.00  0.00    +0.000 A 
ENDBRANCH   2   3
BRANCH   2   9
ATOM      9  C   UNL     1       0.357   0.412   0.000  0.00  0.00    +0.000 C 
ATOM     10  C   UNL     1       1.072   0.000   0.000  0.00  0.00    +0.000 C 
BRANCH   9  11
ATOM     11  N   UNL     1       0.357   1.238   0.000  0.00  0.00    +0.000 NA
ATOM     12  C   UNL     1      -0.357   1.650   0.000  0.00  0.00    +0.000 C 
BRANCH  11  13
ATOM     13  C   UNL     1       1.072   1.650   0.000  0.00  0.00    +0.000 C 
ATOM     14  C   UNL     1       1.072   2.475   0.000  0.00  0.00    +0.000 C 
ENDBRANCH  11  13
ENDBRANCH   9  11
ENDBRANCH   2   9
TORSDOF 4
