REMARK  Name = 
REMARK  1 active torsions:
REMARK  status: ('A' for Active; 'I' for Inactive)
REMARK    1  A    between atoms: C_1  and  C_4
REMARK                            x       y       z     vdW  Elec       q    Type
REMARK                         _______ _______ _______ _____ _____    ______ ____
ROOT
ATOM      1  C   UNL     1       0.336  -0.004   0.000  0.00  0.00    +0.000 C 
ATOM      2  C   UNL     1      -0.373   0.405   0.000  0.00  0.00    +0.000 C 
ATOM      3  C   UNL     1       0.342  -0.823   0.000  0.00  0.00    +0.000 C 
ATOM      4  C   UNL     1      -1.085   0.001   0.000  0.00  0.00    +0.000 C 
ATOM      5  O   UNL     1      -0.373   1.234   0.000  0.00  0.00    +0.000 OA
ATOM      6  C   UNL     1      -0.374  -1.234   0.000  0.00  0.00    +0.000 C 
ATOM      7  C   UNL     1      -1.083  -0.824   0.000  0.00  0.00    +0.000 C 
ATOM      8  C   UNL     1      -1.801  -1.240   0.000  0.00  0.00    +0.000 C 
ENDROOT
BRANCH   1   9
ATOM      9  C   UNL     1       1.053   0.410   0.000  0.00  0.00    +0.000 C 
ATOM     10  C   UNL     1       1.801   0.068   0.000  0.00  0.00    +0.000 C 
ATOM     11  C   UNL     1       1.131   1.240   0.000  0.00  0.00    +0.000 C 
ENDBRANCH   1   9
TORSDOF 1
