REMARK  Name = 
REMARK  5 active torsions:
REMARK  status: ('A' for Active; 'I' for Inactive)
REMARK    1  A    between atoms: CA_3  and  N_4
REMARK    2  A    between atoms: C_5  and  C_6
REMARK    3  A    between atoms: C_6  and  S_7
REMARK    4  A    between atoms: C_6  and  C_11
REMARK    5  A    between atoms: CA_22  and  C_23
REMARK                            x       y       z     vdW  Elec       q    Type
REMARK                         _______ _______ _______ _____ _____    ______ ____
ROOT
ATOM      1  N   UNL     1      -0.025   0.329   0.000  0.00  0.00    +0.000 NA
ATOM      2  C   UNL     1      -0.744   0.742   0.000  0.00  0.00    +0.000 C 
ATOM      3  O   UNL     1      -0.744   1.566   0.000  0.00  0.00    +0.000 OA
ENDROOT
BRANCH   1   6
ATOM      4  N   UNL     1       1.624  -0.496   0.000  0.00  0.00    +0.000 N 
ATOM      5  C   UNL     1       1.624   0.329   0.000  0.00  0.00    +0.000 C 
ATOM      6  CA  UNL     1       0.799   0.329   0.000  0.00  0.00    +0.000 C 
ATOM      7  C   UNL     1       0.799  -0.496   0.000  0.00  0.00    +0.000 C 
ATOM      8  O   UNL     1       0.215  -1.084   0.000  0.00  0.00    +0.000 OA
ATOM      9  S   UNL     1       2.408   0.588   0.000  0.00  0.00    +0.000 S 
ATOM     10  C   UNL     1       2.899  -0.079   0.000  0.00  0.00    +0.000 C 
ATOM     11  CA  UNL     1       2.417  -0.751   0.000  0.00  0.00    +0.000 C 
ATOM     12  C   UNL     1       3.612   0.338   0.000  0.00  0.00    +0.000 C 
ATOM     13  C   UNL     1       3.612  -0.486   0.000  0.00  0.00    +0.000 C 
BRANCH  11  14
ATOM     14  C   UNL     1       2.417  -1.576   0.000  0.00  0.00    +0.000 C 
ATOM     15  O   UNL     1       3.126  -1.988   0.000  0.00  0.00    +0.000 OA
ATOM     16  OXT UNL     1       1.694  -1.988   0.000  0.00  0.00    +0.000 OA
ENDBRANCH  11  14
ENDBRANCH   1   6
BRANCH   2  17
ATOM     17  C   UNL     1      -1.462   0.338   0.000  0.00  0.00    +0.000 C 
BRANCH  17  18
ATOM     18  C   UNL     1      -2.180   0.751   0.000  0.00  0.00    +0.000 A 
ATOM     19  C   UNL     1      -2.180   1.576   0.000  0.00  0.00    +0.000 A 
ATOM     20  C   UNL     1      -2.899   1.988   0.000  0.00  0.00    +0.000 A 
ATOM     21  C   UNL     1      -3.612   1.576   0.000  0.00  0.00    +0.000 A 
ATOM     22  C   UNL     1      -3.612   0.742   0.000  0.00  0.00    +0.000 A 
ATOM     23  C   UNL     1      -2.894   0.334   0.000  0.00  0.00    +0.000 A 
ENDBRANCH  17  18
BRANCH  17  24
ATOM     24  S   UNL     1      -1.462  -0.486   0.000  0.00  0.00    +0.000 S 
ATOM     25  O   UNL     1      -1.462  -1.316   0.000  0.00  0.00    +0.000 OA
ATOM     26  O   UNL     1      -0.633  -0.486   0.000  0.00  0.00    +0.000 OA
ATOM     27  O   UNL     1      -2.282  -0.486   0.000  0.00  0.00    +0.000 OA
ENDBRANCH  17  24
ENDBRANCH   2  17
TORSDOF 5
