REMARK  Name = 
REMARK  6 active torsions:
REMARK  status: ('A' for Active; 'I' for Inactive)
REMARK    1  A    between atoms: N_5  and  CA_9
REMARK    2  A    between atoms: N_7  and  C_17
REMARK    3  A    between atoms: CA_9  and  C_10
REMARK    4  A    between atoms: CA_9  and  C_13
REMARK    5  A    between atoms: C_11  and  C_14
REMARK    6  A    between atoms: CA_12  and  C_15
REMARK                            x       y       z     vdW  Elec       q    Type
REMARK                         _______ _______ _______ _____ _____    ______ ____
ROOT
ATOM      1  N   UNL     1       1.738   1.157   0.000  0.00  0.00    +0.000 N 
ATOM      2  C   UNL     1       1.328  -0.115   0.000  0.00  0.00    +0.000 A 
ATOM      3  CA  UNL     1       0.918   1.157   0.000  0.00  0.00    +0.000 A 
ATOM      4  C   UNL     1       0.662   0.371   0.000  0.00  0.00    +0.000 A 
ATOM      5  C   UNL     1       1.994   0.371   0.000  0.00  0.00    +0.000 A 
ATOM      6  H   UNL     1       2.037   1.567   0.000  0.00  0.00    +0.000 HD
ENDROOT
BRANCH   2  10
ATOM      7 CL   UNL     1      -0.098  -0.935   0.000  0.00  0.00    +0.000 Cl
ATOM      8  N   UNL     1       2.754  -2.583   0.000  0.00  0.00    +0.000 N 
ATOM      9  N   UNL     1       1.328  -2.583   0.000  0.00  0.00    +0.000 NA
ATOM     10  C   UNL     1       1.328  -0.935   0.000  0.00  0.00    +0.000 A 
ATOM     11  C   UNL     1       2.045  -2.174   0.000  0.00  0.00    +0.000 A 
ATOM     12  C   UNL     1       2.045  -1.345   0.000  0.00  0.00    +0.000 A 
ATOM     13  C   UNL     1       0.619  -1.345   0.000  0.00  0.00    +0.000 A 
ATOM     14  C   UNL     1       0.619  -2.174   0.000  0.00  0.00    +0.000 A 
ATOM     15  H   UNL     1       3.198  -2.327   0.000  0.00  0.00    +0.000 HD
BRANCH   8  16
ATOM     16  C   UNL     1       2.754  -3.403   0.000  0.00  0.00    +0.000 C 
ATOM     17  C   UNL     1       3.472  -3.813   0.000  0.00  0.00    +0.000 C 
ATOM     18  C   UNL     1       2.045  -3.813   0.000  0.00  0.00    +0.000 C 
ENDBRANCH   8  16
ENDBRANCH   2  10
BRANCH   3  21
ATOM     19  O   UNL     1       0.773   2.575   0.000  0.00  0.00    +0.000 OA
ATOM     20  N   UNL     1      -0.380   1.729   0.000  0.00  0.00    +0.000 N 
ATOM     21  C   UNL     1       0.431   1.823   0.000  0.00  0.00    +0.000 C 
ATOM     22  H   UNL     1      -0.594   1.268   0.000  0.00  0.00    +0.000 HD
BRANCH  20  23
ATOM     23  CA  UNL     1      -0.867   2.396   0.000  0.00  0.00    +0.000 C 
BRANCH  23  25
ATOM     24 CL   UNL     1      -3.472   3.557   0.000  0.00  0.00    +0.000 Cl
ATOM     25  C   UNL     1      -1.687   2.310   0.000  0.00  0.00    +0.000 A 
ATOM     26  C   UNL     1      -2.174   2.976   0.000  0.00  0.00    +0.000 A 
ATOM     27  C   UNL     1      -2.020   1.559   0.000  0.00  0.00    +0.000 A 
ATOM     28  C   UNL     1      -2.985   2.891   0.000  0.00  0.00    +0.000 A 
ATOM     29  C   UNL     1      -2.840   1.473   0.000  0.00  0.00    +0.000 A 
ATOM     30  C   UNL     1      -3.326   2.139   0.000  0.00  0.00    +0.000 A 
ENDBRANCH  23  25
BRANCH  23  32
ATOM     31  O   UNL     1      -1.021   3.813   0.000  0.00  0.00    +0.000 OA
ATOM     32  C   UNL     1      -0.534   3.147   0.000  0.00  0.00    +0.000 C 
ENDBRANCH  23  32
ENDBRANCH  20  23
ENDBRANCH   3  21
TORSDOF 6
