REMARK  Name = 
REMARK  5 active torsions:
REMARK  status: ('A' for Active; 'I' for Inactive)
REMARK    1  A    between atoms: C_2  and  C_3
REMARK    2  A    between atoms: C_2  and  C_10
REMARK    3  A    between atoms: C_2  and  N_16
REMARK    4  A    between atoms: C_3  and  C_4
REMARK    5  A    between atoms: C_17  and  C_19
REMARK                            x       y       z     vdW  Elec       q    Type
REMARK                         _______ _______ _______ _____ _____    ______ ____
ROOT
ATOM      1  C   UNL     1      -1.841  -1.540   0.000  0.00  0.00    +0.000 C 
ATOM      2  C   UNL     1      -1.429  -0.825   0.000  0.00  0.00    +0.000 C 
ENDROOT
BRANCH   2   3
ATOM      3  C   UNL     1      -2.143  -0.412   0.000  0.00  0.00    +0.000 A 
ATOM      4  C   UNL     1      -2.858  -0.825   0.000  0.00  0.00    +0.000 A 
ATOM      5  C   UNL     1      -3.572  -0.412   0.000  0.00  0.00    +0.000 A 
ATOM      6  C   UNL     1      -3.572   0.412   0.000  0.00  0.00    +0.000 A 
ATOM      7  C   UNL     1      -2.858   0.825   0.000  0.00  0.00    +0.000 A 
ATOM      8  C   UNL     1      -2.143   0.412   0.000  0.00  0.00    +0.000 A 
ENDBRANCH   2   3
BRANCH   2   9
ATOM      9  N   UNL     1      -1.016  -0.111   0.000  0.00  0.00    +0.000 NA
ATOM     10  C   UNL     1      -0.191  -0.111   0.000  0.00  0.00    +0.000 C 
ATOM     11  O   UNL     1       0.221  -0.825   0.000  0.00  0.00    +0.000 OA
BRANCH  10  12
ATOM     12  C   UNL     1       0.221   0.604   0.000  0.00  0.00    +0.000 C 
ATOM     13  N   UNL     1       1.046   0.604   0.000  0.00  0.00    +0.000 NA
ENDBRANCH  10  12
ENDBRANCH   2   9
BRANCH   2  14
ATOM     14  C   UNL     1      -0.715  -1.238   0.000  0.00  0.00    +0.000 C 
BRANCH  14  15
ATOM     15  C   UNL     1      -0.715  -2.062   0.000  0.00  0.00    +0.000 A 
ATOM     16  C   UNL     1       0.000  -2.475   0.000  0.00  0.00    +0.000 A 
ATOM     17  C   UNL     1       0.000  -3.300   0.000  0.00  0.00    +0.000 A 
ATOM     18  C   UNL     1      -0.715  -3.712   0.000  0.00  0.00    +0.000 A 
ATOM     19  C   UNL     1      -1.429  -3.300   0.000  0.00  0.00    +0.000 A 
ATOM     20  C   UNL     1      -1.429  -2.475   0.000  0.00  0.00    +0.000 A 
ENDBRANCH  14  15
ENDBRANCH   2  14
TORSDOF 5
