REMARK  Name = 
REMARK  2 active torsions:
REMARK  status: ('A' for Active; 'I' for Inactive)
REMARK    1  A    between atoms: N_9  and  C_19
REMARK    2  A    between atoms: C_13  and  C_17
REMARK                            x       y       z     vdW  Elec       q    Type
REMARK                         _______ _______ _______ _____ _____    ______ ____
ROOT
ATOM      1 CL   UNL     1      -3.191   0.921   0.000  0.00  0.00    +0.000 Cl
ATOM      2  S   UNL     1      -0.382   1.746   0.000  0.00  0.00    +0.000 S 
ATOM      3  S   UNL     1      -1.881   0.254   0.000  0.00  0.00    +0.000 S 
ATOM      4  O   UNL     1       0.149   2.378   0.000  0.00  0.00    +0.000 OA
ATOM      5  O   UNL     1      -0.912   2.378   0.000  0.00  0.00    +0.000 OA
ATOM      6  O   UNL     1      -0.382  -0.729   0.000  0.00  0.00    +0.000 OA
ATOM      7  N   UNL     1       0.333   1.334   0.000  0.00  0.00    +0.000 N 
ATOM      8  C   UNL     1      -1.096   1.334   0.000  0.00  0.00    +0.000 A 
ATOM      9  C   UNL     1      -1.096   0.509   0.000  0.00  0.00    +0.000 A 
ATOM     10  C   UNL     1       0.333   0.509   0.000  0.00  0.00    +0.000 C 
ATOM     11  C   UNL     1      -0.382   0.096   0.000  0.00  0.00    +0.000 C 
ATOM     12  C   UNL     1      -1.881   1.589   0.000  0.00  0.00    +0.000 A 
ATOM     13  C   UNL     1      -2.366   0.921   0.000  0.00  0.00    +0.000 A 
ATOM     14  C   UNL     1       1.047   1.746   0.000  0.00  0.00    +0.000 C 
ENDROOT
BRANCH  10  17
ATOM     15  O   UNL     1       1.762   0.509   0.000  0.00  0.00    +0.000 OA
ATOM     16  N   UNL     1       1.047  -0.729   0.000  0.00  0.00    +0.000 NA
ATOM     17  C   UNL     1       1.047   0.096   0.000  0.00  0.00    +0.000 C 
BRANCH  16  19
ATOM     18  N   UNL     1       1.762  -1.966   0.000  0.00  0.00    +0.000 NA
ATOM     19  C   UNL     1       1.762  -1.141   0.000  0.00  0.00    +0.000 A 
ATOM     20  C   UNL     1       2.476  -0.729   0.000  0.00  0.00    +0.000 A 
ATOM     21  C   UNL     1       2.476  -2.378   0.000  0.00  0.00    +0.000 A 
ATOM     22  C   UNL     1       3.191  -1.141   0.000  0.00  0.00    +0.000 A 
ATOM     23  C   UNL     1       3.191  -1.966   0.000  0.00  0.00    +0.000 A 
ENDBRANCH  16  19
ENDBRANCH  10  17
TORSDOF 2
