REMARK  Name = 
REMARK  1 active torsions:
REMARK  status: ('A' for Active; 'I' for Inactive)
REMARK    1  A    between atoms: C_6  and  O_15
REMARK                            x       y       z     vdW  Elec       q    Type
REMARK                         _______ _______ _______ _____ _____    ______ ____
ROOT
ATOM      1  C   UNL     1       0.057   0.583   0.000  0.00  0.00    +0.000 A 
ATOM      2  N   UNL     1      -0.659   1.006   0.000  0.00  0.00    +0.000 N 
ATOM      3  C   UNL     1      -1.367   0.583   0.000  0.00  0.00    +0.000 A 
ATOM      4  C   UNL     1      -1.367  -0.243   0.000  0.00  0.00    +0.000 A 
ATOM      5  C   UNL     1       0.057  -0.243   0.000  0.00  0.00    +0.000 A 
ATOM      6  C   UNL     1      -0.659  -0.648   0.000  0.00  0.00    +0.000 A 
ATOM      7  C   UNL     1       0.774   0.992   0.000  0.00  0.00    +0.000 A 
ATOM      8  C   UNL     1       0.769  -0.648   0.000  0.00  0.00    +0.000 A 
ATOM      9  C   UNL     1       1.477   0.583   0.000  0.00  0.00    +0.000 A 
ATOM     10  O   UNL     1       0.939   1.796   0.000  0.00  0.00    +0.000 OA
ATOM     11  O   UNL     1      -2.083   0.992   0.000  0.00  0.00    +0.000 OA
ATOM     12  O   UNL     1       2.083   1.130   0.000  0.00  0.00    +0.000 OA
ATOM     13  C   UNL     1       1.752   1.888   0.000  0.00  0.00    +0.000 C 
ATOM     14  C   UNL     1       1.490  -0.243   0.000  0.00  0.00    +0.000 A 
ATOM     15  C   UNL     1      -0.659   1.833   0.000  0.00  0.00    +0.000 C 
ENDROOT
BRANCH   6  16
ATOM     16  O   UNL     1      -0.659  -1.474   0.000  0.00  0.00    +0.000 OA
ATOM     17  C   UNL     1      -1.376  -1.888   0.000  0.00  0.00    +0.000 C 
ENDBRANCH   6  16
TORSDOF 1
