REMARK  Name = 
REMARK  6 active torsions:
REMARK  status: ('A' for Active; 'I' for Inactive)
REMARK    1  A    between atoms: C_2  and  C_3
REMARK    2  A    between atoms: C_12  and  C_15
REMARK    3  A    between atoms: C_17  and  C_20
REMARK    4  A    between atoms: C_20  and  O_21
REMARK    5  A    between atoms: O_21  and  C_22
REMARK    6  A    between atoms: C_25  and  N_28
REMARK                            x       y       z     vdW  Elec       q    Type
REMARK                         _______ _______ _______ _____ _____    ______ ____
ROOT
ATOM      1  C   UNL     1       1.429  -2.475   0.000  0.00  0.00    +0.000 A 
ATOM      2  N   UNL     1       2.096  -2.960   0.000  0.00  0.00    +0.000 NA
ATOM      3  C   UNL     1       1.841  -3.744   0.000  0.00  0.00    +0.000 A 
ATOM      4  C   UNL     1       1.016  -3.744   0.000  0.00  0.00    +0.000 A 
ATOM      5  S   UNL     1       0.761  -2.960   0.000  0.00  0.00    +0.000 S 
ENDROOT
BRANCH   1  15
ATOM      6  C   UNL     1       1.429   2.475   0.000  0.00  0.00    +0.000 A 
ATOM      7  C   UNL     1       2.143   2.062   0.000  0.00  0.00    +0.000 A 
ATOM      8  N   UNL     1       2.143   1.238   0.000  0.00  0.00    +0.000 NA
ATOM      9  C   UNL     1       1.429   0.825   0.000  0.00  0.00    +0.000 A 
ATOM     10  N   UNL     1       0.715   1.238   0.000  0.00  0.00    +0.000 NA
ATOM     11  C   UNL     1       0.715   2.062   0.000  0.00  0.00    +0.000 A 
ATOM     12  N   UNL     1       1.429   0.000   0.000  0.00  0.00    +0.000 N 
ATOM     13  C   UNL     1       2.143  -0.412   0.000  0.00  0.00    +0.000 C 
ATOM     14  C   UNL     1       2.143  -1.238   0.000  0.00  0.00    +0.000 C 
ATOM     15  C   UNL     1       1.429  -1.650   0.000  0.00  0.00    +0.000 C 
ATOM     16  C   UNL     1       0.715  -1.238   0.000  0.00  0.00    +0.000 C 
ATOM     17  C   UNL     1       0.715  -0.412   0.000  0.00  0.00    +0.000 C 
BRANCH   6  19
ATOM     18  C   UNL     1       0.715   3.712   0.000  0.00  0.00    +0.000 C 
ATOM     19  C   UNL     1       1.429   3.300   0.000  0.00  0.00    +0.000 C 
ENDBRANCH   6  19
ENDBRANCH   1  15
BRANCH   3  20
ATOM     20  C   UNL     1       2.326  -4.412   0.000  0.00  0.00    +0.000 C 
BRANCH  20  21
ATOM     21  O   UNL     1       3.147  -4.326   0.000  0.00  0.00    +0.000 OA
BRANCH  21  22
ATOM     22  C   UNL     1       3.632  -4.993   0.000  0.00  0.00    +0.000 A 
ATOM     23  C   UNL     1       4.452  -4.907   0.000  0.00  0.00    +0.000 A 
ATOM     24  C   UNL     1       4.937  -5.574   0.000  0.00  0.00    +0.000 A 
ATOM     25  C   UNL     1       4.602  -6.328   0.000  0.00  0.00    +0.000 A 
ATOM     26  C   UNL     1       3.781  -6.414   0.000  0.00  0.00    +0.000 A 
ATOM     27  C   UNL     1       3.296  -5.747   0.000  0.00  0.00    +0.000 A 
BRANCH  25  28
ATOM     28  N   UNL     1       5.087  -6.995   0.000  0.00  0.00    +0.000 N 
ATOM     29  C   UNL     1       5.912  -6.995   0.000  0.00  0.00    +0.000 A 
ATOM     30  N   UNL     1       6.167  -7.780   0.000  0.00  0.00    +0.000 NA
ATOM     31  N   UNL     1       5.499  -8.265   0.000  0.00  0.00    +0.000 NA
ATOM     32  N   UNL     1       4.832  -7.780   0.000  0.00  0.00    +0.000 NA
ENDBRANCH  25  28
ENDBRANCH  21  22
ENDBRANCH  20  21
ENDBRANCH   3  20
TORSDOF 6
