REMARK  Name = 
REMARK  3 active torsions:
REMARK  status: ('A' for Active; 'I' for Inactive)
REMARK    1  A    between atoms: C_2  and  C_4
REMARK    2  A    between atoms: C_7  and  C_14
REMARK    3  A    between atoms: C_9  and  S_10
REMARK                            x       y       z     vdW  Elec       q    Type
REMARK                         _______ _______ _______ _____ _____    ______ ____
ROOT
ATOM      1  C   UNL     1       0.715   1.238   0.000  0.00  0.00    +0.000 A 
ATOM      2  C   UNL     1       1.429   0.825   0.000  0.00  0.00    +0.000 A 
ATOM      3  C   UNL     1       1.429   0.000   0.000  0.00  0.00    +0.000 A 
ATOM      4  C   UNL     1       0.715  -0.412   0.000  0.00  0.00    +0.000 A 
ATOM      5  C   UNL     1       0.000   0.000   0.000  0.00  0.00    +0.000 A 
ATOM      6  C   UNL     1       0.000   0.825   0.000  0.00  0.00    +0.000 A 
ENDROOT
BRANCH   4   7
ATOM      7  C   UNL     1       0.715  -1.238   0.000  0.00  0.00    +0.000 C 
ATOM      8  O   UNL     1       0.000  -1.650   0.000  0.00  0.00    +0.000 OA
ATOM      9  N   UNL     1       1.429  -1.650   0.000  0.00  0.00    +0.000 NA
ATOM     10  C   UNL     1       1.429  -2.475   0.000  0.00  0.00    +0.000 C 
ATOM     11  N   UNL     1       2.143  -2.888   0.000  0.00  0.00    +0.000 NA
ATOM     12  N   UNL     1       0.715  -2.888   0.000  0.00  0.00    +0.000 NA
ENDBRANCH   4   7
BRANCH   6  13
ATOM     13  S   UNL     1      -0.715   1.238   0.000  0.00  0.00    +0.000 S 
ATOM     14  O   UNL     1      -1.429   1.650   0.000  0.00  0.00    +0.000 OA
ATOM     15  O   UNL     1      -0.302   1.952   0.000  0.00  0.00    +0.000 OA
ATOM     16  C   UNL     1      -1.127   0.523   0.000  0.00  0.00    +0.000 C 
ENDBRANCH   6  13
BRANCH   1  18
ATOM     17  C   UNL     1       0.000   2.475   0.000  0.00  0.00    +0.000 C 
ATOM     18  C   UNL     1       0.715   2.062   0.000  0.00  0.00    +0.000 C 
ATOM     19  C   UNL     1       1.429   2.475   0.000  0.00  0.00    +0.000 C 
ENDBRANCH   1  18
TORSDOF 3
