REMARK  Name = 
REMARK  5 active torsions:
REMARK  status: ('A' for Active; 'I' for Inactive)
REMARK    1  A    between atoms: C_2  and  C_3
REMARK    2  A    between atoms: C_2  and  C_13
REMARK    3  A    between atoms: C_2  and  C_18
REMARK    4  A    between atoms: C_3  and  O_4
REMARK    5  A    between atoms: O_4  and  C_5
REMARK                            x       y       z     vdW  Elec       q    Type
REMARK                         _______ _______ _______ _____ _____    ______ ____
ROOT
ATOM      1  O   UNL     1      -1.016  -2.365   0.000  0.00  0.00    +0.000 OA
ATOM      2  C   UNL     1      -1.429  -1.650   0.000  0.00  0.00    +0.000 C 
ENDROOT
BRANCH   2   3
ATOM      3  C   UNL     1      -2.143  -2.062   0.000  0.00  0.00    +0.000 A 
ATOM      4  C   UNL     1      -2.143  -2.888   0.000  0.00  0.00    +0.000 A 
ATOM      5  C   UNL     1      -2.858  -3.300   0.000  0.00  0.00    +0.000 A 
ATOM      6  C   UNL     1      -3.572  -2.888   0.000  0.00  0.00    +0.000 A 
ATOM      7  C   UNL     1      -3.572  -2.062   0.000  0.00  0.00    +0.000 A 
ATOM      8  C   UNL     1      -2.858  -1.650   0.000  0.00  0.00    +0.000 A 
ENDBRANCH   2   3
BRANCH   2   9
ATOM      9  C   UNL     1      -1.841  -0.935   0.000  0.00  0.00    +0.000 C 
ATOM     10  C   UNL     1      -2.662  -0.849   0.000  0.00  0.00    +0.000 C 
ATOM     11  C   UNL     1      -2.833  -0.042   0.000  0.00  0.00    +0.000 C 
ATOM     12  C   UNL     1      -2.119   0.370   0.000  0.00  0.00    +0.000 C 
ATOM     13  C   UNL     1      -1.506  -0.182   0.000  0.00  0.00    +0.000 C 
ENDBRANCH   2   9
BRANCH   2  14
ATOM     14  C   UNL     1      -0.715  -1.238   0.000  0.00  0.00    +0.000 C 
BRANCH  14  15
ATOM     15  O   UNL     1      -0.715  -0.412   0.000  0.00  0.00    +0.000 OA
BRANCH  15  16
ATOM     16  C   UNL     1       0.000   0.000   0.000  0.00  0.00    +0.000 C 
ATOM     17  C   UNL     1       0.000   0.825   0.000  0.00  0.00    +0.000 C 
ATOM     18  N   UNL     1       0.715   1.238   0.000  0.00  0.00    +0.000 NA
ATOM     19  C   UNL     1       1.429   0.825   0.000  0.00  0.00    +0.000 C 
ATOM     20  C   UNL     1       1.429   0.000   0.000  0.00  0.00    +0.000 C 
ATOM     21  C   UNL     1       0.715  -0.412   0.000  0.00  0.00    +0.000 C 
ATOM     22  C   UNL     1       0.852   0.138   0.000  0.00  0.00    +0.000 C 
ATOM     23  C   UNL     1       0.852   0.688   0.000  0.00  0.00    +0.000 C 
ENDBRANCH  15  16
ENDBRANCH  14  15
ENDBRANCH   2  14
TORSDOF 5
