REMARK  Name = 
REMARK  6 active torsions:
REMARK  status: ('A' for Active; 'I' for Inactive)
REMARK    1  A    between atoms: C_6  and  C_26
REMARK    2  A    between atoms: C_7  and  C_8
REMARK    3  A    between atoms: C_8  and  N_9
REMARK    4  A    between atoms: C_11  and  N_34
REMARK    5  A    between atoms: C_16  and  N_23
REMARK    6  A    between atoms: C_19  and  C_33
REMARK                            x       y       z     vdW  Elec       q    Type
REMARK                         _______ _______ _______ _____ _____    ______ ____
ROOT
ATOM      1  C   UNL     1      -1.062   1.646   0.000  0.00  0.00    +0.000 A 
ATOM      2  C   UNL     1      -1.064   0.819   0.000  0.00  0.00    +0.000 A 
ATOM      3  C   UNL     1      -0.349   0.407   0.000  0.00  0.00    +0.000 A 
ATOM      4  C   UNL     1       0.367   0.820   0.000  0.00  0.00    +0.000 A 
ATOM      5  C   UNL     1       0.364   1.650   0.000  0.00  0.00    +0.000 A 
ATOM      6  C   UNL     1      -0.351   2.059   0.000  0.00  0.00    +0.000 A 
ENDROOT
BRANCH   1   8
ATOM      7  C   UNL     1      -2.490   1.650   0.000  0.00  0.00    +0.000 A 
ATOM      8  N   UNL     1      -1.778   2.063   0.000  0.00  0.00    +0.000 NA
ATOM      9  C   UNL     1      -3.914   1.650   0.000  0.00  0.00    +0.000 A 
ATOM     10  C   UNL     1      -3.914   0.826   0.000  0.00  0.00    +0.000 A 
ATOM     11  C   UNL     1      -3.202   0.418   0.000  0.00  0.00    +0.000 A 
ATOM     12  N   UNL     1      -2.490   0.826   0.000  0.00  0.00    +0.000 NA
ATOM     13  N   UNL     1      -3.202   2.067   0.000  0.00  0.00    +0.000 NA
ATOM     14  C   UNL     1      -5.343   1.646   0.000  0.00  0.00    +0.000 A 
ATOM     15  C   UNL     1      -5.345   0.819   0.000  0.00  0.00    +0.000 A 
ATOM     16  C   UNL     1      -4.630   0.407   0.000  0.00  0.00    +0.000 A 
ATOM     17  C   UNL     1      -4.632   2.059   0.000  0.00  0.00    +0.000 A 
BRANCH  11  23
ATOM     18  C   UNL     1      -3.919  -0.819   0.000  0.00  0.00    +0.000 A 
ATOM     19  C   UNL     1      -3.920  -1.646   0.000  0.00  0.00    +0.000 A 
ATOM     20  C   UNL     1      -3.206  -2.059   0.000  0.00  0.00    +0.000 A 
ATOM     21  C   UNL     1      -2.490  -1.645   0.000  0.00  0.00    +0.000 A 
ATOM     22  C   UNL     1      -2.493  -0.815   0.000  0.00  0.00    +0.000 A 
ATOM     23  C   UNL     1      -3.208  -0.406   0.000  0.00  0.00    +0.000 A 
ENDBRANCH  11  23
ENDBRANCH   1   8
BRANCH   4  24
ATOM     24  C   UNL     1       1.075   0.409   0.000  0.00  0.00    +0.000 C 
ATOM     25  N   UNL     1       1.071  -0.415   0.000  0.00  0.00    +0.000 NA
ATOM     26  O   UNL     1       1.787   0.826   0.000  0.00  0.00    +0.000 OA
BRANCH  25  28
ATOM     27  C   UNL     1       3.208  -0.824   0.000  0.00  0.00    +0.000 A 
ATOM     28  C   UNL     1       1.782  -0.827   0.000  0.00  0.00    +0.000 A 
ATOM     29  C   UNL     1       1.781  -1.654   0.000  0.00  0.00    +0.000 A 
ATOM     30  C   UNL     1       2.495  -2.067   0.000  0.00  0.00    +0.000 A 
ATOM     31  C   UNL     1       3.211  -1.654   0.000  0.00  0.00    +0.000 A 
ATOM     32  C   UNL     1       2.493  -0.415   0.000  0.00  0.00    +0.000 A 
ATOM     33  C   UNL     1       1.063  -2.060   0.000  0.00  0.00    +0.000 C 
BRANCH  27  34
ATOM     34  C   UNL     1       3.920  -0.411   0.000  0.00  0.00    +0.000 C 
BRANCH  34  35
ATOM     35  N   UNL     1       4.633  -0.820   0.000  0.00  0.00    +0.000 NA
ATOM     36  C   UNL     1       5.345  -0.407   0.000  0.00  0.00    +0.000 C 
ENDBRANCH  34  35
ENDBRANCH  27  34
ENDBRANCH  25  28
ENDBRANCH   4  24
TORSDOF 6
