REMARK  Name = 
REMARK  6 active torsions:
REMARK  status: ('A' for Active; 'I' for Inactive)
REMARK    1  A    between atoms: C_1  and  C_2
REMARK    2  A    between atoms: C_1  and  C_3
REMARK    3  A    between atoms: C_2  and  C_4
REMARK    4  A    between atoms: C_3  and  C_10
REMARK    5  A    between atoms: C_4  and  C_12
REMARK    6  A    between atoms: N_7  and  C_10
REMARK                            x       y       z     vdW  Elec       q    Type
REMARK                         _______ _______ _______ _____ _____    ______ ____
ROOT
ATOM      1  C   UNL     1      -0.019   0.191   0.000  0.00  0.00    +0.000 C 
ATOM      2  O   UNL     1      -0.019   1.031   0.000  0.00  0.00    +0.000 OA
ENDROOT
BRANCH   1   3
ATOM      3  C   UNL     1      -0.700  -0.200   0.000  0.00  0.00    +0.000 C 
ATOM      4  O   UNL     1      -0.690  -1.031   0.000  0.00  0.00    +0.000 OA
BRANCH   3   5
ATOM      5  C   UNL     1      -1.429   0.186   0.000  0.00  0.00    +0.000 C 
ATOM      6  O   UNL     1      -1.439   1.016   0.000  0.00  0.00    +0.000 OA
BRANCH   5   8
ATOM      7  O   UNL     1      -2.873   0.157   0.000  0.00  0.00    +0.000 OA
ATOM      8  C   UNL     1      -2.148  -0.205   0.000  0.00  0.00    +0.000 C 
ENDBRANCH   5   8
ENDBRANCH   3   5
ENDBRANCH   1   3
BRANCH   1   9
ATOM      9  C   UNL     1       0.719  -0.186   0.000  0.00  0.00    +0.000 C 
ATOM     10  O   UNL     1       0.719  -1.016   0.000  0.00  0.00    +0.000 OA
BRANCH   9  11
ATOM     11  C   UNL     1       1.415   0.215   0.000  0.00  0.00    +0.000 C 
BRANCH  11  12
ATOM     12  N   UNL     1       2.153  -0.176   0.000  0.00  0.00    +0.000 NA
ATOM     13  C   UNL     1       2.873   0.229   0.000  0.00  0.00    +0.000 C 
ENDBRANCH  11  12
ENDBRANCH   9  11
ENDBRANCH   1   9
TORSDOF 6
