REMARK  Name = 
REMARK  12 active torsions:
REMARK  status: ('A' for Active; 'I' for Inactive)
REMARK    1  A    between atoms: C_1  and  N_9
REMARK    2  A    between atoms: C_5  and  O_12
REMARK    3  A    between atoms: O_12  and  C_17
REMARK    4  A    between atoms: C_13  and  O_25
REMARK    5  A    between atoms: C_24  and  C_35
REMARK    6  A    between atoms: O_25  and  C_37
REMARK    7  A    between atoms: C_44  and  O_45
REMARK    8  A    between atoms: C_52  and  C_53
REMARK    9  A    between atoms: C_53  and  O_54
REMARK   10  A    between atoms: O_54  and  C_55
REMARK   11  A    between atoms: C_55  and  C_56
REMARK   12  A    between atoms: C_56  and  O_57
REMARK                            x       y       z     vdW  Elec       q    Type
REMARK                         _______ _______ _______ _____ _____    ______ ____
ROOT
ATOM      1  C   UNL     1       0.686  -0.142   0.000  0.00  0.00    +0.000 C 
ATOM      2  C   UNL     1      -0.669  -0.142   0.000  0.00  0.00    +0.000 C 
ATOM      3  C   UNL     1      -1.369   1.826   0.000  0.00  0.00    +0.000 C 
ATOM      4  C   UNL     1      -0.013  -0.535   0.000  0.00  0.00    +0.000 C 
ATOM      5  C   UNL     1       1.342   1.039   0.000  0.00  0.00    +0.000 C 
ATOM      6  C   UNL     1       0.686   0.645   0.000  0.00  0.00    +0.000 C 
ATOM      7  C   UNL     1      -0.669   2.963   0.000  0.00  0.00    +0.000 C 
ATOM      8  O   UNL     1      -0.669   0.645   0.000  0.00  0.00    +0.000 OA
ATOM      9  C   UNL     1      -0.669   2.220   0.000  0.00  0.00    +0.000 C 
ATOM     10  C   UNL     1       0.030   3.444   0.000  0.00  0.00    +0.000 C 
ATOM     11  C   UNL     1       1.342   1.826   0.000  0.00  0.00    +0.000 C 
ATOM     12  C   UNL     1      -1.369   1.039   0.000  0.00  0.00    +0.000 C 
ATOM     13  C   UNL     1       0.686   2.963   0.000  0.00  0.00    +0.000 C 
ATOM     14  C   UNL     1       0.686   2.220   0.000  0.00  0.00    +0.000 C 
ATOM     15  O   UNL     1      -1.369  -0.579   0.000  0.00  0.00    +0.000 OA
ATOM     16  O   UNL     1      -2.031   2.243   0.000  0.00  0.00    +0.000 OA
ATOM     17  O   UNL     1       1.342   2.613   0.000  0.00  0.00    +0.000 OA
ATOM     18  C   UNL     1      -2.084   1.502   0.000  0.00  0.00    +0.000 C 
ATOM     19  C   UNL     1      -0.013  -1.323   0.000  0.00  0.00    +0.000 C 
ATOM     20  C   UNL     1      -0.013   1.039   0.000  0.00  0.00    +0.000 C 
ATOM     21  C   UNL     1       2.036   2.225   0.000  0.00  0.00    +0.000 C 
ATOM     22  C   UNL     1       1.386   3.400   0.000  0.00  0.00    +0.000 C 
ATOM     23  O   UNL     1      -1.385   2.634   0.000  0.00  0.00    +0.000 OA
ATOM     24  N   UNL     1      -0.690   3.857   0.000  0.00  0.00    +0.000 NA
ATOM     25  C   UNL     1       0.046   2.545   0.000  0.00  0.00    +0.000 C 
ATOM     26  C   UNL     1      -1.385   3.459   0.000  0.00  0.00    +0.000 C 
ENDROOT
BRANCH  12  27
ATOM     27  C   UNL     1      -2.025   0.601   0.000  0.00  0.00    +0.000 C 
ATOM     28  C   UNL     1      -2.752   0.991   0.000  0.00  0.00    +0.000 C 
ENDBRANCH  12  27
BRANCH   5  29
ATOM     29  O   UNL     1       2.042   0.601   0.000  0.00  0.00    +0.000 OA
BRANCH  29  34
ATOM     30  C   UNL     1       4.225   1.030   0.000  0.00  0.00    +0.000 C 
ATOM     31  C   UNL     1       4.218   1.892   0.000  0.00  0.00    +0.000 C 
ATOM     32  C   UNL     1       3.513   0.603   0.000  0.00  0.00    +0.000 C 
ATOM     33  C   UNL     1       3.484   2.268   0.000  0.00  0.00    +0.000 C 
ATOM     34  C   UNL     1       2.756   1.016   0.000  0.00  0.00    +0.000 C 
ATOM     35  O   UNL     1       2.771   1.841   0.000  0.00  0.00    +0.000 OA
ATOM     36  C   UNL     1       3.477   3.130   0.000  0.00  0.00    +0.000 C 
ATOM     37  O   UNL     1       3.497  -0.222   0.000  0.00  0.00    +0.000 OA
BRANCH  30  38
ATOM     38  N   UNL     1       4.960   0.654   0.000  0.00  0.00    +0.000 NA
ATOM     39  C   UNL     1       5.673   1.081   0.000  0.00  0.00    +0.000 C 
ATOM     40  C   UNL     1       4.967  -0.208   0.000  0.00  0.00    +0.000 C 
ENDBRANCH  30  38
ENDBRANCH  29  34
ENDBRANCH   5  29
BRANCH   1  41
ATOM     41  O   UNL     1       1.386  -0.579   0.000  0.00  0.00    +0.000 OA
BRANCH  41  42
ATOM     42  C   UNL     1       1.386  -1.404   0.000  0.00  0.00    +0.000 C 
ATOM     43  C   UNL     1       0.671  -1.817   0.000  0.00  0.00    +0.000 C 
ATOM     44  O   UNL     1       2.101  -1.817   0.000  0.00  0.00    +0.000 OA
ATOM     45  C   UNL     1       2.101  -2.642   0.000  0.00  0.00    +0.000 C 
ATOM     46  C   UNL     1       1.386  -3.054   0.000  0.00  0.00    +0.000 C 
ATOM     47  C   UNL     1       2.815  -3.054   0.000  0.00  0.00    +0.000 C 
ATOM     48  O   UNL     1       1.386  -3.880   0.000  0.00  0.00    +0.000 OA
ATOM     49  C   UNL     1       0.671  -2.642   0.000  0.00  0.00    +0.000 C 
ATOM     50  C   UNL     1      -0.043  -3.054   0.000  0.00  0.00    +0.000 C 
BRANCH  49  51
ATOM     51  O   UNL     1       0.671  -3.467   0.000  0.00  0.00    +0.000 OA
ATOM     52  C   UNL     1      -0.043  -3.880   0.000  0.00  0.00    +0.000 C 
ENDBRANCH  49  51
ENDBRANCH  41  42
ENDBRANCH   1  41
BRANCH  26  53
ATOM     53  C   UNL     1      -2.099   3.873   0.000  0.00  0.00    +0.000 C 
BRANCH  53  54
ATOM     54  O   UNL     1      -2.815   3.462   0.000  0.00  0.00    +0.000 OA
BRANCH  54  55
ATOM     55  C   UNL     1      -3.528   3.876   0.000  0.00  0.00    +0.000 C 
BRANCH  55  56
ATOM     56  C   UNL     1      -4.244   3.466   0.000  0.00  0.00    +0.000 C 
BRANCH  56  57
ATOM     57  O   UNL     1      -4.957   3.880   0.000  0.00  0.00    +0.000 OA
ATOM     58  C   UNL     1      -5.673   3.469   0.000  0.00  0.00    +0.000 C 
ENDBRANCH  56  57
ENDBRANCH  55  56
ENDBRANCH  54  55
ENDBRANCH  53  54
ENDBRANCH  26  53
TORSDOF 12
