REMARK  Name = 
REMARK  0 active torsions:
REMARK  status: ('A' for Active; 'I' for Inactive)
REMARK                            x       y       z     vdW  Elec       q    Type
REMARK                         _______ _______ _______ _____ _____    ______ ____
ROOT
ATOM      1  N   UNL     1      -2.141   0.413   0.000  0.00  0.00    +0.000 NA
ATOM      2  C   UNL     1      -1.426   0.002   0.000  0.00  0.00    +0.000 A 
ATOM      3  C   UNL     1      -1.426  -0.825   0.000  0.00  0.00    +0.000 A 
ATOM      4  C   UNL     1      -0.715  -1.236   0.000  0.00  0.00    +0.000 A 
ATOM      5  C   UNL     1       0.000  -0.825   0.000  0.00  0.00    +0.000 A 
ATOM      6  C   UNL     1       0.000   0.002   0.000  0.00  0.00    +0.000 A 
ATOM      7  C   UNL     1      -0.715   0.413   0.000  0.00  0.00    +0.000 A 
ATOM      8  C   UNL     1       0.715   0.413   0.000  0.00  0.00    +0.000 A 
ATOM      9  O   UNL     1       0.715   1.236   0.000  0.00  0.00    +0.000 OA
ATOM     10  N   UNL     1       1.426   0.002   0.000  0.00  0.00    +0.000 NA
ATOM     11  C   UNL     1       1.426  -0.825   0.000  0.00  0.00    +0.000 A 
ATOM     12  N   UNL     1       0.715  -1.236   0.000  0.00  0.00    +0.000 NA
ATOM     13  N   UNL     1       2.141  -1.236   0.000  0.00  0.00    +0.000 NA
ENDROOT
TORSDOF 0
