REMARK  Name = 
REMARK  8 active torsions:
REMARK  status: ('A' for Active; 'I' for Inactive)
REMARK    1  A    between atoms: C_1  and  C_2
REMARK    2  A    between atoms: C_2  and  C_24
REMARK    3  A    between atoms: C_3  and  C_16
REMARK    4  A    between atoms: N_5  and  C_6
REMARK    5  A    between atoms: C_6  and  C_7
REMARK    6  A    between atoms: C_7  and  C_8
REMARK    7  A    between atoms: C_8  and  C_9
REMARK    8  A    between atoms: C_9  and  C_10
REMARK                            x       y       z     vdW  Elec       q    Type
REMARK                         _______ _______ _______ _____ _____    ______ ____
ROOT
ATOM      1  C   UNL     1      -0.412  -0.357   0.000  0.00  0.00    +0.000 C 
ATOM      2  O   UNL     1       0.000  -1.072   0.000  0.00  0.00    +0.000 OA
ATOM      3  N   UNL     1       0.000   0.357   0.000  0.00  0.00    +0.000 NA
ENDROOT
BRANCH   1   4
ATOM      4  C   UNL     1      -1.238  -0.357   0.000  0.00  0.00    +0.000 C 
ATOM      5  C   UNL     1      -1.650   0.357   0.000  0.00  0.00    +0.000 C 
BRANCH   5   6
ATOM      6  C   UNL     1      -2.475   0.357   0.000  0.00  0.00    +0.000 A 
ATOM      7  C   UNL     1      -2.888   1.072   0.000  0.00  0.00    +0.000 A 
ATOM      8  C   UNL     1      -3.712   1.072   0.000  0.00  0.00    +0.000 A 
ATOM      9  C   UNL     1      -4.125   0.357   0.000  0.00  0.00    +0.000 A 
ATOM     10  C   UNL     1      -3.712  -0.357   0.000  0.00  0.00    +0.000 A 
ATOM     11  C   UNL     1      -2.888  -0.357   0.000  0.00  0.00    +0.000 A 
ATOM     12  O   UNL     1      -4.950   0.357   0.000  0.00  0.00    +0.000 OA
ATOM     13  O   UNL     1      -4.125   1.786   0.000  0.00  0.00    +0.000 OA
ENDBRANCH   5   6
BRANCH   4  14
ATOM     14  C   UNL     1      -1.650  -1.072   0.000  0.00  0.00    +0.000 C 
ATOM     15  N   UNL     1      -2.062  -1.786   0.000  0.00  0.00    +0.000 NA
ENDBRANCH   4  14
ENDBRANCH   1   4
BRANCH   3  16
ATOM     16  C   UNL     1       0.825   0.357   0.000  0.00  0.00    +0.000 C 
BRANCH  16  17
ATOM     17  C   UNL     1       1.238  -0.357   0.000  0.00  0.00    +0.000 C 
BRANCH  17  18
ATOM     18  C   UNL     1       2.062  -0.357   0.000  0.00  0.00    +0.000 C 
BRANCH  18  19
ATOM     19  C   UNL     1       2.475  -1.072   0.000  0.00  0.00    +0.000 C 
BRANCH  19  20
ATOM     20  C   UNL     1       3.300  -1.072   0.000  0.00  0.00    +0.000 A 
ATOM     21  C   UNL     1       3.712  -0.357   0.000  0.00  0.00    +0.000 A 
ATOM     22  C   UNL     1       4.537  -0.357   0.000  0.00  0.00    +0.000 A 
ATOM     23  C   UNL     1       4.950  -1.072   0.000  0.00  0.00    +0.000 A 
ATOM     24  C   UNL     1       4.537  -1.786   0.000  0.00  0.00    +0.000 A 
ATOM     25  C   UNL     1       3.712  -1.786   0.000  0.00  0.00    +0.000 A 
ENDBRANCH  19  20
ENDBRANCH  18  19
ENDBRANCH  17  18
ENDBRANCH  16  17
ENDBRANCH   3  16
TORSDOF 8
