REMARK  Name = 
REMARK  3 active torsions:
REMARK  status: ('A' for Active; 'I' for Inactive)
REMARK    1  A    between atoms: C_7  and  C_13
REMARK    2  A    between atoms: C_9  and  S_15
REMARK    3  A    between atoms: C_13  and  C_16
REMARK                            x       y       z     vdW  Elec       q    Type
REMARK                         _______ _______ _______ _____ _____    ______ ____
ROOT
ATOM      1  C   UNL     1      -0.327  -0.811   0.000  0.00  0.00    +0.000 A 
ATOM      2  C   UNL     1      -0.327   0.014   0.000  0.00  0.00    +0.000 A 
ATOM      3  N   UNL     1       0.388  -1.223   0.000  0.00  0.00    +0.000 NA
ATOM      4  C   UNL     1      -1.041  -1.223   0.000  0.00  0.00    +0.000 A 
ATOM      5  C   UNL     1      -1.041   0.426   0.000  0.00  0.00    +0.000 A 
ATOM      6  S   UNL     1       0.388   0.426   0.000  0.00  0.00    +0.000 S 
ATOM      7  C   UNL     1       1.102  -0.811   0.000  0.00  0.00    +0.000 C 
ATOM      8  C   UNL     1      -1.756  -0.811   0.000  0.00  0.00    +0.000 A 
ATOM      9  C   UNL     1      -1.756   0.014   0.000  0.00  0.00    +0.000 A 
ATOM     10  N   UNL     1       1.102   0.014   0.000  0.00  0.00    +0.000 NA
ATOM     11  O   UNL     1       0.918   1.058   0.000  0.00  0.00    +0.000 OA
ATOM     12  O   UNL     1      -0.143   1.058   0.000  0.00  0.00    +0.000 OA
ATOM     13 CL   UNL     1      -2.470  -1.223   0.000  0.00  0.00    +0.000 Cl
ENDROOT
BRANCH   9  14
ATOM     14  S   UNL     1      -2.470   0.427   0.000  0.00  0.00    +0.000 S 
ATOM     15  N   UNL     1      -2.257   1.223   0.000  0.00  0.00    +0.000 NA
ATOM     16  O   UNL     1      -3.245   0.709   0.000  0.00  0.00    +0.000 OA
ATOM     17  O   UNL     1      -2.819  -0.321   0.000  0.00  0.00    +0.000 OA
ENDBRANCH   9  14
BRANCH   7  18
ATOM     18  C   UNL     1       1.817  -1.223   0.000  0.00  0.00    +0.000 C 
BRANCH  18  19
ATOM     19  C   UNL     1       2.531  -0.811   0.000  0.00  0.00    +0.000 C 
ATOM     20  C   UNL     1       3.245  -1.223   0.000  0.00  0.00    +0.000 C 
ATOM     21  C   UNL     1       2.531   0.014   0.000  0.00  0.00    +0.000 C 
ENDBRANCH  18  19
ENDBRANCH   7  18
TORSDOF 3
