REMARK  Name = 
REMARK  0 active torsions:
REMARK  status: ('A' for Active; 'I' for Inactive)
REMARK                            x       y       z     vdW  Elec       q    Type
REMARK                         _______ _______ _______ _____ _____    ______ ____
ROOT
ATOM      1  C   UNL     1      -1.155   0.005   0.000  0.00  0.00    +0.000 A 
ATOM      2  C   UNL     1      -1.825  -0.479   0.000  0.00  0.00    +0.000 A 
ATOM      3  N   UNL     1      -1.569  -1.261   0.000  0.00  0.00    +0.000 NA
ATOM      4  C   UNL     1      -0.489  -0.479   0.000  0.00  0.00    +0.000 A 
ATOM      5  C   UNL     1      -0.745  -1.261   0.000  0.00  0.00    +0.000 A 
ATOM      6  C   UNL     1       0.282  -0.186   0.000  0.00  0.00    +0.000 C 
ATOM      7  C   UNL     1      -0.287  -1.953   0.000  0.00  0.00    +0.000 C 
ATOM      8  C   UNL     1       1.101  -1.431   0.000  0.00  0.00    +0.000 C 
ATOM      9  C   UNL     1       0.990  -0.612   0.000  0.00  0.00    +0.000 C 
ATOM     10  C   UNL     1       0.356   0.633   0.000  0.00  0.00    +0.000 C 
ATOM     11  C   UNL     1       0.090   1.942   0.000  0.00  0.00    +0.000 C 
ATOM     12  C   UNL     1       1.075   1.043   0.000  0.00  0.00    +0.000 C 
ATOM     13  O   UNL     1       1.825   0.702   0.000  0.00  0.00    +0.000 OA
ATOM     14  N   UNL     1       0.910   1.851   0.000  0.00  0.00    +0.000 NA
ATOM     15  N   UNL     1      -0.250   1.192   0.000  0.00  0.00    +0.000 NA
ATOM     16  N   UNL     1      -0.319   2.660   0.000  0.00  0.00    +0.000 NA
ATOM     17  N   UNL     1       0.532  -2.027   0.000  0.00  0.00    +0.000 NA
ATOM     18  O   UNL     1      -0.713  -2.660   0.000  0.00  0.00    +0.000 OA
ENDROOT
TORSDOF 0
