REMARK  Name = 
REMARK  5 active torsions:
REMARK  status: ('A' for Active; 'I' for Inactive)
REMARK    1  A    between atoms: C_4  and  C_7
REMARK    2  A    between atoms: N_8  and  C_9
REMARK    3  A    between atoms: C_9  and  C_10
REMARK    4  A    between atoms: C_10  and  O_11
REMARK    5  A    between atoms: O_11  and  N_12
REMARK                            x       y       z     vdW  Elec       q    Type
REMARK                         _______ _______ _______ _____ _____    ______ ____
ROOT
ATOM      1  C   UNL     1      -1.071   0.411   0.000  0.00  0.00    +0.000 C 
ATOM      2  N   UNL     1      -0.357  -0.002   0.000  0.00  0.00    +0.000 NA
ATOM      3  O   UNL     1      -1.070   1.238   0.000  0.00  0.00    +0.000 OA
ENDROOT
BRANCH   1   7
ATOM      4  C   UNL     1      -3.213  -0.825   0.000  0.00  0.00    +0.000 A 
ATOM      5  C   UNL     1      -3.213   0.002   0.000  0.00  0.00    +0.000 A 
ATOM      6  C   UNL     1      -2.495   0.415   0.000  0.00  0.00    +0.000 A 
ATOM      7  C   UNL     1      -1.782   0.002   0.000  0.00  0.00    +0.000 A 
ATOM      8  C   UNL     1      -1.782  -0.825   0.000  0.00  0.00    +0.000 A 
ATOM      9  N   UNL     1      -2.495  -1.238   0.000  0.00  0.00    +0.000 NA
ENDBRANCH   1   7
BRANCH   2  10
ATOM     10  C   UNL     1       0.357   0.407   0.000  0.00  0.00    +0.000 C 
BRANCH  10  11
ATOM     11  C   UNL     1       1.071  -0.006   0.000  0.00  0.00    +0.000 C 
BRANCH  11  12
ATOM     12  O   UNL     1       1.785   0.403   0.000  0.00  0.00    +0.000 OA
BRANCH  12  13
ATOM     13  N   UNL     1       2.499  -0.010   0.000  0.00  0.00    +0.000 N 
ATOM     14  O   UNL     1       3.213   0.399   0.000  0.00  0.00    +0.000 OA
ATOM     15  O   UNL     1       2.497  -0.837   0.000  0.00  0.00    +0.000 OA
ENDBRANCH  12  13
ENDBRANCH  11  12
ENDBRANCH  10  11
ENDBRANCH   2  10
TORSDOF 5
