REMARK  Name = 
REMARK  2 active torsions:
REMARK  status: ('A' for Active; 'I' for Inactive)
REMARK    1  A    between atoms: C_6  and  C_7
REMARK    2  A    between atoms: C_15  and  C_19
REMARK                            x       y       z     vdW  Elec       q    Type
REMARK                         _______ _______ _______ _____ _____    ______ ____
ROOT
ATOM      1  C   UNL     1      -0.715  -1.238   0.000  0.00  0.00    +0.000 A 
ATOM      2  C   UNL     1       0.000  -1.650   0.000  0.00  0.00    +0.000 A 
ATOM      3  C   UNL     1       0.715  -1.238   0.000  0.00  0.00    +0.000 A 
ATOM      4  C   UNL     1       0.715  -0.412   0.000  0.00  0.00    +0.000 A 
ATOM      5  C   UNL     1       0.000   0.000   0.000  0.00  0.00    +0.000 A 
ATOM      6  C   UNL     1      -0.715  -0.412   0.000  0.00  0.00    +0.000 A 
ATOM      7  C   UNL     1       1.429   0.000   0.000  0.00  0.00    +0.000 A 
ATOM      8  C   UNL     1       2.143  -0.412   0.000  0.00  0.00    +0.000 A 
ATOM      9  C   UNL     1       2.143  -1.238   0.000  0.00  0.00    +0.000 A 
ATOM     10  N   UNL     1       1.429  -1.650   0.000  0.00  0.00    +0.000 NA
ENDROOT
BRANCH   6  11
ATOM     11  C   UNL     1      -1.429   0.000   0.000  0.00  0.00    +0.000 C 
ATOM     12  C   UNL     1      -1.429   0.825   0.000  0.00  0.00    +0.000 C 
ATOM     13  C   UNL     1      -2.096   1.310   0.000  0.00  0.00    +0.000 C 
ATOM     14  O   UNL     1      -2.881   1.055   0.000  0.00  0.00    +0.000 OA
ATOM     15  N   UNL     1      -1.841   2.095   0.000  0.00  0.00    +0.000 NA
ATOM     16  C   UNL     1      -1.016   2.095   0.000  0.00  0.00    +0.000 C 
ATOM     17  O   UNL     1      -0.531   2.762   0.000  0.00  0.00    +0.000 OA
ATOM     18  S   UNL     1      -0.761   1.310   0.000  0.00  0.00    +0.000 S 
ENDBRANCH   6  11
BRANCH   7  19
ATOM     19  C   UNL     1       1.429   0.825   0.000  0.00  0.00    +0.000 A 
ATOM     20  C   UNL     1       0.715   1.238   0.000  0.00  0.00    +0.000 A 
ATOM     21  C   UNL     1       0.715   2.062   0.000  0.00  0.00    +0.000 A 
ATOM     22  N   UNL     1       1.429   2.475   0.000  0.00  0.00    +0.000 NA
ATOM     23  C   UNL     1       2.143   2.062   0.000  0.00  0.00    +0.000 A 
ATOM     24  C   UNL     1       2.143   1.238   0.000  0.00  0.00    +0.000 A 
ENDBRANCH   7  19
TORSDOF 2
