REMARK  Name = 
REMARK  6 active torsions:
REMARK  status: ('A' for Active; 'I' for Inactive)
REMARK    1  A    between atoms: C_11  and  C_19
REMARK    2  A    between atoms: C_12  and  O_25
REMARK    3  A    between atoms: C_14  and  O_25
REMARK    4  A    between atoms: N_18  and  N_24
REMARK    5  A    between atoms: C_23  and  C_30
REMARK    6  A    between atoms: C_28  and  O_37
REMARK                            x       y       z     vdW  Elec       q    Type
REMARK                         _______ _______ _______ _____ _____    ______ ____
ROOT
ATOM      1  C   UNL     1      -2.467   1.747   0.000  0.00  0.00    +0.000 A 
ATOM      2  C   UNL     1      -2.467   0.922   0.000  0.00  0.00    +0.000 A 
ATOM      3  C   UNL     1      -3.181   0.505   0.000  0.00  0.00    +0.000 C 
ATOM      4  C   UNL     1      -3.181   2.155   0.000  0.00  0.00    +0.000 C 
ATOM      5  C   UNL     1      -1.040   0.922   0.000  0.00  0.00    +0.000 A 
ATOM      6  C   UNL     1      -1.040   1.747   0.000  0.00  0.00    +0.000 A 
ATOM      7  C   UNL     1      -3.895   0.922   0.000  0.00  0.00    +0.000 A 
ATOM      8  C   UNL     1      -1.748   2.155   0.000  0.00  0.00    +0.000 A 
ATOM      9  C   UNL     1      -1.748   0.505   0.000  0.00  0.00    +0.000 A 
ATOM     10  C   UNL     1      -3.895   1.747   0.000  0.00  0.00    +0.000 A 
ATOM     11  C   UNL     1       0.388   1.747   0.000  0.00  0.00    +0.000 C 
ATOM     12  C   UNL     1      -0.326   0.505   0.000  0.00  0.00    +0.000 C 
ATOM     13  C   UNL     1      -0.326   2.155   0.000  0.00  0.00    +0.000 C 
ATOM     14  C   UNL     1       0.388   0.922   0.000  0.00  0.00    +0.000 C 
ATOM     15  O   UNL     1      -3.181   2.981   0.000  0.00  0.00    +0.000 OA
ATOM     16  O   UNL     1      -3.181  -0.319   0.000  0.00  0.00    +0.000 OA
ATOM     17  C   UNL     1      -4.611   0.505   0.000  0.00  0.00    +0.000 A 
ATOM     18  O   UNL     1      -1.748   2.981   0.000  0.00  0.00    +0.000 OA
ATOM     19  O   UNL     1      -1.748  -0.319   0.000  0.00  0.00    +0.000 OA
ATOM     20  O   UNL     1       1.210   1.747   0.000  0.00  0.00    +0.000 OA
ATOM     21  C   UNL     1      -4.611   2.155   0.000  0.00  0.00    +0.000 A 
ATOM     22  C   UNL     1      -5.325   1.747   0.000  0.00  0.00    +0.000 A 
ATOM     23  C   UNL     1      -5.325   0.922   0.000  0.00  0.00    +0.000 A 
ENDROOT
BRANCH  11  25
ATOM     24  N   UNL     1       1.624   2.461   0.000  0.00  0.00    +0.000 NA
ATOM     25  C   UNL     1       0.799   2.461   0.000  0.00  0.00    +0.000 C 
ATOM     26  C   UNL     1       0.385   3.175   0.000  0.00  0.00    +0.000 C 
BRANCH  24  28
ATOM     27  C   UNL     1       2.860   1.752   0.000  0.00  0.00    +0.000 C 
ATOM     28  N   UNL     1       2.449   2.466   0.000  0.00  0.00    +0.000 NA
ATOM     29  O   UNL     1       2.446   1.038   0.000  0.00  0.00    +0.000 OA
BRANCH  27  30
ATOM     30  C   UNL     1       3.683   1.750   0.000  0.00  0.00    +0.000 A 
ATOM     31  C   UNL     1       4.089   1.033   0.000  0.00  0.00    +0.000 A 
ATOM     32  C   UNL     1       4.089   2.461   0.000  0.00  0.00    +0.000 A 
ATOM     33  C   UNL     1       4.911   2.463   0.000  0.00  0.00    +0.000 A 
ATOM     34  C   UNL     1       4.914   1.033   0.000  0.00  0.00    +0.000 A 
ATOM     35  C   UNL     1       5.325   1.747   0.000  0.00  0.00    +0.000 A 
ENDBRANCH  27  30
ENDBRANCH  24  28
ENDBRANCH  11  25
BRANCH  17  36
ATOM     36  O   UNL     1      -4.611  -0.319   0.000  0.00  0.00    +0.000 OA
ATOM     37  C   UNL     1      -5.325  -0.731   0.000  0.00  0.00    +0.000 C 
ENDBRANCH  17  36
BRANCH  12  38
ATOM     38  O   UNL     1      -0.326  -0.319   0.000  0.00  0.00    +0.000 OA
BRANCH  38  39
ATOM     39  C   UNL     1       0.090  -1.025   0.000  0.00  0.00    +0.000 C 
ATOM     40  O   UNL     1      -0.313  -1.742   0.000  0.00  0.00    +0.000 OA
ATOM     41  C   UNL     1       0.921  -1.020   0.000  0.00  0.00    +0.000 C 
ATOM     42  C   UNL     1       0.936  -2.448   0.000  0.00  0.00    +0.000 C 
ATOM     43  C   UNL     1       1.340  -1.731   0.000  0.00  0.00    +0.000 C 
ATOM     44  C   UNL     1       0.106  -2.458   0.000  0.00  0.00    +0.000 C 
ATOM     45  N   UNL     1       2.165  -1.726   0.000  0.00  0.00    +0.000 NA
ATOM     46  O   UNL     1       1.350  -3.164   0.000  0.00  0.00    +0.000 OA
ATOM     47  C   UNL     1      -0.300  -3.175   0.000  0.00  0.00    +0.000 C 
ENDBRANCH  38  39
ENDBRANCH  12  38
TORSDOF 6
