REMARK  Name = 
REMARK  5 active torsions:
REMARK  status: ('A' for Active; 'I' for Inactive)
REMARK    1  A    between atoms: C_2  and  C_4
REMARK    2  A    between atoms: C_4  and  C_5
REMARK    3  A    between atoms: N_7  and  C_8
REMARK    4  A    between atoms: C_8  and  C_9
REMARK    5  A    between atoms: C_16  and  C_18
REMARK                            x       y       z     vdW  Elec       q    Type
REMARK                         _______ _______ _______ _____ _____    ______ ____
ROOT
ATOM      1  C   UNL     1       0.000   0.000   0.000  0.00  0.00    +0.000 A 
ATOM      2  N   UNL     1      -0.715  -0.412   0.000  0.00  0.00    +0.000 NA
ATOM      3  N   UNL     1      -0.715  -1.238   0.000  0.00  0.00    +0.000 N 
ATOM      4  C   UNL     1       0.000  -1.650   0.000  0.00  0.00    +0.000 A 
ATOM      5  O   UNL     1       0.000  -2.475   0.000  0.00  0.00    +0.000 OA
ATOM      6  C   UNL     1       0.715  -1.238   0.000  0.00  0.00    +0.000 A 
ATOM      7  C   UNL     1       0.715  -0.412   0.000  0.00  0.00    +0.000 A 
ATOM      8  N   UNL     1       1.429   0.000   0.000  0.00  0.00    +0.000 NA
ATOM      9  C   UNL     1       2.143  -0.412   0.000  0.00  0.00    +0.000 A 
ATOM     10  C   UNL     1       2.143  -1.238   0.000  0.00  0.00    +0.000 A 
ATOM     11  N   UNL     1       1.429  -1.650   0.000  0.00  0.00    +0.000 NA
ENDROOT
BRANCH   1  12
ATOM     12  C   UNL     1       0.000   0.825   0.000  0.00  0.00    +0.000 C 
BRANCH  12  14
ATOM     13  O   UNL     1       0.715   2.062   0.000  0.00  0.00    +0.000 OA
ATOM     14  C   UNL     1       0.715   1.238   0.000  0.00  0.00    +0.000 C 
ATOM     15  O   UNL     1       1.429   0.825   0.000  0.00  0.00    +0.000 OA
ENDBRANCH  12  14
ENDBRANCH   1  12
BRANCH   3  16
ATOM     16  C   UNL     1      -1.429  -1.650   0.000  0.00  0.00    +0.000 C 
BRANCH  16  17
ATOM     17  C   UNL     1      -1.429  -2.475   0.000  0.00  0.00    +0.000 A 
ATOM     18  N   UNL     1      -2.096  -2.960   0.000  0.00  0.00    +0.000 NA
ATOM     19  C   UNL     1      -1.841  -3.744   0.000  0.00  0.00    +0.000 A 
ATOM     20  C   UNL     1      -1.016  -3.744   0.000  0.00  0.00    +0.000 A 
ATOM     21  S   UNL     1      -0.761  -2.960   0.000  0.00  0.00    +0.000 S 
ATOM     22  C   UNL     1      -0.604  -4.459   0.000  0.00  0.00    +0.000 A 
ATOM     23  C   UNL     1      -1.016  -5.173   0.000  0.00  0.00    +0.000 A 
ATOM     24  C   UNL     1      -1.841  -5.173   0.000  0.00  0.00    +0.000 A 
ATOM     25  C   UNL     1      -2.254  -4.459   0.000  0.00  0.00    +0.000 A 
BRANCH  24  26
ATOM     26  C   UNL     1      -2.254  -5.888   0.000  0.00  0.00    +0.000 C 
ATOM     27  F   UNL     1      -2.666  -6.602   0.000  0.00  0.00    +0.000 F 
ATOM     28  F   UNL     1      -2.968  -5.476   0.000  0.00  0.00    +0.000 F 
ATOM     29  F   UNL     1      -1.540  -6.301   0.000  0.00  0.00    +0.000 F 
ENDBRANCH  24  26
ENDBRANCH  16  17
ENDBRANCH   3  16
TORSDOF 5
