REMARK  Name = 
REMARK  6 active torsions:
REMARK  status: ('A' for Active; 'I' for Inactive)
REMARK    1  A    between atoms: C_3  and  C_4
REMARK    2  A    between atoms: N_9  and  C_10
REMARK    3  A    between atoms: C_10  and  C_11
REMARK    4  A    between atoms: C_11  and  N_12
REMARK    5  A    between atoms: N_12  and  S_13
REMARK    6  A    between atoms: N_17  and  C_18
REMARK                            x       y       z     vdW  Elec       q    Type
REMARK                         _______ _______ _______ _____ _____    ______ ____
ROOT
ATOM      1  C   UNL     1      -0.892   0.037   0.000  0.00  0.00    +0.000 A 
ATOM      2  N   UNL     1      -1.143   0.818   0.000  0.00  0.00    +0.000 NA
ATOM      3  O   UNL     1      -0.479   1.305   0.000  0.00  0.00    +0.000 OA
ATOM      4  N   UNL     1       0.192   0.818   0.000  0.00  0.00    +0.000 NA
ATOM      5  C   UNL     1      -0.066   0.037   0.000  0.00  0.00    +0.000 A 
ATOM      6  N   UNL     1       0.413  -0.634   0.000  0.00  0.00    +0.000 NA
ENDROOT
BRANCH   1   9
ATOM      7  O   UNL     1      -1.526  -2.050   0.000  0.00  0.00    +0.000 OA
ATOM      8  N   UNL     1      -1.040  -1.386   0.000  0.00  0.00    +0.000 NA
ATOM      9  C   UNL     1      -1.379  -0.634   0.000  0.00  0.00    +0.000 C 
ATOM     10  N   UNL     1      -2.197  -0.545   0.000  0.00  0.00    +0.000 NA
BRANCH  10  11
ATOM     11  C   UNL     1      -2.529   0.206   0.000  0.00  0.00    +0.000 A 
ATOM     12  C   UNL     1      -3.354   0.295   0.000  0.00  0.00    +0.000 A 
ATOM     13  C   UNL     1      -3.686   1.047   0.000  0.00  0.00    +0.000 A 
ATOM     14  C   UNL     1      -3.207   1.710   0.000  0.00  0.00    +0.000 A 
ATOM     15  F   UNL     1      -3.546   2.462   0.000  0.00  0.00    +0.000 F 
ATOM     16  C   UNL     1      -2.381   1.629   0.000  0.00  0.00    +0.000 A 
ATOM     17 BR   UNL     1      -1.902   2.300   0.000  0.00  0.00    +0.000 Br
ATOM     18  C   UNL     1      -2.042   0.877   0.000  0.00  0.00    +0.000 A 
ENDBRANCH  10  11
ENDBRANCH   1   9
BRANCH   6  19
ATOM     19  C   UNL     1       1.231  -0.545   0.000  0.00  0.00    +0.000 C 
BRANCH  19  20
ATOM     20  C   UNL     1       1.718  -1.216   0.000  0.00  0.00    +0.000 C 
BRANCH  20  21
ATOM     21  N   UNL     1       2.536  -1.128   0.000  0.00  0.00    +0.000 NA
BRANCH  21  22
ATOM     22  S   UNL     1       3.023  -1.799   0.000  0.00  0.00    +0.000 S 
ATOM     23  N   UNL     1       3.502  -2.462   0.000  0.00  0.00    +0.000 NA
ATOM     24  O   UNL     1       3.686  -1.312   0.000  0.00  0.00    +0.000 OA
ATOM     25  O   UNL     1       2.352  -2.278   0.000  0.00  0.00    +0.000 OA
ENDBRANCH  21  22
ENDBRANCH  20  21
ENDBRANCH  19  20
ENDBRANCH   6  19
TORSDOF 6
