REMARK  Name = 
REMARK  5 active torsions:
REMARK  status: ('A' for Active; 'I' for Inactive)
REMARK    1  A    between atoms: C_2  and  O_28
REMARK    2  A    between atoms: C_15  and  C_16
REMARK    3  A    between atoms: C_15  and  C_17
REMARK    4  A    between atoms: C_15  and  C_20
REMARK    5  A    between atoms: C_20  and  O_28
REMARK                            x       y       z     vdW  Elec       q    Type
REMARK                         _______ _______ _______ _____ _____    ______ ____
ROOT
ATOM      1  C   UNL     1       1.072  -0.619   0.000  0.00  0.00    +0.000 C 
ENDROOT
BRANCH   1   8
ATOM      2  C   UNL     1       2.501   2.681   0.000  0.00  0.00    +0.000 A 
ATOM      3  C   UNL     1       1.786   3.094   0.000  0.00  0.00    +0.000 A 
ATOM      4  C   UNL     1       2.501   1.856   0.000  0.00  0.00    +0.000 A 
ATOM      5  C   UNL     1       1.072   2.681   0.000  0.00  0.00    +0.000 A 
ATOM      6  C   UNL     1       1.786   1.444   0.000  0.00  0.00    +0.000 A 
ATOM      7  C   UNL     1       1.072   1.856   0.000  0.00  0.00    +0.000 A 
ATOM      8  C   UNL     1       1.072   0.206   0.000  0.00  0.00    +0.000 A 
ATOM      9  C   UNL     1       1.786   0.619   0.000  0.00  0.00    +0.000 A 
ATOM     10  C   UNL     1       0.357   0.619   0.000  0.00  0.00    +0.000 A 
ATOM     11  O   UNL     1       2.501   0.206   0.000  0.00  0.00    +0.000 OA
ATOM     12  O   UNL     1      -0.463   0.705   0.000  0.00  0.00    +0.000 OA
ATOM     13  O   UNL     1       0.357   1.444   0.000  0.00  0.00    +0.000 OA
ENDBRANCH   1   8
BRANCH   1  20
ATOM     14  C   UNL     1      -2.501  -1.031   0.000  0.00  0.00    +0.000 A 
ATOM     15  C   UNL     1      -2.501  -1.856   0.000  0.00  0.00    +0.000 A 
ATOM     16  C   UNL     1      -1.786  -0.619   0.000  0.00  0.00    +0.000 A 
ATOM     17  C   UNL     1      -1.786  -2.269   0.000  0.00  0.00    +0.000 A 
ATOM     18  C   UNL     1      -1.072  -1.031   0.000  0.00  0.00    +0.000 A 
ATOM     19  C   UNL     1      -1.072  -1.856   0.000  0.00  0.00    +0.000 A 
ATOM     20  C   UNL     1       0.357  -1.031   0.000  0.00  0.00    +0.000 A 
ATOM     21  C   UNL     1      -0.357  -0.619   0.000  0.00  0.00    +0.000 A 
ATOM     22  C   UNL     1       0.357  -1.856   0.000  0.00  0.00    +0.000 A 
ATOM     23  O   UNL     1      -0.357   0.206   0.000  0.00  0.00    +0.000 OA
ATOM     24  O   UNL     1       1.072  -2.269   0.000  0.00  0.00    +0.000 OA
ATOM     25  O   UNL     1      -0.357  -2.269   0.000  0.00  0.00    +0.000 OA
ENDBRANCH   1  20
BRANCH   1  26
ATOM     26  C   UNL     1       1.786  -1.031   0.000  0.00  0.00    +0.000 C 
ATOM     27  O   UNL     1       2.501  -0.619   0.000  0.00  0.00    +0.000 OA
BRANCH  26  28
ATOM     28  O   UNL     1       1.786  -1.856   0.000  0.00  0.00    +0.000 OA
BRANCH  28  30
ATOM     29  C   UNL     1       2.501  -3.094   0.000  0.00  0.00    +0.000 C 
ATOM     30  C   UNL     1       2.501  -2.269   0.000  0.00  0.00    +0.000 C 
ENDBRANCH  28  30
ENDBRANCH  26  28
ENDBRANCH   1  26
TORSDOF 5
