REMARK  Name = 
REMARK  6 active torsions:
REMARK  status: ('A' for Active; 'I' for Inactive)
REMARK    1  A    between atoms: C_2  and  C_4
REMARK    2  A    between atoms: C_4  and  C_25
REMARK    3  A    between atoms: C_5  and  N_6
REMARK    4  A    between atoms: C_9  and  C_11
REMARK    5  A    between atoms: C_13  and  C_21
REMARK    6  A    between atoms: C_15  and  C_17
REMARK                            x       y       z     vdW  Elec       q    Type
REMARK                         _______ _______ _______ _____ _____    ______ ____
ROOT
ATOM      1  N   UNL     1       2.751  -0.185   0.000  0.00  0.00    +0.000 N 
ATOM      2  C   UNL     1       3.419  -0.670   0.000  0.00  0.00    +0.000 A 
ATOM      3  N   UNL     1       3.164  -1.454   0.000  0.00  0.00    +0.000 NA
ATOM      4  C   UNL     1       2.339  -1.454   0.000  0.00  0.00    +0.000 A 
ATOM      5  N   UNL     1       2.084  -0.670   0.000  0.00  0.00    +0.000 NA
ENDROOT
BRANCH   4   6
ATOM      6  C   UNL     1       1.854  -2.122   0.000  0.00  0.00    +0.000 A 
ATOM      7  C   UNL     1       2.189  -2.876   0.000  0.00  0.00    +0.000 A 
ATOM      8  C   UNL     1       1.704  -3.543   0.000  0.00  0.00    +0.000 A 
ATOM      9  C   UNL     1       0.884  -3.457   0.000  0.00  0.00    +0.000 A 
ATOM     10  C   UNL     1       0.548  -2.703   0.000  0.00  0.00    +0.000 A 
ATOM     11  C   UNL     1       1.033  -2.036   0.000  0.00  0.00    +0.000 A 
BRANCH  10  12
ATOM     12  C   UNL     1      -0.272  -2.617   0.000  0.00  0.00    +0.000 C 
ATOM     13  F   UNL     1      -1.093  -2.530   0.000  0.00  0.00    +0.000 F 
ATOM     14  F   UNL     1      -0.358  -3.437   0.000  0.00  0.00    +0.000 F 
ATOM     15  F   UNL     1      -0.186  -1.796   0.000  0.00  0.00    +0.000 F 
ENDBRANCH  10  12
BRANCH   8  16
ATOM     16  C   UNL     1       2.040  -4.297   0.000  0.00  0.00    +0.000 C 
ATOM     17  F   UNL     1       2.376  -5.050   0.000  0.00  0.00    +0.000 F 
ATOM     18  F   UNL     1       1.286  -4.632   0.000  0.00  0.00    +0.000 F 
ATOM     19  F   UNL     1       2.794  -3.961   0.000  0.00  0.00    +0.000 F 
ENDBRANCH   8  16
ENDBRANCH   4   6
BRANCH   1  21
ATOM     20  C   UNL     1       3.466   1.053   0.000  0.00  0.00    +0.000 C 
ATOM     21  C   UNL     1       2.751   0.640   0.000  0.00  0.00    +0.000 C 
BRANCH  20  22
ATOM     22  C   UNL     1       4.180   0.640   0.000  0.00  0.00    +0.000 A 
ATOM     23  C   UNL     1       4.895   1.053   0.000  0.00  0.00    +0.000 A 
ATOM     24  N   UNL     1       5.609   0.640   0.000  0.00  0.00    +0.000 NA
ATOM     25  C   UNL     1       5.609  -0.185   0.000  0.00  0.00    +0.000 A 
ATOM     26  N   UNL     1       4.895  -0.597   0.000  0.00  0.00    +0.000 NA
ATOM     27  C   UNL     1       4.180  -0.185   0.000  0.00  0.00    +0.000 A 
ENDBRANCH  20  22
BRANCH  20  29
ATOM     28  N   UNL     1       4.180   2.290   0.000  0.00  0.00    +0.000 NA
ATOM     29  C   UNL     1       3.466   1.878   0.000  0.00  0.00    +0.000 C 
ATOM     30  O   UNL     1       2.751   2.290   0.000  0.00  0.00    +0.000 OA
ENDBRANCH  20  29
ENDBRANCH   1  21
TORSDOF 6
