REMARK  Name = 
REMARK  6 active torsions:
REMARK  status: ('A' for Active; 'I' for Inactive)
REMARK    1  A    between atoms: C_16  and  C_22
REMARK    2  A    between atoms: C_17  and  C_23
REMARK    3  A    between atoms: C_18  and  C_24
REMARK    4  A    between atoms: C_19  and  C_25
REMARK    5  A    between atoms: C_20  and  C_26
REMARK    6  A    between atoms: C_21  and  C_27
REMARK                            x       y       z     vdW  Elec       q    Type
REMARK                         _______ _______ _______ _____ _____    ______ ____
ROOT
ATOM      1  C   UNL     1       0.412   0.715   0.000  0.00  0.00    +0.000 C 
ATOM      2  C   UNL     1       0.412  -0.714   0.000  0.00  0.00    +0.000 C 
ATOM      3  C   UNL     1      -0.825   0.000   0.000  0.00  0.00    +0.000 C 
ATOM      4  C   UNL     1       1.650   1.429   0.000  0.00  0.00    +0.000 C 
ATOM      5  C   UNL     1      -2.062   0.715   0.000  0.00  0.00    +0.000 C 
ATOM      6  C   UNL     1       0.412  -2.143   0.000  0.00  0.00    +0.000 C 
ATOM      7  C   UNL     1      -0.412   2.143   0.000  0.00  0.00    +0.000 C 
ATOM      8  C   UNL     1       2.062  -0.714   0.000  0.00  0.00    +0.000 C 
ATOM      9  C   UNL     1      -1.650  -1.429   0.000  0.00  0.00    +0.000 C 
ATOM     10  C   UNL     1       0.412   2.143   0.000  0.00  0.00    +0.000 C 
ATOM     11  C   UNL     1       1.650  -1.429   0.000  0.00  0.00    +0.000 C 
ATOM     12  C   UNL     1      -2.062  -0.714   0.000  0.00  0.00    +0.000 C 
ATOM     13  C   UNL     1       2.062   0.715   0.000  0.00  0.00    +0.000 C 
ATOM     14  C   UNL     1      -1.650   1.429   0.000  0.00  0.00    +0.000 C 
ATOM     15  C   UNL     1      -0.412  -2.143   0.000  0.00  0.00    +0.000 C 
ATOM     16  N   UNL     1       0.825   1.429   0.000  0.00  0.00    +0.000 N 
ATOM     17  N   UNL     1       0.825  -1.429   0.000  0.00  0.00    +0.000 N 
ATOM     18  N   UNL     1      -1.650   0.000   0.000  0.00  0.00    +0.000 N 
ATOM     19  O   UNL     1       0.825   2.858   0.000  0.00  0.00    +0.000 OA
ATOM     20  O   UNL     1       2.062  -2.143   0.000  0.00  0.00    +0.000 OA
ATOM     21  O   UNL     1      -2.887  -0.714   0.000  0.00  0.00    +0.000 OA
ATOM     22  O   UNL     1       2.888   0.715   0.000  0.00  0.00    +0.000 OA
ATOM     23  O   UNL     1      -2.062   2.143   0.000  0.00  0.00    +0.000 OA
ATOM     24  O   UNL     1      -0.825  -2.858   0.000  0.00  0.00    +0.000 OA
ATOM     25  O   UNL     1       1.650   0.000   0.000  0.00  0.00    +0.000 OA
ATOM     26  O   UNL     1      -0.825   1.429   0.000  0.00  0.00    +0.000 OA
ATOM     27  O   UNL     1      -0.825  -1.429   0.000  0.00  0.00    +0.000 OA
ENDROOT
BRANCH   5  30
ATOM     28  C   UNL     1      -3.300   0.000   0.000  0.00  0.00    +0.000 C 
ATOM     29  C   UNL     1      -3.300   1.429   0.000  0.00  0.00    +0.000 C 
ATOM     30  C   UNL     1      -2.887   0.715   0.000  0.00  0.00    +0.000 C 
ENDBRANCH   5  30
BRANCH   6  33
ATOM     31  C   UNL     1       1.650  -2.858   0.000  0.00  0.00    +0.000 C 
ATOM     32  C   UNL     1       0.412  -3.572   0.000  0.00  0.00    +0.000 C 
ATOM     33  C   UNL     1       0.825  -2.858   0.000  0.00  0.00    +0.000 C 
ENDBRANCH   6  33
BRANCH   4  36
ATOM     34  C   UNL     1       2.888   2.143   0.000  0.00  0.00    +0.000 C 
ATOM     35  C   UNL     1       1.650   2.858   0.000  0.00  0.00    +0.000 C 
ATOM     36  C   UNL     1       2.062   2.143   0.000  0.00  0.00    +0.000 C 
ENDBRANCH   4  36
BRANCH   8  39
ATOM     37  C   UNL     1       3.300   0.000   0.000  0.00  0.00    +0.000 C 
ATOM     38  C   UNL     1       3.300  -1.429   0.000  0.00  0.00    +0.000 C 
ATOM     39  C   UNL     1       2.888  -0.714   0.000  0.00  0.00    +0.000 C 
ENDBRANCH   8  39
BRANCH   9  42
ATOM     40  C   UNL     1      -1.650  -2.858   0.000  0.00  0.00    +0.000 C 
ATOM     41  C   UNL     1      -2.887  -2.143   0.000  0.00  0.00    +0.000 C 
ATOM     42  C   UNL     1      -2.062  -2.143   0.000  0.00  0.00    +0.000 C 
ENDBRANCH   9  42
BRANCH   7  45
ATOM     43  C   UNL     1      -1.650   2.858   0.000  0.00  0.00    +0.000 C 
ATOM     44  C   UNL     1      -0.412   3.572   0.000  0.00  0.00    +0.000 C 
ATOM     45  C   UNL     1      -0.825   2.858   0.000  0.00  0.00    +0.000 C 
ENDBRANCH   7  45
TORSDOF 6
