REMARK  Name = 
REMARK  13 active torsions:
REMARK  status: ('A' for Active; 'I' for Inactive)
REMARK    1  A    between atoms: C_2  and  C_3
REMARK    2  A    between atoms: C_3  and  C_4
REMARK    3  A    between atoms: C_4  and  C_5
REMARK    4  A    between atoms: C_5  and  C_6
REMARK    5  A    between atoms: C_6  and  C_7
REMARK    6  A    between atoms: C_7  and  O_9
REMARK    7  A    between atoms: O_9  and  C_10
REMARK    8  A    between atoms: C_10  and  C_11
REMARK    9  A    between atoms: C_11  and  N_12
REMARK   10  A    between atoms: N_15  and  C_18
REMARK   11  A    between atoms: C_18  and  C_19
REMARK   12  A    between atoms: C_19  and  C_20
REMARK   13  A    between atoms: C_20  and  N_21
REMARK                            x       y       z     vdW  Elec       q    Type
REMARK                         _______ _______ _______ _____ _____    ______ ____
ROOT
ATOM      1  C   UNL     1       3.572   7.838   0.000  0.00  0.00    +0.000 C 
ENDROOT
BRANCH   1   5
ATOM      2  N   UNL     1       1.429   9.075   0.000  0.00  0.00    +0.000 NA
ATOM      3  C   UNL     1       2.143   9.488   0.000  0.00  0.00    +0.000 C 
ATOM      4  C   UNL     1       2.858   9.075   0.000  0.00  0.00    +0.000 C 
ATOM      5  N   UNL     1       2.858   8.250   0.000  0.00  0.00    +0.000 NA
ATOM      6  C   UNL     1       2.143   7.838   0.000  0.00  0.00    +0.000 C 
ATOM      7  C   UNL     1       1.429   8.250   0.000  0.00  0.00    +0.000 C 
BRANCH   2   8
ATOM      8  C   UNL     1       0.715   9.488   0.000  0.00  0.00    +0.000 C 
BRANCH   8   9
ATOM      9  C   UNL     1       0.000   9.075   0.000  0.00  0.00    +0.000 C 
BRANCH   9  10
ATOM     10  O   UNL     1      -0.715   9.488   0.000  0.00  0.00    +0.000 OA
BRANCH  10  11
ATOM     11  C   UNL     1      -1.429   9.075   0.000  0.00  0.00    +0.000 C 
ATOM     12  O   UNL     1      -1.429   8.250   0.000  0.00  0.00    +0.000 OA
BRANCH  11  13
ATOM     13  C   UNL     1      -2.143   9.488   0.000  0.00  0.00    +0.000 C 
BRANCH  13  14
ATOM     14  C   UNL     1      -2.858   9.075   0.000  0.00  0.00    +0.000 C 
BRANCH  14  15
ATOM     15  C   UNL     1      -3.572   9.488   0.000  0.00  0.00    +0.000 C 
BRANCH  15  16
ATOM     16  C   UNL     1      -4.287   9.075   0.000  0.00  0.00    +0.000 C 
BRANCH  16  18
ATOM     17  C   UNL     1      -5.716   9.075   0.000  0.00  0.00    +0.000 C 
ATOM     18  C   UNL     1      -5.001   9.488   0.000  0.00  0.00    +0.000 C 
ENDBRANCH  16  18
ENDBRANCH  15  16
ENDBRANCH  14  15
ENDBRANCH  13  14
ENDBRANCH  11  13
ENDBRANCH  10  11
ENDBRANCH   9  10
ENDBRANCH   8   9
ENDBRANCH   2   8
ENDBRANCH   1   5
BRANCH   1  19
ATOM     19  C   UNL     1       4.287   8.250   0.000  0.00  0.00    +0.000 C 
BRANCH  19  20
ATOM     20  C   UNL     1       5.001   7.838   0.000  0.00  0.00    +0.000 C 
BRANCH  20  21
ATOM     21  N   UNL     1       5.716   8.250   0.000  0.00  0.00    +0.000 N 
ATOM     22  C   UNL     1       6.430   7.838   0.000  0.00  0.00    +0.000 A 
ATOM     23  C   UNL     1       6.430   7.013   0.000  0.00  0.00    +0.000 A 
ATOM     24  C   UNL     1       7.145   6.600   0.000  0.00  0.00    +0.000 A 
ATOM     25  C   UNL     1       7.859   7.013   0.000  0.00  0.00    +0.000 A 
ATOM     26  C   UNL     1       7.859   7.838   0.000  0.00  0.00    +0.000 A 
ATOM     27  C   UNL     1       7.145   8.250   0.000  0.00  0.00    +0.000 A 
ATOM     28  S   UNL     1       7.145   9.075   0.000  0.00  0.00    +0.000 S 
ATOM     29  C   UNL     1       6.430   9.488   0.000  0.00  0.00    +0.000 A 
ATOM     30  C   UNL     1       5.716   9.075   0.000  0.00  0.00    +0.000 A 
ATOM     31  C   UNL     1       5.001   9.488   0.000  0.00  0.00    +0.000 A 
ATOM     32  C   UNL     1       5.001  10.312   0.000  0.00  0.00    +0.000 A 
ATOM     33  C   UNL     1       5.716  10.725   0.000  0.00  0.00    +0.000 A 
ATOM     34  C   UNL     1       6.430  10.312   0.000  0.00  0.00    +0.000 A 
ATOM     35 CL   UNL     1       4.287  10.725   0.000  0.00  0.00    +0.000 Cl
ENDBRANCH  20  21
ENDBRANCH  19  20
ENDBRANCH   1  19
TORSDOF 13
