REMARK  Name = 
REMARK  6 active torsions:
REMARK  status: ('A' for Active; 'I' for Inactive)
REMARK    1  A    between atoms: C_3  and  C_26
REMARK    2  A    between atoms: N_10  and  C_11
REMARK    3  A    between atoms: C_11  and  C_12
REMARK    4  A    between atoms: C_15  and  S_22
REMARK    5  A    between atoms: C_17  and  C_18
REMARK    6  A    between atoms: C_26  and  C_27
REMARK                            x       y       z     vdW  Elec       q    Type
REMARK                         _______ _______ _______ _____ _____    ______ ____
ROOT
ATOM      1  C   UNL     1       0.884  -2.150   0.000  0.00  0.00    +0.000 C 
ENDROOT
BRANCH   1  11
ATOM      2  C   UNL     1      -0.171  -0.698   0.000  0.00  0.00    +0.000 C 
ATOM      3  C   UNL     1       0.654  -0.698   0.000  0.00  0.00    +0.000 A 
ATOM      4  C   UNL     1       1.139  -0.030   0.000  0.00  0.00    +0.000 A 
ATOM      5  C   UNL     1       1.923  -0.285   0.000  0.00  0.00    +0.000 A 
ATOM      6  C   UNL     1       2.638   0.127   0.000  0.00  0.00    +0.000 A 
ATOM      7  C   UNL     1       3.352  -0.285   0.000  0.00  0.00    +0.000 A 
ATOM      8  C   UNL     1       3.352  -1.110   0.000  0.00  0.00    +0.000 A 
ATOM      9  N   UNL     1       2.638  -1.523   0.000  0.00  0.00    +0.000 NA
ATOM     10  C   UNL     1       1.923  -1.110   0.000  0.00  0.00    +0.000 A 
ATOM     11  N   UNL     1       1.139  -1.365   0.000  0.00  0.00    +0.000 N 
BRANCH   4  12
ATOM     12  C   UNL     1       0.884   0.754   0.000  0.00  0.00    +0.000 C 
BRANCH  12  13
ATOM     13  C   UNL     1       1.436   1.367   0.000  0.00  0.00    +0.000 C 
ATOM     14  O   UNL     1       1.181   2.152   0.000  0.00  0.00    +0.000 OA
ATOM     15  O   UNL     1       2.243   1.196   0.000  0.00  0.00    +0.000 OA
ENDBRANCH  12  13
ENDBRANCH   4  12
ENDBRANCH   1  11
BRANCH   1  16
ATOM     16  C   UNL     1       1.436  -2.763   0.000  0.00  0.00    +0.000 A 
ATOM     17  C   UNL     1       2.243  -2.592   0.000  0.00  0.00    +0.000 A 
ATOM     18  C   UNL     1       2.795  -3.205   0.000  0.00  0.00    +0.000 A 
ATOM     19  C   UNL     1       2.540  -3.989   0.000  0.00  0.00    +0.000 A 
ATOM     20  C   UNL     1       1.733  -4.161   0.000  0.00  0.00    +0.000 A 
ATOM     21  C   UNL     1       1.181  -3.548   0.000  0.00  0.00    +0.000 A 
BRANCH  21  22
ATOM     22  C   UNL     1       0.374  -3.719   0.000  0.00  0.00    +0.000 C 
ATOM     23  F   UNL     1      -0.433  -3.891   0.000  0.00  0.00    +0.000 F 
ATOM     24  F   UNL     1       0.202  -2.912   0.000  0.00  0.00    +0.000 F 
ATOM     25  F   UNL     1       0.545  -4.526   0.000  0.00  0.00    +0.000 F 
ENDBRANCH  21  22
BRANCH  19  26
ATOM     26  S   UNL     1       3.092  -4.602   0.000  0.00  0.00    +0.000 S 
ATOM     27  O   UNL     1       3.644  -5.215   0.000  0.00  0.00    +0.000 OA
ATOM     28  O   UNL     1       3.705  -4.050   0.000  0.00  0.00    +0.000 OA
ATOM     29  C   UNL     1       2.479  -5.154   0.000  0.00  0.00    +0.000 C 
ENDBRANCH  19  26
ENDBRANCH   1  16
TORSDOF 6
