REMARK  Name = 
REMARK  5 active torsions:
REMARK  status: ('A' for Active; 'I' for Inactive)
REMARK    1  A    between atoms: C_2  and  S_3
REMARK    2  A    between atoms: S_3  and  N_6
REMARK    3  A    between atoms: N_6  and  C_7
REMARK    4  A    between atoms: C_10  and  C_13
REMARK    5  A    between atoms: C_19  and  C_22
REMARK                            x       y       z     vdW  Elec       q    Type
REMARK                         _______ _______ _______ _____ _____    ______ ____
ROOT
ATOM      1  C   UNL     1       1.429  -2.475   0.000  0.00  0.00    +0.000 C 
ATOM      2  C   UNL     1       2.143  -2.888   0.000  0.00  0.00    +0.000 C 
ATOM      3  C   UNL     1       2.143  -3.712   0.000  0.00  0.00    +0.000 C 
ATOM      4  C   UNL     1       1.429  -4.125   0.000  0.00  0.00    +0.000 C 
ATOM      5  C   UNL     1       0.715  -3.712   0.000  0.00  0.00    +0.000 C 
ATOM      6  C   UNL     1       0.715  -2.888   0.000  0.00  0.00    +0.000 C 
ENDROOT
BRANCH   4   7
ATOM      7  C   UNL     1       1.429  -4.950   0.000  0.00  0.00    +0.000 C 
ATOM      8  O   UNL     1       0.715  -5.362   0.000  0.00  0.00    +0.000 OA
ATOM      9  N   UNL     1       2.143  -5.362   0.000  0.00  0.00    +0.000 NA
ATOM     10  C   UNL     1       2.143  -6.188   0.000  0.00  0.00    +0.000 A 
ATOM     11  N   UNL     1       2.858  -6.600   0.000  0.00  0.00    +0.000 NA
ATOM     12  C   UNL     1       2.858  -7.425   0.000  0.00  0.00    +0.000 A 
ATOM     13  C   UNL     1       2.143  -7.838   0.000  0.00  0.00    +0.000 A 
ATOM     14  C   UNL     1       1.429  -7.425   0.000  0.00  0.00    +0.000 A 
ATOM     15  C   UNL     1       1.429  -6.600   0.000  0.00  0.00    +0.000 A 
BRANCH  13  16
ATOM     16  C   UNL     1       2.143  -8.662   0.000  0.00  0.00    +0.000 C 
ATOM     17  F   UNL     1       2.143  -9.488   0.000  0.00  0.00    +0.000 F 
ATOM     18  F   UNL     1       1.318  -8.662   0.000  0.00  0.00    +0.000 F 
ATOM     19  F   UNL     1       2.968  -8.662   0.000  0.00  0.00    +0.000 F 
ENDBRANCH  13  16
ENDBRANCH   4   7
BRANCH   1  20
ATOM     20  N   UNL     1       1.429  -1.650   0.000  0.00  0.00    +0.000 NA
BRANCH  20  21
ATOM     21  S   UNL     1       0.715  -1.238   0.000  0.00  0.00    +0.000 S 
ATOM     22  O   UNL     1       0.302  -1.952   0.000  0.00  0.00    +0.000 OA
ATOM     23  O   UNL     1       1.127  -0.523   0.000  0.00  0.00    +0.000 OA
BRANCH  21  25
ATOM     24  C   UNL     1      -0.715  -0.412   0.000  0.00  0.00    +0.000 C 
ATOM     25  C   UNL     1       0.000  -0.825   0.000  0.00  0.00    +0.000 C 
ATOM     26  C   UNL     1      -0.412  -1.540   0.000  0.00  0.00    +0.000 C 
ATOM     27  C   UNL     1       0.412  -0.111   0.000  0.00  0.00    +0.000 C 
ENDBRANCH  21  25
ENDBRANCH  20  21
ENDBRANCH   1  20
TORSDOF 5
