REMARK  Name = 
REMARK  0 active torsions:
REMARK  status: ('A' for Active; 'I' for Inactive)
REMARK                            x       y       z     vdW  Elec       q    Type
REMARK                         _______ _______ _______ _____ _____    ______ ____
ROOT
ATOM      1  O   UNL     1      -2.337   0.668   0.000  0.00  0.00    +0.000 OA
ATOM      2  O   UNL     1       0.534   1.522   0.000  0.00  0.00    +0.000 OA
ATOM      3  N   UNL     1      -0.908  -0.982   0.000  0.00  0.00    +0.000 N 
ATOM      4  N   UNL     1      -0.908   0.668   0.000  0.00  0.00    +0.000 N 
ATOM      5  N   UNL     1       0.543  -1.010   0.000  0.00  0.00    +0.000 N 
ATOM      6  N   UNL     1       1.291   0.273   0.000  0.00  0.00    +0.000 NA
ATOM      7  N   UNL     1       2.004  -1.002   0.000  0.00  0.00    +0.000 N 
ATOM      8  C   UNL     1      -1.623  -0.569   0.000  0.00  0.00    +0.000 C 
ATOM      9  C   UNL     1      -1.623   0.256   0.000  0.00  0.00    +0.000 C 
ATOM     10  C   UNL     1      -0.194  -0.569   0.000  0.00  0.00    +0.000 A 
ATOM     11  C   UNL     1      -2.035  -1.284   0.000  0.00  0.00    +0.000 C 
ATOM     12  C   UNL     1      -2.448  -0.569   0.000  0.00  0.00    +0.000 C 
ATOM     13  C   UNL     1      -0.194   0.256   0.000  0.00  0.00    +0.000 A 
ATOM     14  C   UNL     1       0.543   0.697   0.000  0.00  0.00    +0.000 A 
ATOM     15  C   UNL     1       1.291  -0.586   0.000  0.00  0.00    +0.000 A 
ATOM     16  H   UNL     1      -0.908  -1.493   0.000  0.00  0.00    +0.000 HD
ATOM     17  H   UNL     1      -0.908   1.180   0.000  0.00  0.00    +0.000 HD
ATOM     18  H   UNL     1       0.538  -1.522   0.000  0.00  0.00    +0.000 HD
ATOM     19  H   UNL     1       2.002  -1.513   0.000  0.00  0.00    +0.000 HD
ATOM     20  H   UNL     1       2.448  -0.748   0.000  0.00  0.00    +0.000 HD
ENDROOT
TORSDOF 0
