REMARK  Name = 
REMARK  7 active torsions:
REMARK  status: ('A' for Active; 'I' for Inactive)
REMARK    1  A    between atoms: C_2  and  C_4
REMARK    2  A    between atoms: C_7  and  C_10
REMARK    3  A    between atoms: C_13  and  O_33
REMARK    4  A    between atoms: N_17  and  C_21
REMARK    5  A    between atoms: C_21  and  C_22
REMARK    6  A    between atoms: O_33  and  C_34
REMARK    7  A    between atoms: C_34  and  C_35
REMARK                            x       y       z     vdW  Elec       q    Type
REMARK                         _______ _______ _______ _____ _____    ______ ____
ROOT
ATOM      1  C   UNL     1      -3.572  -1.238   0.000  0.00  0.00    +0.000 A 
ATOM      2  C   UNL     1      -3.572  -0.412   0.000  0.00  0.00    +0.000 A 
ATOM      3  C   UNL     1      -4.287   0.000   0.000  0.00  0.00    +0.000 A 
ATOM      4  C   UNL     1      -4.287   0.825   0.000  0.00  0.00    +0.000 A 
ATOM      5  C   UNL     1      -3.572   1.238   0.000  0.00  0.00    +0.000 A 
ATOM      6  C   UNL     1      -2.858   0.825   0.000  0.00  0.00    +0.000 A 
ATOM      7  C   UNL     1      -2.858   0.000   0.000  0.00  0.00    +0.000 A 
ATOM      8  N   UNL     1      -2.143  -0.412   0.000  0.00  0.00    +0.000 N 
ATOM      9  C   UNL     1      -2.143  -1.238   0.000  0.00  0.00    +0.000 A 
ATOM     10  O   UNL     1      -1.429  -1.650   0.000  0.00  0.00    +0.000 OA
ATOM     11  N   UNL     1      -2.858  -1.650   0.000  0.00  0.00    +0.000 NA
ENDROOT
BRANCH   1  15
ATOM     12  C   UNL     1      -5.716  -2.475   0.000  0.00  0.00    +0.000 A 
ATOM     13  C   UNL     1      -5.716  -1.650   0.000  0.00  0.00    +0.000 A 
ATOM     14  C   UNL     1      -5.001  -1.238   0.000  0.00  0.00    +0.000 A 
ATOM     15  C   UNL     1      -4.287  -1.650   0.000  0.00  0.00    +0.000 A 
ATOM     16  C   UNL     1      -4.287  -2.475   0.000  0.00  0.00    +0.000 A 
ATOM     17  C   UNL     1      -5.001  -2.888   0.000  0.00  0.00    +0.000 A 
BRANCH  12  19
ATOM     18  C   UNL     1      -6.430  -3.712   0.000  0.00  0.00    +0.000 C 
ATOM     19  C   UNL     1      -6.430  -2.888   0.000  0.00  0.00    +0.000 C 
ATOM     20  C   UNL     1      -7.145  -2.475   0.000  0.00  0.00    +0.000 C 
ENDBRANCH  12  19
ENDBRANCH   1  15
BRANCH   8  21
ATOM     21  C   UNL     1      -1.429   0.000   0.000  0.00  0.00    +0.000 C 
BRANCH  21  22
ATOM     22  C   UNL     1      -0.715  -0.412   0.000  0.00  0.00    +0.000 A 
ATOM     23  C   UNL     1      -0.715  -1.238   0.000  0.00  0.00    +0.000 A 
ATOM     24  C   UNL     1       0.000  -1.650   0.000  0.00  0.00    +0.000 A 
ATOM     25  C   UNL     1       0.715  -1.238   0.000  0.00  0.00    +0.000 A 
ATOM     26  C   UNL     1       0.715  -0.412   0.000  0.00  0.00    +0.000 A 
ATOM     27  C   UNL     1       0.000   0.000   0.000  0.00  0.00    +0.000 A 
ATOM     28  N   UNL     1       1.429   0.000   0.000  0.00  0.00    +0.000 NA
ATOM     29  C   UNL     1       2.143  -0.412   0.000  0.00  0.00    +0.000 A 
ATOM     30  C   UNL     1       2.143  -1.238   0.000  0.00  0.00    +0.000 A 
ATOM     31  N   UNL     1       1.429  -1.650   0.000  0.00  0.00    +0.000 NA
ATOM     32 BR   UNL     1       2.858  -1.650   0.000  0.00  0.00    +0.000 Br
ENDBRANCH  21  22
ENDBRANCH   8  21
BRANCH   4  33
ATOM     33  O   UNL     1      -5.001   1.238   0.000  0.00  0.00    +0.000 OA
BRANCH  33  34
ATOM     34  C   UNL     1      -5.001   2.062   0.000  0.00  0.00    +0.000 C 
BRANCH  34  35
ATOM     35  C   UNL     1      -4.287   2.475   0.000  0.00  0.00    +0.000 C 
ATOM     36  C   UNL     1      -3.572   2.888   0.000  0.00  0.00    +0.000 C 
ENDBRANCH  34  35
ENDBRANCH  33  34
ENDBRANCH   4  33
TORSDOF 7
