REMARK  Name = 
REMARK  7 active torsions:
REMARK  status: ('A' for Active; 'I' for Inactive)
REMARK    1  A    between atoms: C_2  and  C_3
REMARK    2  A    between atoms: C_3  and  C_4
REMARK    3  A    between atoms: C_4  and  C_5
REMARK    4  A    between atoms: C_6  and  C_7
REMARK    5  A    between atoms: C_6  and  C_9
REMARK    6  A    between atoms: N_11  and  C_12
REMARK    7  A    between atoms: C_15  and  C_18
REMARK                            x       y       z     vdW  Elec       q    Type
REMARK                         _______ _______ _______ _____ _____    ______ ____
ROOT
ATOM      1  C   UNL     1       0.000   2.475   0.000  0.00  0.00    +0.000 C 
ATOM      2  O   UNL     1      -0.715   2.062   0.000  0.00  0.00    +0.000 OA
ATOM      3  N   UNL     1       0.715   2.062   0.000  0.00  0.00    +0.000 NA
ENDROOT
BRANCH   3   4
ATOM      4  C   UNL     1       0.715   1.238   0.000  0.00  0.00    +0.000 A 
ATOM      5  C   UNL     1       1.429   0.825   0.000  0.00  0.00    +0.000 A 
ATOM      6  C   UNL     1       1.429   0.000   0.000  0.00  0.00    +0.000 A 
ATOM      7  C   UNL     1       0.715  -0.412   0.000  0.00  0.00    +0.000 A 
ATOM      8  C   UNL     1       0.000   0.000   0.000  0.00  0.00    +0.000 A 
ATOM      9  C   UNL     1       0.000   0.825   0.000  0.00  0.00    +0.000 A 
BRANCH   7  10
ATOM     10  C   UNL     1       0.715  -1.238   0.000  0.00  0.00    +0.000 C 
ATOM     11  F   UNL     1       0.715  -2.062   0.000  0.00  0.00    +0.000 F 
ATOM     12  F   UNL     1      -0.111  -1.238   0.000  0.00  0.00    +0.000 F 
ATOM     13  F   UNL     1       1.540  -1.238   0.000  0.00  0.00    +0.000 F 
ENDBRANCH   7  10
ENDBRANCH   3   4
BRANCH   1  15
ATOM     14  C   UNL     1       0.715   3.712   0.000  0.00  0.00    +0.000 C 
ATOM     15  C   UNL     1       0.000   3.300   0.000  0.00  0.00    +0.000 C 
ATOM     16  O   UNL     1       1.429   3.300   0.000  0.00  0.00    +0.000 OA
BRANCH  15  17
ATOM     17  C   UNL     1      -0.715   3.712   0.000  0.00  0.00    +0.000 C 
ATOM     18  N   UNL     1      -1.429   4.125   0.000  0.00  0.00    +0.000 NA
ENDBRANCH  15  17
BRANCH  14  19
ATOM     19  C   UNL     1       0.715   4.537   0.000  0.00  0.00    +0.000 C 
BRANCH  19  20
ATOM     20  C   UNL     1       1.429   4.950   0.000  0.00  0.00    +0.000 C 
BRANCH  20  22
ATOM     21  C   UNL     1       1.429   6.600   0.000  0.00  0.00    +0.000 C 
ATOM     22  C   UNL     1       1.429   5.775   0.000  0.00  0.00    +0.000 C 
ENDBRANCH  20  22
ENDBRANCH  19  20
ENDBRANCH  14  19
ENDBRANCH   1  15
TORSDOF 7
