REMARK  Name = 
REMARK  28 active torsions:
REMARK  status: ('A' for Active; 'I' for Inactive)
REMARK    1  A    between atoms: N_9  and  CA_24
REMARK    2  A    between atoms: N_10  and  CA_22
REMARK    3  A    between atoms: N_11  and  C_40
REMARK    4  A    between atoms: NE_13  and  CD_43
REMARK    5  A    between atoms: CA_16  and  C_21
REMARK    6  A    between atoms: C_20  and  CA_22
REMARK    7  A    between atoms: CA_22  and  CB_23
REMARK    8  A    between atoms: CB_23  and  CG_25
REMARK    9  A    between atoms: CA_24  and  CB_26
REMARK   10  A    between atoms: CA_24  and  C_32
REMARK   11  A    between atoms: CG_25  and  CD_39
REMARK   12  A    between atoms: CB_26  and  CG_27
REMARK   13  A    between atoms: CG_27  and  CD_43
REMARK   14  A    between atoms: C_28  and  C_40
REMARK   15  A    between atoms: C_29  and  C_30
REMARK   16  A    between atoms: C_29  and  C_31
REMARK   17  A    between atoms: C_30  and  C_33
REMARK   18  A    between atoms: C_31  and  C_34
REMARK   19  A    between atoms: C_33  and  C_35
REMARK   20  A    between atoms: C_34  and  C_36
REMARK   21  A    between atoms: C_35  and  C_37
REMARK   22  A    between atoms: C_36  and  C_38
REMARK   23  A    between atoms: C_37  and  C_41
REMARK   24  A    between atoms: C_38  and  C_42
REMARK   25  A    between atoms: C_41  and  C_45
REMARK   26  A    between atoms: C_42  and  C_44
REMARK   27  A    between atoms: C_44  and  C_46
REMARK   28  A    between atoms: C_45  and  C_47
REMARK                            x       y       z     vdW  Elec       q    Type
REMARK                         _______ _______ _______ _____ _____    ______ ____
ROOT
ATOM      1  CA  GLN A   1       0.167   4.604   0.000  0.00  0.00    +0.000 C 
ENDROOT
BRANCH   1   8
ATOM      2  O   GLN A   1       1.596   4.604   0.000  0.00  0.00    +0.000 OA
ATOM      3  N   GLN A   1       0.881   5.842   0.000  0.00  0.00    +0.000 N 
ATOM      4  CA  GLN A   1       1.548   6.319   0.000  0.00  0.00    +0.000 C 
ATOM      5  CB  GLN A   1       1.294   7.097   0.000  0.00  0.00    +0.000 C 
ATOM      6  CG  GLN A   1       0.468   7.097   0.000  0.00  0.00    +0.000 C 
ATOM      7  CD  GLN A   1       0.214   6.319   0.000  0.00  0.00    +0.000 C 
ATOM      8  C   GLN A   1       0.881   5.017   0.000  0.00  0.00    +0.000 C 
BRANCH   4  11
ATOM      9  O   GLN A   1       2.500   5.255   0.000  0.00  0.00    +0.000 OA
ATOM     10  N   ARG A   2       2.929   6.620   0.000  0.00  0.00    +0.000 N 
ATOM     11  C   GLN A   1       2.326   6.065   0.000  0.00  0.00    +0.000 C 
ATOM     12  H   ARG A   2       2.834   7.112   0.000  0.00  0.00    +0.000 HD
BRANCH  10  13
ATOM     13  CA  ARG A   2       3.723   6.366   0.000  0.00  0.00    +0.000 C 
BRANCH  13  16
ATOM     14  O   ARG A   2       5.104   6.652   0.000  0.00  0.00    +0.000 OA
ATOM     15  OXT ARG A   2       4.152   7.716   0.000  0.00  0.00    +0.000 OA
ATOM     16  C   ARG A   2       4.326   6.906   0.000  0.00  0.00    +0.000 C 
ENDBRANCH  13  16
BRANCH  13  17
ATOM     17  CB  ARG A   2       3.882   5.557   0.000  0.00  0.00    +0.000 C 
BRANCH  17  18
ATOM     18  CG  ARG A   2       4.676   5.303   0.000  0.00  0.00    +0.000 C 
BRANCH  18  19
ATOM     19  CD  ARG A   2       4.834   4.509   0.000  0.00  0.00    +0.000 C 
BRANCH  19  20
ATOM     20  NE  ARG A   2       5.628   4.255   0.000  0.00  0.00    +0.000 NA
ATOM     21  NH1 ARG A   2       5.184   2.889   0.000  0.00  0.00    +0.000 N 
ATOM     22  NH2 ARG A   2       6.565   3.191   0.000  0.00  0.00    +0.000 N 
ATOM     23  CZ  ARG A   2       5.787   3.445   0.000  0.00  0.00    +0.000 C 
ATOM     24 HH11 ARG A   2       4.691   3.048   0.000  0.00  0.00    +0.000 HD
ATOM     25 HH12 ARG A   2       5.279   2.397   0.000  0.00  0.00    +0.000 HD
ATOM     26 HH21 ARG A   2       6.946   3.525   0.000  0.00  0.00    +0.000 HD
ATOM     27 HH22 ARG A   2       6.676   2.699   0.000  0.00  0.00    +0.000 HD
ENDBRANCH  19  20
ENDBRANCH  18  19
ENDBRANCH  17  18
ENDBRANCH  13  17
ENDBRANCH  10  13
ENDBRANCH   4  11
ENDBRANCH   1   8
BRANCH   1  29
ATOM     28  O   UNK A   0      -1.262   3.779   0.000  0.00  0.00    +0.000 OA
ATOM     29  N   GLN A   1       0.167   3.779   0.000  0.00  0.00    +0.000 N 
ATOM     30  C   UNK A   0      -0.548   3.366   0.000  0.00  0.00    +0.000 C 
ATOM     31  H   GLN A   1       0.611   3.525   0.000  0.00  0.00    +0.000 HD
BRANCH  30  32
ATOM     32  C   UNK A   0      -0.548   2.556   0.000  0.00  0.00    +0.000 C 
BRANCH  32  34
ATOM     33  O   UNK A   0      -0.548   0.905   0.000  0.00  0.00    +0.000 OA
ATOM     34  N   UNK A   0      -1.262   2.143   0.000  0.00  0.00    +0.000 N 
ATOM     35  C   UNK A   0      -1.262   1.318   0.000  0.00  0.00    +0.000 C 
ATOM     36  H   UNK A   0      -1.691   2.397   0.000  0.00  0.00    +0.000 HD
BRANCH  35  37
ATOM     37  C   UNK A   0      -1.961   0.905   0.000  0.00  0.00    +0.000 C 
BRANCH  37  38
ATOM     38  C   UNK A   0      -1.961   0.079   0.000  0.00  0.00    +0.000 C 
BRANCH  38  39
ATOM     39  C   UNK A   0      -2.675  -0.318   0.000  0.00  0.00    +0.000 C 
BRANCH  39  40
ATOM     40  C   UNK A   0      -2.675  -1.143   0.000  0.00  0.00    +0.000 C 
BRANCH  40  41
ATOM     41  C   UNK A   0      -3.390  -1.556   0.000  0.00  0.00    +0.000 C 
BRANCH  41  42
ATOM     42  C   UNK A   0      -3.390  -2.381   0.000  0.00  0.00    +0.000 C 
BRANCH  42  43
ATOM     43  C   UNK A   0      -4.104  -2.794   0.000  0.00  0.00    +0.000 C 
BRANCH  43  44
ATOM     44  C   UNK A   0      -4.104  -3.604   0.000  0.00  0.00    +0.000 C 
BRANCH  44  45
ATOM     45  C   UNK A   0      -4.818  -4.017   0.000  0.00  0.00    +0.000 C 
BRANCH  45  46
ATOM     46  C   UNK A   0      -4.818  -4.842   0.000  0.00  0.00    +0.000 C 
BRANCH  46  47
ATOM     47  C   UNK A   0      -5.533  -5.255   0.000  0.00  0.00    +0.000 C 
BRANCH  47  48
ATOM     48  C   UNK A   0      -5.533  -6.080   0.000  0.00  0.00    +0.000 C 
BRANCH  48  49
ATOM     49  C   UNK A   0      -6.231  -6.493   0.000  0.00  0.00    +0.000 C 
BRANCH  49  50
ATOM     50  C   UNK A   0      -6.231  -7.303   0.000  0.00  0.00    +0.000 C 
ATOM     51  C   UNK A   0      -6.946  -7.716   0.000  0.00  0.00    +0.000 C 
ENDBRANCH  49  50
ENDBRANCH  48  49
ENDBRANCH  47  48
ENDBRANCH  46  47
ENDBRANCH  45  46
ENDBRANCH  44  45
ENDBRANCH  43  44
ENDBRANCH  42  43
ENDBRANCH  41  42
ENDBRANCH  40  41
ENDBRANCH  39  40
ENDBRANCH  38  39
ENDBRANCH  37  38
ENDBRANCH  35  37
ENDBRANCH  32  34
ENDBRANCH  30  32
ENDBRANCH   1  29
BRANCH   1  52
ATOM     52  CB  GLN A   1      -0.548   5.017   0.000  0.00  0.00    +0.000 C 
BRANCH  52  53
ATOM     53  CG  GLN A   1      -1.262   4.604   0.000  0.00  0.00    +0.000 C 
BRANCH  53  56
ATOM     54  OE1 GLN A   1      -1.961   5.842   0.000  0.00  0.00    +0.000 OA
ATOM     55  NE2 GLN A   1      -2.675   4.604   0.000  0.00  0.00    +0.000 N 
ATOM     56  CD  GLN A   1      -1.961   5.017   0.000  0.00  0.00    +0.000 C 
ATOM     57 HE21 GLN A   1      -2.675   4.096   0.000  0.00  0.00    +0.000 HD
ATOM     58 HE22 GLN A   1      -3.120   4.858   0.000  0.00  0.00    +0.000 HD
ENDBRANCH  53  56
ENDBRANCH  52  53
ENDBRANCH   1  52
TORSDOF 28
