REMARK  Name = 
REMARK  6 active torsions:
REMARK  status: ('A' for Active; 'I' for Inactive)
REMARK    1  A    between atoms: C_5  and  N_18
REMARK    2  A    between atoms: C_6  and  N_18
REMARK    3  A    between atoms: C_9  and  C_10
REMARK    4  A    between atoms: C_9  and  N_18
REMARK    5  A    between atoms: C_10  and  O_19
REMARK    6  A    between atoms: C_12  and  O_19
REMARK                            x       y       z     vdW  Elec       q    Type
REMARK                         _______ _______ _______ _____ _____    ______ ____
ROOT
ATOM      1  C   UNL     1       3.589  -2.421   0.000  0.00  0.00    +0.000 C 
ATOM      2  C   UNL     1       2.875  -3.658   0.000  0.00  0.00    +0.000 C 
ATOM      3  C   UNL     1      -0.383  -1.429   0.000  0.00  0.00    +0.000 A 
ATOM      4  C   UNL     1       0.030  -2.143   0.000  0.00  0.00    +0.000 A 
ATOM      5  C   UNL     1       0.855  -0.715   0.000  0.00  0.00    +0.000 A 
ATOM      6  C   UNL     1       0.030  -0.715   0.000  0.00  0.00    +0.000 A 
ATOM      7  C   UNL     1       0.855  -2.143   0.000  0.00  0.00    +0.000 A 
ATOM      8  C   UNL     1       1.267  -1.429   0.000  0.00  0.00    +0.000 A 
ATOM      9  C   UNL     1       2.160  -2.421   0.000  0.00  0.00    +0.000 A 
ATOM     10  N   UNL     1       1.407  -2.756   0.000  0.00  0.00    +0.000 NA
ATOM     11  N   UNL     1       2.875  -2.833   0.000  0.00  0.00    +0.000 N 
ATOM     12  S   UNL     1       2.074  -1.601   0.000  0.00  0.00    +0.000 S 
ENDROOT
BRANCH   6  13
ATOM     13  O   UNL     1      -0.383   0.000   0.000  0.00  0.00    +0.000 OA
BRANCH  13  14
ATOM     14  C   UNL     1      -1.208   0.000   0.000  0.00  0.00    +0.000 C 
BRANCH  14  15
ATOM     15  C   UNL     1      -1.620   0.715   0.000  0.00  0.00    +0.000 C 
BRANCH  15  16
ATOM     16  N   UNL     1      -2.445   0.715   0.000  0.00  0.00    +0.000 NA
BRANCH  16  18
ATOM     17  C   UNL     1      -3.683   1.429   0.000  0.00  0.00    +0.000 C 
ATOM     18  C   UNL     1      -2.858   1.429   0.000  0.00  0.00    +0.000 C 
ENDBRANCH  16  18
BRANCH  16  20
ATOM     19  C   UNL     1      -3.683   0.000   0.000  0.00  0.00    +0.000 C 
ATOM     20  C   UNL     1      -2.858   0.000   0.000  0.00  0.00    +0.000 C 
ENDBRANCH  16  20
ENDBRANCH  15  16
ENDBRANCH  14  15
ENDBRANCH  13  14
ENDBRANCH   6  13
TORSDOF 6
