REMARK  Name = 
REMARK  6 active torsions:
REMARK  status: ('A' for Active; 'I' for Inactive)
REMARK    1  A    between atoms: C_3  and  N_8
REMARK    2  A    between atoms: N_11  and  C_12
REMARK    3  A    between atoms: C_15  and  C_18
REMARK    4  A    between atoms: C_26  and  C_27
REMARK    5  A    between atoms: N_30  and  C_32
REMARK    6  A    between atoms: C_32  and  C_33
REMARK                            x       y       z     vdW  Elec       q    Type
REMARK                         _______ _______ _______ _____ _____    ______ ____
ROOT
ATOM      1  C   UNL     1      -0.143  -0.030   0.000  0.00  0.00    +0.000 A 
ATOM      2  C   UNL     1      -0.628  -0.698   0.000  0.00  0.00    +0.000 A 
ATOM      3  S   UNL     1      -0.143  -1.365   0.000  0.00  0.00    +0.000 S 
ATOM      4  C   UNL     1       0.641  -1.110   0.000  0.00  0.00    +0.000 A 
ATOM      5  C   UNL     1       0.641  -0.285   0.000  0.00  0.00    +0.000 A 
ATOM      6  C   UNL     1       1.356   0.127   0.000  0.00  0.00    +0.000 A 
ATOM      7  N   UNL     1       2.070  -0.285   0.000  0.00  0.00    +0.000 NA
ATOM      8  C   UNL     1       2.070  -1.110   0.000  0.00  0.00    +0.000 A 
ATOM      9  C   UNL     1       1.356  -1.523   0.000  0.00  0.00    +0.000 A 
ATOM     10  N   UNL     1       1.356   0.952   0.000  0.00  0.00    +0.000 NA
ENDROOT
BRANCH   1  14
ATOM     11  C   UNL     1      -0.908   2.323   0.000  0.00  0.00    +0.000 A 
ATOM     12  C   UNL     1      -0.101   2.152   0.000  0.00  0.00    +0.000 A 
ATOM     13  C   UNL     1       0.154   1.367   0.000  0.00  0.00    +0.000 A 
ATOM     14  C   UNL     1      -0.398   0.754   0.000  0.00  0.00    +0.000 A 
ATOM     15  C   UNL     1      -1.205   0.926   0.000  0.00  0.00    +0.000 A 
ATOM     16  C   UNL     1      -1.460   1.710   0.000  0.00  0.00    +0.000 A 
BRANCH  11  20
ATOM     17  N   UNL     1      -2.225   4.064   0.000  0.00  0.00    +0.000 NA
ATOM     18  C   UNL     1      -1.970   3.280   0.000  0.00  0.00    +0.000 C 
ATOM     19  O   UNL     1      -2.522   2.666   0.000  0.00  0.00    +0.000 OA
ATOM     20  N   UNL     1      -1.163   3.108   0.000  0.00  0.00    +0.000 NA
BRANCH  17  23
ATOM     21  C   UNL     1      -4.094   5.192   0.000  0.00  0.00    +0.000 A 
ATOM     22  C   UNL     1      -3.287   5.020   0.000  0.00  0.00    +0.000 A 
ATOM     23  C   UNL     1      -3.032   4.236   0.000  0.00  0.00    +0.000 A 
ATOM     24  C   UNL     1      -3.584   3.623   0.000  0.00  0.00    +0.000 A 
ATOM     25  C   UNL     1      -4.391   3.794   0.000  0.00  0.00    +0.000 A 
ATOM     26  C   UNL     1      -4.646   4.579   0.000  0.00  0.00    +0.000 A 
ATOM     27  F   UNL     1      -4.943   3.181   0.000  0.00  0.00    +0.000 F 
ENDBRANCH  17  23
ENDBRANCH  11  20
ENDBRANCH   1  14
BRANCH   9  28
ATOM     28  C   UNL     1       1.356  -2.348   0.000  0.00  0.00    +0.000 A 
ATOM     29  C   UNL     1       2.023  -2.833   0.000  0.00  0.00    +0.000 A 
ATOM     30  N   UNL     1       1.768  -3.618   0.000  0.00  0.00    +0.000 NA
ATOM     31  N   UNL     1       0.943  -3.618   0.000  0.00  0.00    +0.000 N 
ATOM     32  C   UNL     1       0.688  -2.833   0.000  0.00  0.00    +0.000 A 
BRANCH  31  33
ATOM     33  C   UNL     1       0.458  -4.285   0.000  0.00  0.00    +0.000 C 
BRANCH  33  34
ATOM     34  C   UNL     1       0.794  -5.039   0.000  0.00  0.00    +0.000 C 
ATOM     35  O   UNL     1       1.614  -5.125   0.000  0.00  0.00    +0.000 OA
ENDBRANCH  33  34
ENDBRANCH  31  33
ENDBRANCH   9  28
TORSDOF 6
