REMARK  Name = 
REMARK  3 active torsions:
REMARK  status: ('A' for Active; 'I' for Inactive)
REMARK    1  A    between atoms: C_1  and  CA_2
REMARK    2  A    between atoms: CA_2  and  C_6
REMARK    3  A    between atoms: C_4  and  C_6
REMARK                            x       y       z     vdW  Elec       q    Type
REMARK                         _______ _______ _______ _____ _____    ______ ____
ROOT
ATOM      1  CA  UNL     1       0.357  -0.206   0.000  0.00  0.00    +0.000 C 
ATOM      2  N   UNL     1       0.357  -1.031   0.000  0.00  0.00    +0.000 NA
ENDROOT
BRANCH   1   3
ATOM      3  C   UNL     1       1.072   0.206   0.000  0.00  0.00    +0.000 C 
ATOM      4  OXT UNL     1       1.786  -0.206   0.000  0.00  0.00    +0.000 OA
ATOM      5  O   UNL     1       1.072   1.031   0.000  0.00  0.00    +0.000 OA
ENDBRANCH   1   3
BRANCH   1   6
ATOM      6  C   UNL     1      -0.357   0.206   0.000  0.00  0.00    +0.000 C 
ATOM      7  C   UNL     1      -0.357   1.031   0.000  0.00  0.00    +0.000 C 
BRANCH   6   8
ATOM      8  C   UNL     1      -1.072  -0.206   0.000  0.00  0.00    +0.000 C 
ATOM      9  O   UNL     1      -1.786   0.206   0.000  0.00  0.00    +0.000 OA
ATOM     10  O   UNL     1      -1.072  -1.031   0.000  0.00  0.00    +0.000 OA
ENDBRANCH   6   8
ENDBRANCH   1   6
TORSDOF 3
