REMARK  Name = 
REMARK  7 active torsions:
REMARK  status: ('A' for Active; 'I' for Inactive)
REMARK    1  A    between atoms: O_3  and  C_16
REMARK    2  A    between atoms: O_3  and  C_20
REMARK    3  A    between atoms: N_6  and  C_10
REMARK    4  A    between atoms: C_10  and  C_11
REMARK    5  A    between atoms: C_10  and  C_12
REMARK    6  A    between atoms: C_11  and  C_15
REMARK    7  A    between atoms: C_20  and  C_21
REMARK                            x       y       z     vdW  Elec       q    Type
REMARK                         _______ _______ _______ _____ _____    ______ ____
ROOT
ATOM      1  C   UNL     1       0.706  -0.825   0.000  0.00  0.00    +0.000 C 
ENDROOT
BRANCH   1   2
ATOM      2  C   UNL     1       0.706  -1.650   0.000  0.00  0.00    +0.000 A 
ATOM      3  C   UNL     1       1.420  -2.063   0.000  0.00  0.00    +0.000 A 
ATOM      4  C   UNL     1      -0.009  -2.063   0.000  0.00  0.00    +0.000 A 
ATOM      5  C   UNL     1       1.420  -2.888   0.000  0.00  0.00    +0.000 A 
ATOM      6  C   UNL     1      -0.009  -2.888   0.000  0.00  0.00    +0.000 A 
ATOM      7  C   UNL     1       0.706  -3.300   0.000  0.00  0.00    +0.000 A 
ENDBRANCH   1   2
BRANCH   1   9
ATOM      8  O   UNL     1       0.706   0.825   0.000  0.00  0.00    +0.000 OA
ATOM      9  N   UNL     1       1.420  -0.412   0.000  0.00  0.00    +0.000 N 
ATOM     10  C   UNL     1       1.420   0.412   0.000  0.00  0.00    +0.000 C 
ATOM     11  H   UNL     1       1.863  -0.668   0.000  0.00  0.00    +0.000 HD
BRANCH  10  12
ATOM     12  O   UNL     1       2.135   0.825   0.000  0.00  0.00    +0.000 OA
BRANCH  12  13
ATOM     13  C   UNL     1       2.135   1.650   0.000  0.00  0.00    +0.000 C 
BRANCH  13  14
ATOM     14  C   UNL     1       2.849   2.063   0.000  0.00  0.00    +0.000 A 
ATOM     15  C   UNL     1       2.849   2.888   0.000  0.00  0.00    +0.000 A 
ATOM     16  C   UNL     1       3.564   1.650   0.000  0.00  0.00    +0.000 A 
ATOM     17  C   UNL     1       3.564   3.300   0.000  0.00  0.00    +0.000 A 
ATOM     18  C   UNL     1       4.278   2.063   0.000  0.00  0.00    +0.000 A 
ATOM     19  C   UNL     1       4.278   2.888   0.000  0.00  0.00    +0.000 A 
ENDBRANCH  13  14
ENDBRANCH  12  13
ENDBRANCH  10  12
ENDBRANCH   1   9
BRANCH   1  20
ATOM     20  C   UNL     1      -0.009  -0.412   0.000  0.00  0.00    +0.000 C 
BRANCH  20  27
ATOM     21  S   UNL     1      -2.906  -0.489   0.000  0.00  0.00    +0.000 S 
ATOM     22  S   UNL     1      -4.278  -1.016   0.000  0.00  0.00    +0.000 S 
ATOM     23  O   UNL     1      -0.723  -1.650   0.000  0.00  0.00    +0.000 OA
ATOM     24  N   UNL     1      -1.438  -0.412   0.000  0.00  0.00    +0.000 N 
ATOM     25  N   UNL     1      -2.238  -1.645   0.000  0.00  0.00    +0.000 NA
ATOM     26  N   UNL     1      -3.045  -1.817   0.000  0.00  0.00    +0.000 N 
ATOM     27  C   UNL     1      -0.723  -0.825   0.000  0.00  0.00    +0.000 C 
ATOM     28  C   UNL     1      -2.152  -0.825   0.000  0.00  0.00    +0.000 A 
ATOM     29  C   UNL     1      -3.458  -1.103   0.000  0.00  0.00    +0.000 A 
ATOM     30  H   UNL     1      -1.438   0.099   0.000  0.00  0.00    +0.000 HD
ATOM     31  H   UNL     1      -3.253  -2.284   0.000  0.00  0.00    +0.000 HD
ENDBRANCH  20  27
ENDBRANCH   1  20
TORSDOF 7
