REMARK  Name = 
REMARK  5 active torsions:
REMARK  status: ('A' for Active; 'I' for Inactive)
REMARK    1  A    between atoms: C_3  and  O_4
REMARK    2  A    between atoms: O_4  and  C_5
REMARK    3  A    between atoms: N_9  and  C_10
REMARK    4  A    between atoms: C_10  and  C_11
REMARK    5  A    between atoms: C_10  and  C_14
REMARK                            x       y       z     vdW  Elec       q    Type
REMARK                         _______ _______ _______ _____ _____    ______ ____
ROOT
ATOM      1  O   UNL     1      -1.242  -0.238   0.000  0.00  0.00    +0.000 OA
ATOM      2  C   UNL     1      -0.752   0.203   0.000  0.00  0.00    +0.000 C 
ATOM      3  N   UNL     1       0.032  -0.052   0.000  0.00  0.00    +0.000 N 
ATOM      4  H   UNL     1       0.441   0.316   0.000  0.00  0.00    +0.000 HD
ENDROOT
BRANCH   2   5
ATOM      5  O   UNL     1      -0.924   1.010   0.000  0.00  0.00    +0.000 OA
BRANCH   5   6
ATOM      6  C   UNL     1      -1.709   1.265   0.000  0.00  0.00    +0.000 C 
ATOM      7  C   UNL     1      -2.322   0.713   0.000  0.00  0.00    +0.000 C 
ATOM      8  C   UNL     1      -1.083   1.827   0.000  0.00  0.00    +0.000 C 
ATOM      9  C   UNL     1      -1.881   2.072   0.000  0.00  0.00    +0.000 C 
ENDBRANCH   5   6
ENDBRANCH   2   5
BRANCH   3  10
ATOM     10  C   UNL     1       0.204  -0.859   0.000  0.00  0.00    +0.000 C 
BRANCH  10  12
ATOM     11  C   UNL     1       2.067  -1.898   0.000  0.00  0.00    +0.000 A 
ATOM     12  C   UNL     1       0.988  -1.113   0.000  0.00  0.00    +0.000 A 
ATOM     13  O   UNL     1       1.242  -1.898   0.000  0.00  0.00    +0.000 OA
ATOM     14  N   UNL     1       2.322  -1.113   0.000  0.00  0.00    +0.000 NA
ATOM     15  N   UNL     1       1.655  -0.629   0.000  0.00  0.00    +0.000 NA
ENDBRANCH  10  12
BRANCH  10  16
ATOM     16  C   UNL     1      -0.408  -1.411   0.000  0.00  0.00    +0.000 C 
ATOM     17  C   UNL     1      -1.231  -1.630   0.000  0.00  0.00    +0.000 C 
ATOM     18  C   UNL     1       0.128  -2.072   0.000  0.00  0.00    +0.000 C 
ENDBRANCH  10  16
ENDBRANCH   3  10
TORSDOF 5
