REMARK  Name = 
REMARK  9 active torsions:
REMARK  status: ('A' for Active; 'I' for Inactive)
REMARK    1  A    between atoms: C_1  and  CA_3
REMARK    2  A    between atoms: CA_3  and  C_4
REMARK    3  A    between atoms: CA_3  and  N_12
REMARK    4  A    between atoms: C_4  and  C_6
REMARK    5  A    between atoms: C_6  and  C_8
REMARK    6  A    between atoms: C_8  and  C_10
REMARK    7  A    between atoms: C_13  and  C_14
REMARK    8  A    between atoms: C_17  and  N_21
REMARK    9  A    between atoms: C_19  and  N_28
REMARK                            x       y       z     vdW  Elec       q    Type
REMARK                         _______ _______ _______ _____ _____    ______ ____
ROOT
ATOM      1  C   UNL     1      -0.431   0.717   0.000  0.00  0.00    +0.000 A 
ATOM      2  C   UNL     1      -1.226   0.717   0.000  0.00  0.00    +0.000 A 
ATOM      3  C   UNL     1      -1.657   0.004   0.000  0.00  0.00    +0.000 A 
ATOM      4  C   UNL     1      -1.226  -0.717   0.000  0.00  0.00    +0.000 A 
ATOM      5  C   UNL     1      -0.401  -0.717   0.000  0.00  0.00    +0.000 A 
ATOM      6  C   UNL     1       0.000   0.004   0.000  0.00  0.00    +0.000 A 
ATOM      7  I   UNL     1      -1.657   1.430   0.000  0.00  0.00    +0.000 I 
ATOM      8  I   UNL     1      -1.657  -1.460   0.000  0.00  0.00    +0.000 I 
ATOM      9  I   UNL     1       0.832   0.004   0.000  0.00  0.00    +0.000 I 
ENDROOT
BRANCH   5  10
ATOM     10  N   UNL     1       0.000  -1.430   0.000  0.00  0.00    +0.000 N 
ATOM     11  C   UNL     1      -0.401  -2.143   0.000  0.00  0.00    +0.000 C 
ATOM     12  O   UNL     1      -1.226  -2.173   0.000  0.00  0.00    +0.000 OA
ATOM     13  C   UNL     1       0.000  -2.857   0.000  0.00  0.00    +0.000 C 
ATOM     14  C   UNL     1       0.854  -1.430   0.000  0.00  0.00    +0.000 C 
ENDBRANCH   5  10
BRANCH   3  15
ATOM     15  N   UNL     1      -2.489  -0.026   0.000  0.00  0.00    +0.000 NA
ATOM     16  C   UNL     1      -2.883  -0.717   0.000  0.00  0.00    +0.000 C 
ATOM     17  O   UNL     1      -3.715  -0.739   0.000  0.00  0.00    +0.000 OA
ATOM     18  C   UNL     1      -2.489  -1.430   0.000  0.00  0.00    +0.000 C 
ENDBRANCH   3  15
BRANCH   1  20
ATOM     19  N   UNL     1       0.832   1.430   0.000  0.00  0.00    +0.000 NA
ATOM     20  C   UNL     1       0.000   1.430   0.000  0.00  0.00    +0.000 C 
ATOM     21  O   UNL     1      -0.431   2.143   0.000  0.00  0.00    +0.000 OA
BRANCH  19  22
ATOM     22  CA  UNL     1       1.256   2.143   0.000  0.00  0.00    +0.000 C 
BRANCH  22  23
ATOM     23  C   UNL     1       0.832   2.857   0.000  0.00  0.00    +0.000 C 
ATOM     24  O   UNL     1       0.000   2.857   0.000  0.00  0.00    +0.000 OA
ENDBRANCH  22  23
BRANCH  22  25
ATOM     25  C   UNL     1       2.058   2.143   0.000  0.00  0.00    +0.000 C 
ATOM     26  O   UNL     1       2.489   2.857   0.000  0.00  0.00    +0.000 OA
BRANCH  25  27
ATOM     27  C   UNL     1       2.489   1.430   0.000  0.00  0.00    +0.000 C 
ATOM     28  O   UNL     1       2.058   0.717   0.000  0.00  0.00    +0.000 OA
BRANCH  27  29
ATOM     29  C   UNL     1       3.313   1.430   0.000  0.00  0.00    +0.000 C 
ATOM     30  O   UNL     1       3.715   2.143   0.000  0.00  0.00    +0.000 OA
BRANCH  29  31
ATOM     31  C   UNL     1       3.715   0.717   0.000  0.00  0.00    +0.000 C 
ATOM     32  O   UNL     1       3.313   0.004   0.000  0.00  0.00    +0.000 OA
ENDBRANCH  29  31
ENDBRANCH  27  29
ENDBRANCH  25  27
ENDBRANCH  22  25
ENDBRANCH  19  22
ENDBRANCH   1  20
TORSDOF 9
