REMARK  Name = 
REMARK  3 active torsions:
REMARK  status: ('A' for Active; 'I' for Inactive)
REMARK    1  A    between atoms: C_1  and  C_2
REMARK    2  A    between atoms: C_2  and  C_3
REMARK    3  A    between atoms: C_16  and  C_21
REMARK                            x       y       z     vdW  Elec       q    Type
REMARK                         _______ _______ _______ _____ _____    ______ ____
ROOT
ATOM      1  C   UNL     1       1.840  -0.932   0.000  0.00  0.00    +0.000 C 
ATOM      2  O   UNL     1       2.095  -1.716   0.000  0.00  0.00    +0.000 OA
ATOM      3  N   UNL     1       1.033  -0.760   0.000  0.00  0.00    +0.000 NA
ATOM      4  N   UNL     1       1.263   0.692   0.000  0.00  0.00    +0.000 NA
ATOM      5  N   UNL     1       0.778   1.359   0.000  0.00  0.00    +0.000 NA
ATOM      6  C   UNL     1      -0.006   1.104   0.000  0.00  0.00    +0.000 A 
ATOM      7  C   UNL     1      -0.006   0.279   0.000  0.00  0.00    +0.000 A 
ATOM      8  C   UNL     1       0.778   0.024   0.000  0.00  0.00    +0.000 A 
ATOM      9  N   UNL     1      -1.276   0.692   0.000  0.00  0.00    +0.000 N 
ATOM     10  C   UNL     1      -0.791   1.359   0.000  0.00  0.00    +0.000 C 
ATOM     11  C   UNL     1      -0.791   0.024   0.000  0.00  0.00    +0.000 C 
ATOM     12  C   UNL     1      -2.101   0.692   0.000  0.00  0.00    +0.000 C 
ATOM     13  O   UNL     1      -2.514   1.406   0.000  0.00  0.00    +0.000 OA
ATOM     14  C   UNL     1      -1.404   1.911   0.000  0.00  0.00    +0.000 C 
ATOM     15  C   UNL     1      -0.620   2.166   0.000  0.00  0.00    +0.000 C 
ENDROOT
BRANCH  12  19
ATOM     16  N   UNL     1      -3.339  -1.452   0.000  0.00  0.00    +0.000 NA
ATOM     17  C   UNL     1      -3.751  -0.737   0.000  0.00  0.00    +0.000 C 
ATOM     18  C   UNL     1      -3.339  -0.023   0.000  0.00  0.00    +0.000 C 
ATOM     19  C   UNL     1      -2.514  -0.023   0.000  0.00  0.00    +0.000 C 
ATOM     20  C   UNL     1      -2.101  -0.737   0.000  0.00  0.00    +0.000 C 
ATOM     21  C   UNL     1      -2.514  -1.452   0.000  0.00  0.00    +0.000 C 
ATOM     22  C   UNL     1      -3.751  -2.166   0.000  0.00  0.00    +0.000 C 
ENDBRANCH  12  19
BRANCH   1  23
ATOM     23  C   UNL     1       2.392  -0.319   0.000  0.00  0.00    +0.000 C 
BRANCH  23  24
ATOM     24  C   UNL     1       3.199  -0.490   0.000  0.00  0.00    +0.000 C 
ATOM     25  C   UNL     1       3.454  -1.275   0.000  0.00  0.00    +0.000 C 
ATOM     26  C   UNL     1       3.751   0.123   0.000  0.00  0.00    +0.000 C 
ENDBRANCH  23  24
ENDBRANCH   1  23
TORSDOF 3
