REMARK  Name = 
REMARK  4 active torsions:
REMARK  status: ('A' for Active; 'I' for Inactive)
REMARK    1  A    between atoms: N_1  and  C_13
REMARK    2  A    between atoms: N_4  and  C_5
REMARK    3  A    between atoms: C_8  and  C_11
REMARK    4  A    between atoms: C_15  and  C_20
REMARK                            x       y       z     vdW  Elec       q    Type
REMARK                         _______ _______ _______ _____ _____    ______ ____
ROOT
ATOM      1  C   UNL     1      -0.507   0.000   0.000  0.00  0.00    +0.000 C 
ATOM      2  C   UNL     1      -1.331   0.000   0.000  0.00  0.00    +0.000 C 
ATOM      3  C   UNL     1      -1.743  -0.715   0.000  0.00  0.00    +0.000 C 
ATOM      4  N   UNL     1      -1.331  -1.430   0.000  0.00  0.00    +0.000 NA
ATOM      5  C   UNL     1      -0.507  -1.430   0.000  0.00  0.00    +0.000 C 
ATOM      6  C   UNL     1      -0.096  -0.715   0.000  0.00  0.00    +0.000 C 
ATOM      7  C   UNL     1      -1.743  -2.145   0.000  0.00  0.00    +0.000 C 
ENDROOT
BRANCH   3   8
ATOM      8  C   UNL     1      -2.567  -0.715   0.000  0.00  0.00    +0.000 A 
ATOM      9  N   UNL     1      -3.055  -0.048   0.000  0.00  0.00    +0.000 NA
ATOM     10  C   UNL     1      -3.838  -0.303   0.000  0.00  0.00    +0.000 A 
ATOM     11  C   UNL     1      -3.838  -1.127   0.000  0.00  0.00    +0.000 A 
ATOM     12  N   UNL     1      -3.055  -1.382   0.000  0.00  0.00    +0.000 NA
ATOM     13  C   UNL     1      -4.553  -1.539   0.000  0.00  0.00    +0.000 A 
ATOM     14  C   UNL     1      -5.268  -1.127   0.000  0.00  0.00    +0.000 A 
ATOM     15  C   UNL     1      -5.268  -0.303   0.000  0.00  0.00    +0.000 A 
ATOM     16  C   UNL     1      -4.553   0.109   0.000  0.00  0.00    +0.000 A 
ENDBRANCH   3   8
BRANCH   1  17
ATOM     17  N   UNL     1      -0.096   0.715   0.000  0.00  0.00    +0.000 NA
ATOM     18  C   UNL     1       0.733   0.715   0.000  0.00  0.00    +0.000 C 
ATOM     19  O   UNL     1       1.145   0.000   0.000  0.00  0.00    +0.000 OA
ATOM     20  N   UNL     1       1.145   1.430   0.000  0.00  0.00    +0.000 NA
BRANCH  20  21
ATOM     21  C   UNL     1       1.969   1.430   0.000  0.00  0.00    +0.000 A 
ATOM     22  C   UNL     1       2.380   2.145   0.000  0.00  0.00    +0.000 A 
ATOM     23  C   UNL     1       3.204   2.145   0.000  0.00  0.00    +0.000 A 
ATOM     24  C   UNL     1       3.616   1.430   0.000  0.00  0.00    +0.000 A 
ATOM     25  C   UNL     1       3.204   0.715   0.000  0.00  0.00    +0.000 A 
ATOM     26  C   UNL     1       2.380   0.715   0.000  0.00  0.00    +0.000 A 
BRANCH  24  27
ATOM     27  C   UNL     1       4.440   1.430   0.000  0.00  0.00    +0.000 C 
ATOM     28  N   UNL     1       5.268   1.430   0.000  0.00  0.00    +0.000 NA
ENDBRANCH  24  27
ENDBRANCH  20  21
ENDBRANCH   1  17
TORSDOF 4
