REMARK  Name = 
REMARK  3 active torsions:
REMARK  status: ('A' for Active; 'I' for Inactive)
REMARK    1  A    between atoms: C_1  and  N_2
REMARK    2  A    between atoms: C_1  and  C_10
REMARK    3  A    between atoms: C_8  and  C_18
REMARK                            x       y       z     vdW  Elec       q    Type
REMARK                         _______ _______ _______ _____ _____    ______ ____
ROOT
ATOM      1  N   UNL     1      -0.296  -0.467   0.000  0.00  0.00    +0.000 NA
ATOM      2  C   UNL     1       0.416  -0.050   0.000  0.00  0.00    +0.000 C 
ATOM      3  N   UNL     1       0.536   0.763   0.000  0.00  0.00    +0.000 NA
ATOM      4  S   UNL     1       1.160  -0.416   0.000  0.00  0.00    +0.000 S 
ATOM      5  C   UNL     1       1.343   0.908   0.000  0.00  0.00    +0.000 C 
ATOM      6  O   UNL     1       1.557   1.702   0.000  0.00  0.00    +0.000 OA
ATOM      7  C   UNL     1       1.734   0.176   0.000  0.00  0.00    +0.000 C 
ATOM      8  C   UNL     1       2.314  -0.403   0.000  0.00  0.00    +0.000 C 
ENDROOT
BRANCH   7   9
ATOM      9  C   UNL     1       2.396   0.668   0.000  0.00  0.00    +0.000 C 
ATOM     10  F   UNL     1       3.152   0.340   0.000  0.00  0.00    +0.000 F 
ATOM     11  F   UNL     1       2.301   1.488   0.000  0.00  0.00    +0.000 F 
ATOM     12  F   UNL     1       3.108   1.084   0.000  0.00  0.00    +0.000 F 
ENDBRANCH   7   9
BRANCH   1  13
ATOM     13  C   UNL     1      -1.009  -0.050   0.000  0.00  0.00    +0.000 C 
ATOM     14  C   UNL     1      -1.009   0.769   0.000  0.00  0.00    +0.000 C 
BRANCH  13  15
ATOM     15  C   UNL     1      -1.721  -0.467   0.000  0.00  0.00    +0.000 A 
ATOM     16  C   UNL     1      -2.440  -0.050   0.000  0.00  0.00    +0.000 A 
ATOM     17  C   UNL     1      -3.152  -0.467   0.000  0.00  0.00    +0.000 A 
ATOM     18  C   UNL     1      -3.152  -1.292   0.000  0.00  0.00    +0.000 A 
ATOM     19  C   UNL     1      -2.440  -1.702   0.000  0.00  0.00    +0.000 A 
ATOM     20  C   UNL     1      -1.721  -1.292   0.000  0.00  0.00    +0.000 A 
ATOM     21  F   UNL     1      -2.440   0.769   0.000  0.00  0.00    +0.000 F 
ENDBRANCH  13  15
ENDBRANCH   1  13
TORSDOF 3
