REMARK  Name = 
REMARK  8 active torsions:
REMARK  status: ('A' for Active; 'I' for Inactive)
REMARK    1  A    between atoms: C_4  and  N_36
REMARK    2  A    between atoms: C_8  and  C_9
REMARK    3  A    between atoms: C_9  and  C_10
REMARK    4  A    between atoms: C_10  and  S_11
REMARK    5  A    between atoms: S_11  and  N_14
REMARK    6  A    between atoms: C_21  and  C_25
REMARK    7  A    between atoms: C_28  and  O_29
REMARK    8  A    between atoms: O_29  and  C_30
REMARK                            x       y       z     vdW  Elec       q    Type
REMARK                         _______ _______ _______ _____ _____    ______ ____
ROOT
ATOM      1  S   UNL     1       3.744   0.412   0.000  0.00  0.00    +0.000 S 
ATOM      2  O   UNL     1       3.744  -0.412   0.000  0.00  0.00    +0.000 OA
ATOM      3  O   UNL     1       3.744   1.238   0.000  0.00  0.00    +0.000 OA
ENDROOT
BRANCH   1   4
ATOM      4  N   UNL     1       2.920   0.412   0.000  0.00  0.00    +0.000 NA
ATOM      5  C   UNL     1       2.507  -0.302   0.000  0.00  0.00    +0.000 C 
ATOM      6  C   UNL     1       1.682  -0.302   0.000  0.00  0.00    +0.000 C 
ATOM      7  C   UNL     1       1.270   0.412   0.000  0.00  0.00    +0.000 C 
ATOM      8  C   UNL     1       1.682   1.127   0.000  0.00  0.00    +0.000 C 
ATOM      9  C   UNL     1       2.507   1.127   0.000  0.00  0.00    +0.000 C 
ATOM     10  N   UNL     1       0.785  -0.255   0.000  0.00  0.00    +0.000 NA
ATOM     11  C   UNL     1       0.000   0.000   0.000  0.00  0.00    +0.000 C 
ATOM     12  N   UNL     1       0.000   0.825   0.000  0.00  0.00    +0.000 NA
ATOM     13  C   UNL     1       0.785   1.080   0.000  0.00  0.00    +0.000 C 
ATOM     14  O   UNL     1       1.040   1.865   0.000  0.00  0.00    +0.000 OA
BRANCH  11  15
ATOM     15  C   UNL     1      -0.667  -0.485   0.000  0.00  0.00    +0.000 A 
ATOM     16  C   UNL     1      -0.581  -1.305   0.000  0.00  0.00    +0.000 A 
ATOM     17  C   UNL     1      -1.249  -1.790   0.000  0.00  0.00    +0.000 A 
ATOM     18  C   UNL     1      -2.002  -1.455   0.000  0.00  0.00    +0.000 A 
ATOM     19  C   UNL     1      -2.089  -0.634   0.000  0.00  0.00    +0.000 A 
ATOM     20  C   UNL     1      -1.421  -0.149   0.000  0.00  0.00    +0.000 A 
BRANCH  18  21
ATOM     21  O   UNL     1      -2.670  -1.940   0.000  0.00  0.00    +0.000 OA
BRANCH  21  22
ATOM     22  C   UNL     1      -3.423  -1.604   0.000  0.00  0.00    +0.000 C 
ATOM     23  F   UNL     1      -4.177  -1.269   0.000  0.00  0.00    +0.000 F 
ATOM     24  F   UNL     1      -3.759  -2.358   0.000  0.00  0.00    +0.000 F 
ATOM     25  F   UNL     1      -3.088  -0.851   0.000  0.00  0.00    +0.000 F 
ENDBRANCH  21  22
ENDBRANCH  18  21
ENDBRANCH  11  15
ENDBRANCH   1   4
BRANCH   1  26
ATOM     26  C   UNL     1       4.569   0.412   0.000  0.00  0.00    +0.000 C 
BRANCH  26  27
ATOM     27  C   UNL     1       4.982  -0.302   0.000  0.00  0.00    +0.000 C 
BRANCH  27  35
ATOM     28  C   UNL     1       5.807   1.127   0.000  0.00  0.00    +0.000 C 
ATOM     29  C   UNL     1       6.220   0.412   0.000  0.00  0.00    +0.000 A 
ATOM     30  C   UNL     1       7.045   0.412   0.000  0.00  0.00    +0.000 A 
ATOM     31  C   UNL     1       7.457  -0.302   0.000  0.00  0.00    +0.000 A 
ATOM     32  C   UNL     1       7.045  -1.016   0.000  0.00  0.00    +0.000 A 
ATOM     33  C   UNL     1       6.220  -1.016   0.000  0.00  0.00    +0.000 A 
ATOM     34  C   UNL     1       5.807  -1.731   0.000  0.00  0.00    +0.000 C 
ATOM     35  C   UNL     1       5.807  -0.302   0.000  0.00  0.00    +0.000 A 
BRANCH  31  36
ATOM     36  N   UNL     1       8.282  -0.302   0.000  0.00  0.00    +0.000 N 
ATOM     37  C   UNL     1       8.767   0.365   0.000  0.00  0.00    +0.000 C 
ATOM     38  O   UNL     1       8.512   1.150   0.000  0.00  0.00    +0.000 OA
ATOM     39  N   UNL     1       9.552   0.111   0.000  0.00  0.00    +0.000 NA
ATOM     40  C   UNL     1       9.552  -0.715   0.000  0.00  0.00    +0.000 C 
ATOM     41  O   UNL     1      10.219  -1.199   0.000  0.00  0.00    +0.000 OA
ATOM     42  C   UNL     1       8.767  -0.969   0.000  0.00  0.00    +0.000 C 
ATOM     43  C   UNL     1       8.930  -1.778   0.000  0.00  0.00    +0.000 C 
ATOM     44  C   UNL     1       8.160  -1.528   0.000  0.00  0.00    +0.000 C 
ENDBRANCH  31  36
ENDBRANCH  27  35
ENDBRANCH  26  27
ENDBRANCH   1  26
TORSDOF 8
