REMARK  Name = 
REMARK  16 active torsions:
REMARK  status: ('A' for Active; 'I' for Inactive)
REMARK    1  A    between atoms: SG_1  and  CB_17
REMARK    2  A    between atoms: SG_1  and  C_18
REMARK    3  A    between atoms: O_2  and  C_22
REMARK    4  A    between atoms: O_2  and  C_28
REMARK    5  A    between atoms: N_12  and  CA_16
REMARK    6  A    between atoms: N_13  and  CA_27
REMARK    7  A    between atoms: N_15  and  C_34
REMARK    8  A    between atoms: CA_16  and  CB_17
REMARK    9  A    between atoms: CA_16  and  C_23
REMARK   10  A    between atoms: C_18  and  C_22
REMARK   11  A    between atoms: C_18  and  C_25
REMARK   12  A    between atoms: C_19  and  C_20
REMARK   13  A    between atoms: C_19  and  C_21
REMARK   14  A    between atoms: C_20  and  CA_24
REMARK   15  A    between atoms: CA_24  and  C_26
REMARK   16  A    between atoms: CA_27  and  C_31
REMARK                            x       y       z     vdW  Elec       q    Type
REMARK                         _______ _______ _______ _____ _____    ______ ____
ROOT
ATOM      1  CA  UNL     1       1.072  -1.522   0.000  0.00  0.00    +0.000 C 
ENDROOT
BRANCH   1   3
ATOM      2  O   UNL     1      -0.357  -2.347   0.000  0.00  0.00    +0.000 OA
ATOM      3  N   UNL     1       0.357  -1.110   0.000  0.00  0.00    +0.000 NA
ATOM      4  C   UNL     1      -0.357  -1.522   0.000  0.00  0.00    +0.000 C 
BRANCH   4   5
ATOM      5  C   UNL     1      -1.072  -1.110   0.000  0.00  0.00    +0.000 C 
BRANCH   5   6
ATOM      6  C   UNL     1      -1.786  -1.522   0.000  0.00  0.00    +0.000 C 
BRANCH   6   8
ATOM      7  N   UNL     1      -2.501  -0.285   0.000  0.00  0.00    +0.000 NA
ATOM      8  CA  UNL     1      -2.501  -1.110   0.000  0.00  0.00    +0.000 C 
BRANCH   8  11
ATOM      9  O   UNL     1      -3.930  -1.110   0.000  0.00  0.00    +0.000 OA
ATOM     10  OXT UNL     1      -3.215  -2.347   0.000  0.00  0.00    +0.000 OA
ATOM     11  C   UNL     1      -3.215  -1.522   0.000  0.00  0.00    +0.000 C 
ENDBRANCH   8  11
ENDBRANCH   6   8
ENDBRANCH   5   6
ENDBRANCH   4   5
ENDBRANCH   1   3
BRANCH   1  14
ATOM     12  O   UNL     1       0.357  -2.760   0.000  0.00  0.00    +0.000 OA
ATOM     13  N   UNL     1       1.786  -2.760   0.000  0.00  0.00    +0.000 NA
ATOM     14  C   ACE A   1       1.072  -2.347   0.000  0.00  0.00    +0.000 C 
BRANCH  13  15
ATOM     15  CA  UNL     1       1.786  -3.585   0.000  0.00  0.00    +0.000 C 
BRANCH  15  18
ATOM     16  O   UNL     1       2.501  -4.822   0.000  0.00  0.00    +0.000 OA
ATOM     17  OXT UNL     1       3.215  -3.585   0.000  0.00  0.00    +0.000 OA
ATOM     18  C   UNL     1       2.501  -3.997   0.000  0.00  0.00    +0.000 C 
ENDBRANCH  15  18
ENDBRANCH  13  15
ENDBRANCH   1  14
BRANCH   1  19
ATOM     19  CB  UNL     1       1.786  -1.110   0.000  0.00  0.00    +0.000 C 
BRANCH  19  20
ATOM     20  SG  UNL     1       1.786  -0.285   0.000  0.00  0.00    +0.000 S 
BRANCH  20  21
ATOM     21  C   UNL     1       2.501   0.128   0.000  0.00  0.00    +0.000 C 
BRANCH  21  23
ATOM     22  O   UNL     1       3.215  -1.110   0.000  0.00  0.00    +0.000 OA
ATOM     23  C   UNL     1       3.215  -0.285   0.000  0.00  0.00    +0.000 C 
ENDBRANCH  21  23
BRANCH  21  24
ATOM     24  C   UNL     1       2.501   0.953   0.000  0.00  0.00    +0.000 C 
BRANCH  24  25
ATOM     25  O   UNL     1       3.215   1.365   0.000  0.00  0.00    +0.000 OA
BRANCH  25  26
ATOM     26  C   UNL     1       3.215   2.190   0.000  0.00  0.00    +0.000 A 
ATOM     27  C   UNL     1       3.929   2.603   0.000  0.00  0.00    +0.000 A 
ATOM     28  C   UNL     1       2.501   2.603   0.000  0.00  0.00    +0.000 A 
ATOM     29  C   UNL     1       3.929   3.428   0.000  0.00  0.00    +0.000 A 
ATOM     30  C   UNL     1       2.501   3.428   0.000  0.00  0.00    +0.000 A 
ATOM     31  C   UNL     1       3.215   3.840   0.000  0.00  0.00    +0.000 A 
BRANCH  31  34
ATOM     32  O   UNL     1       3.929   5.078   0.000  0.00  0.00    +0.000 OA
ATOM     33  O   UNL     1       2.501   5.078   0.000  0.00  0.00    +0.000 OA
ATOM     34  N   UNL     1       3.215   4.665   0.000  0.00  0.00    +0.000 N 
ENDBRANCH  31  34
ENDBRANCH  25  26
ENDBRANCH  24  25
ENDBRANCH  21  24
ENDBRANCH  20  21
ENDBRANCH  19  20
ENDBRANCH   1  19
TORSDOF 16
