REMARK  Name = 
REMARK  0 active torsions:
REMARK  status: ('A' for Active; 'I' for Inactive)
REMARK                            x       y       z     vdW  Elec       q    Type
REMARK                         _______ _______ _______ _____ _____    ______ ____
ROOT
ATOM      1  N   UNL     1      -3.230  -3.069   0.000  0.00  0.00    +0.000 NA
ATOM      2  C   UNL     1      -3.945  -2.656   0.000  0.00  0.00    +0.000 A 
ATOM      3  N   UNL     1      -3.945  -1.831   0.000  0.00  0.00    +0.000 NA
ATOM      4  C   UNL     1      -3.230  -1.419   0.000  0.00  0.00    +0.000 A 
ATOM      5  C   UNL     1      -2.516  -1.831   0.000  0.00  0.00    +0.000 A 
ATOM      6  C   UNL     1      -2.516  -2.656   0.000  0.00  0.00    +0.000 A 
ATOM      7  N   UNL     1      -3.230  -0.594   0.000  0.00  0.00    +0.000 NA
ATOM      8  C   UNL     1      -2.516  -0.181   0.000  0.00  0.00    +0.000 C 
ATOM      9  C   UNL     1      -1.801  -0.594   0.000  0.00  0.00    +0.000 C 
ATOM     10  N   UNL     1      -1.801  -1.419   0.000  0.00  0.00    +0.000 NA
ATOM     11  O   UNL     1      -2.516   0.643   0.000  0.00  0.00    +0.000 OA
ATOM     12  C   UNL     1      -1.801   1.056   0.000  0.00  0.00    +0.000 C 
ATOM     13  C   UNL     1      -1.801   1.881   0.000  0.00  0.00    +0.000 C 
ATOM     14  O   UNL     1      -2.516   2.293   0.000  0.00  0.00    +0.000 OA
ATOM     15  N   UNL     1      -4.659  -3.069   0.000  0.00  0.00    +0.000 NA
ATOM     16  O   UNL     1      -1.801  -3.069   0.000  0.00  0.00    +0.000 OA
ATOM     17  P   UNL     1      -2.516   3.119   0.000  0.00  0.00    +0.000 P 
ATOM     18  O   UNL     1      -2.516   3.943   0.000  0.00  0.00    +0.000 OA
ATOM     19  O   UNL     1      -3.341   3.119   0.000  0.00  0.00    +0.000 OA
ATOM     20  C   UNL     1      -1.087   0.643   0.000  0.00  0.00    +0.000 C 
ATOM     21  S   UNL     1      -0.302   0.898   0.000  0.00  0.00    +0.000 S 
ATOM     22  C   UNL     1      -1.087  -0.181   0.000  0.00  0.00    +0.000 C 
ATOM     23  W   UNL     1       0.183   0.231   0.000  0.00  0.00    +0.000 W 
ATOM     24  S   UNL     1      -0.302  -0.436   0.000  0.00  0.00    +0.000 S 
ATOM     25  S   UNL     1       0.667  -0.436   0.000  0.00  0.00    +0.000 S 
ATOM     26  S   UNL     1       0.667   0.898   0.000  0.00  0.00    +0.000 S 
ATOM     27  N   UNL     1       3.595  -3.069   0.000  0.00  0.00    +0.000 NA
ATOM     28  C   UNL     1       4.310  -2.656   0.000  0.00  0.00    +0.000 A 
ATOM     29  N   UNL     1       4.310  -1.831   0.000  0.00  0.00    +0.000 NA
ATOM     30  C   UNL     1       3.595  -1.419   0.000  0.00  0.00    +0.000 A 
ATOM     31  C   UNL     1       2.881  -1.831   0.000  0.00  0.00    +0.000 A 
ATOM     32  C   UNL     1       2.881  -2.656   0.000  0.00  0.00    +0.000 A 
ATOM     33  N   UNL     1       3.595  -0.594   0.000  0.00  0.00    +0.000 NA
ATOM     34  C   UNL     1       2.881  -0.181   0.000  0.00  0.00    +0.000 C 
ATOM     35  C   UNL     1       2.167  -0.594   0.000  0.00  0.00    +0.000 C 
ATOM     36  N   UNL     1       2.167  -1.419   0.000  0.00  0.00    +0.000 NA
ATOM     37  O   UNL     1       2.881   0.643   0.000  0.00  0.00    +0.000 OA
ATOM     38  C   UNL     1       2.167   1.056   0.000  0.00  0.00    +0.000 C 
ATOM     39  C   UNL     1       1.452   0.643   0.000  0.00  0.00    +0.000 C 
ATOM     40  C   UNL     1       1.452  -0.181   0.000  0.00  0.00    +0.000 C 
ATOM     41  C   UNL     1       2.167   1.881   0.000  0.00  0.00    +0.000 C 
ATOM     42  N   UNL     1       5.024  -3.069   0.000  0.00  0.00    +0.000 NA
ATOM     43  O   UNL     1       2.167  -3.069   0.000  0.00  0.00    +0.000 OA
ATOM     44  P   UNL     1       1.452   3.119   0.000  0.00  0.00    +0.000 P 
ATOM     45  O   UNL     1       0.627   3.119   0.000  0.00  0.00    +0.000 OA
ATOM     46  O   UNL     1       2.277   3.119   0.000  0.00  0.00    +0.000 OA
ATOM     47  O   UNL     1       1.452   2.293   0.000  0.00  0.00    +0.000 OA
ATOM     48  O   UNL     1      -1.691   3.119   0.000  0.00  0.00    +0.000 OA
ATOM     49  O   UNL     1       1.452   3.943   0.000  0.00  0.00    +0.000 OA
ATOM     50 MG   UNL     1      -0.525   3.119   0.000  0.00  0.00    +0.000 Mg
ENDROOT
TORSDOF 0
