REMARK  Name = 
REMARK  6 active torsions:
REMARK  status: ('A' for Active; 'I' for Inactive)
REMARK    1  A    between atoms: C_2  and  O_3
REMARK    2  A    between atoms: O_3  and  C_4
REMARK    3  A    between atoms: C_8  and  C_37
REMARK    4  A    between atoms: C_12  and  N_13
REMARK    5  A    between atoms: N_16  and  C_20
REMARK    6  A    between atoms: C_26  and  C_28
REMARK                            x       y       z     vdW  Elec       q    Type
REMARK                         _______ _______ _______ _____ _____    ______ ____
ROOT
ATOM      1  N   UNL     1       0.884  -2.150   0.000  0.00  0.00    +0.000 NA
ATOM      2  C   UNL     1       1.436  -2.763   0.000  0.00  0.00    +0.000 C 
ATOM      3  C   UNL     1       1.181  -3.548   0.000  0.00  0.00    +0.000 C 
ATOM      4  N   UNL     1       0.374  -3.719   0.000  0.00  0.00    +0.000 NA
ATOM      5  C   UNL     1      -0.178  -3.106   0.000  0.00  0.00    +0.000 C 
ATOM      6  C   UNL     1       0.077  -2.321   0.000  0.00  0.00    +0.000 C 
ATOM      7  C   UNL     1      -0.475  -1.708   0.000  0.00  0.00    +0.000 C 
ENDROOT
BRANCH   1  16
ATOM      8  C   UNL     1       0.654  -0.698   0.000  0.00  0.00    +0.000 C 
ATOM      9  C   UNL     1       1.139  -0.030   0.000  0.00  0.00    +0.000 C 
ATOM     10  C   UNL     1       1.923  -0.285   0.000  0.00  0.00    +0.000 A 
ATOM     11  C   UNL     1       2.638   0.127   0.000  0.00  0.00    +0.000 A 
ATOM     12  C   UNL     1       3.352  -0.285   0.000  0.00  0.00    +0.000 A 
ATOM     13  C   UNL     1       3.352  -1.110   0.000  0.00  0.00    +0.000 A 
ATOM     14  C   UNL     1       2.638  -1.523   0.000  0.00  0.00    +0.000 A 
ATOM     15  C   UNL     1       1.923  -1.110   0.000  0.00  0.00    +0.000 A 
ATOM     16  C   UNL     1       1.139  -1.365   0.000  0.00  0.00    +0.000 C 
BRANCH  12  17
ATOM     17  C   UNL     1       4.067   0.127   0.000  0.00  0.00    +0.000 C 
ATOM     18  F   UNL     1       4.781   0.540   0.000  0.00  0.00    +0.000 F 
ATOM     19  F   UNL     1       4.479  -0.587   0.000  0.00  0.00    +0.000 F 
ATOM     20  F   UNL     1       3.654   0.842   0.000  0.00  0.00    +0.000 F 
ENDBRANCH  12  17
BRANCH   8  21
ATOM     21  O   UNL     1      -0.171  -0.698   0.000  0.00  0.00    +0.000 OA
BRANCH  21  23
ATOM     22  C   UNL     1      -0.171   0.731   0.000  0.00  0.00    +0.000 C 
ATOM     23  C   UNL     1      -0.584   0.017   0.000  0.00  0.00    +0.000 C 
ENDBRANCH  21  23
ENDBRANCH   8  21
ENDBRANCH   1  16
BRANCH   4  24
ATOM     24  C   UNL     1       0.119  -4.504   0.000  0.00  0.00    +0.000 C 
ATOM     25  C   UNL     1       0.148  -5.328   0.000  0.00  0.00    +0.000 C 
ATOM     26  C   UNL     1      -0.552  -5.766   0.000  0.00  0.00    +0.000 C 
ATOM     27  N   UNL     1      -1.280  -5.378   0.000  0.00  0.00    +0.000 N 
ATOM     28  C   UNL     1      -1.309  -4.554   0.000  0.00  0.00    +0.000 C 
ATOM     29  C   UNL     1      -0.610  -4.117   0.000  0.00  0.00    +0.000 C 
ATOM     30  C   UNL     1      -1.980  -5.815   0.000  0.00  0.00    +0.000 C 
ATOM     31  O   UNL     1      -1.951  -6.640   0.000  0.00  0.00    +0.000 OA
ATOM     32  C   UNL     1       0.936  -4.619   0.000  0.00  0.00    +0.000 C 
BRANCH  30  33
ATOM     33  C   UNL     1      -2.708  -5.428   0.000  0.00  0.00    +0.000 A 
ATOM     34  C   UNL     1      -3.408  -5.865   0.000  0.00  0.00    +0.000 A 
ATOM     35  N   UNL     1      -4.136  -5.478   0.000  0.00  0.00    +0.000 NA
ATOM     36  C   UNL     1      -4.165  -4.654   0.000  0.00  0.00    +0.000 A 
ATOM     37  N   UNL     1      -3.466  -4.216   0.000  0.00  0.00    +0.000 NA
ATOM     38  C   UNL     1      -2.737  -4.604   0.000  0.00  0.00    +0.000 A 
ATOM     39  C   UNL     1      -2.038  -4.166   0.000  0.00  0.00    +0.000 C 
ATOM     40  C   UNL     1      -3.379  -6.690   0.000  0.00  0.00    +0.000 C 
ENDBRANCH  30  33
ENDBRANCH   4  24
TORSDOF 6
