REMARK  Name = 
REMARK  9 active torsions:
REMARK  status: ('A' for Active; 'I' for Inactive)
REMARK    1  A    between atoms: C_2  and  C_3
REMARK    2  A    between atoms: C_3  and  C_4
REMARK    3  A    between atoms: C_7  and  C_8
REMARK    4  A    between atoms: C_8  and  O_9
REMARK    5  A    between atoms: O_9  and  C_10
REMARK    6  A    between atoms: C_18  and  C_19
REMARK    7  A    between atoms: C_19  and  N_20
REMARK    8  A    between atoms: C_22  and  C_24
REMARK    9  A    between atoms: C_29  and  O_30
REMARK                            x       y       z     vdW  Elec       q    Type
REMARK                         _______ _______ _______ _____ _____    ______ ____
ROOT
ATOM      1  C   UNL     1      -0.715  -1.238   0.000  0.00  0.00    +0.000 A 
ATOM      2  C   UNL     1       0.000  -1.650   0.000  0.00  0.00    +0.000 A 
ATOM      3  C   UNL     1       0.715  -1.238   0.000  0.00  0.00    +0.000 A 
ATOM      4  C   UNL     1       0.715  -0.412   0.000  0.00  0.00    +0.000 A 
ATOM      5  C   UNL     1       0.000   0.000   0.000  0.00  0.00    +0.000 A 
ATOM      6  C   UNL     1      -0.715  -0.412   0.000  0.00  0.00    +0.000 A 
ATOM      7  C   UNL     1       1.429   0.000   0.000  0.00  0.00    +0.000 C 
ATOM      8  C   UNL     1       1.429   0.825   0.000  0.00  0.00    +0.000 C 
ATOM      9  C   UNL     1       2.143  -0.412   0.000  0.00  0.00    +0.000 C 
ATOM     10  C   UNL     1       2.143  -1.238   0.000  0.00  0.00    +0.000 C 
ATOM     11  C   UNL     1       1.429  -1.650   0.000  0.00  0.00    +0.000 C 
ENDROOT
BRANCH   1  12
ATOM     12  O   UNL     1      -1.429  -1.650   0.000  0.00  0.00    +0.000 OA
BRANCH  12  13
ATOM     13  C   UNL     1      -2.143  -1.238   0.000  0.00  0.00    +0.000 C 
BRANCH  13  17
ATOM     14  C   UNL     1      -4.287  -2.475   0.000  0.00  0.00    +0.000 A 
ATOM     15  C   UNL     1      -4.287  -1.650   0.000  0.00  0.00    +0.000 A 
ATOM     16  C   UNL     1      -3.572  -1.238   0.000  0.00  0.00    +0.000 A 
ATOM     17  C   UNL     1      -2.858  -1.650   0.000  0.00  0.00    +0.000 A 
ATOM     18  C   UNL     1      -2.858  -2.475   0.000  0.00  0.00    +0.000 A 
ATOM     19  C   UNL     1      -3.572  -2.888   0.000  0.00  0.00    +0.000 A 
BRANCH  18  20
ATOM     20  O   UNL     1      -2.143  -2.888   0.000  0.00  0.00    +0.000 OA
ATOM     21  C   UNL     1      -2.143  -3.712   0.000  0.00  0.00    +0.000 C 
ENDBRANCH  18  20
BRANCH  14  22
ATOM     22  C   UNL     1      -5.001  -2.888   0.000  0.00  0.00    +0.000 C 
BRANCH  22  24
ATOM     23  C   UNL     1      -5.716  -4.125   0.000  0.00  0.00    +0.000 C 
ATOM     24  C   UNL     1      -5.001  -3.712   0.000  0.00  0.00    +0.000 C 
ENDBRANCH  22  24
ENDBRANCH  14  22
ENDBRANCH  13  17
ENDBRANCH  12  13
ENDBRANCH   1  12
BRANCH   9  25
ATOM     25  C   UNL     1       2.858   0.000   0.000  0.00  0.00    +0.000 C 
BRANCH  25  26
ATOM     26  N   UNL     1       3.572  -0.412   0.000  0.00  0.00    +0.000 NA
ATOM     27  C   UNL     1       4.369  -0.199   0.000  0.00  0.00    +0.000 C 
ATOM     28  C   UNL     1       4.583  -0.996   0.000  0.00  0.00    +0.000 C 
ATOM     29  C   UNL     1       3.786  -1.209   0.000  0.00  0.00    +0.000 C 
BRANCH  28  30
ATOM     30  C   UNL     1       5.297  -1.408   0.000  0.00  0.00    +0.000 C 
ATOM     31  O   UNL     1       6.012  -0.996   0.000  0.00  0.00    +0.000 OA
ATOM     32  O   UNL     1       5.297  -2.233   0.000  0.00  0.00    +0.000 OA
ENDBRANCH  28  30
ENDBRANCH  25  26
ENDBRANCH   9  25
TORSDOF 9
