REMARK  Name = 
REMARK  8 active torsions:
REMARK  status: ('A' for Active; 'I' for Inactive)
REMARK    1  A    between atoms: O_2  and  C_3
REMARK    2  A    between atoms: C_6  and  C_9
REMARK    3  A    between atoms: C_10  and  O_19
REMARK    4  A    between atoms: O_19  and  C_20
REMARK    5  A    between atoms: C_23  and  O_26
REMARK    6  A    between atoms: O_26  and  C_27
REMARK    7  A    between atoms: C_27  and  C_28
REMARK    8  A    between atoms: C_28  and  N_29
REMARK                            x       y       z     vdW  Elec       q    Type
REMARK                         _______ _______ _______ _____ _____    ______ ____
ROOT
ATOM      1  C   UNL     1      -0.628  -0.698   0.000  0.00  0.00    +0.000 A 
ATOM      2  C   UNL     1      -0.143  -1.365   0.000  0.00  0.00    +0.000 A 
ATOM      3  C   UNL     1       0.641  -1.110   0.000  0.00  0.00    +0.000 A 
ATOM      4  C   UNL     1       0.641  -0.285   0.000  0.00  0.00    +0.000 A 
ATOM      5  S   UNL     1      -0.143  -0.030   0.000  0.00  0.00    +0.000 S 
ATOM      6  C   UNL     1       1.356   0.127   0.000  0.00  0.00    +0.000 A 
ATOM      7  C   UNL     1       2.070  -0.285   0.000  0.00  0.00    +0.000 A 
ATOM      8  C   UNL     1       2.070  -1.110   0.000  0.00  0.00    +0.000 A 
ATOM      9  C   UNL     1       1.356  -1.523   0.000  0.00  0.00    +0.000 A 
ATOM     10  O   UNL     1       2.784   0.127   0.000  0.00  0.00    +0.000 OA
ENDROOT
BRANCH   1  14
ATOM     11  C   UNL     1      -3.103  -0.698   0.000  0.00  0.00    +0.000 A 
ATOM     12  C   UNL     1      -2.691   0.017   0.000  0.00  0.00    +0.000 A 
ATOM     13  C   UNL     1      -1.866   0.017   0.000  0.00  0.00    +0.000 A 
ATOM     14  C   UNL     1      -1.453  -0.698   0.000  0.00  0.00    +0.000 A 
ATOM     15  C   UNL     1      -1.866  -1.412   0.000  0.00  0.00    +0.000 A 
ATOM     16  C   UNL     1      -2.691  -1.412   0.000  0.00  0.00    +0.000 A 
BRANCH  11  18
ATOM     17  C   UNL     1      -4.341  -1.412   0.000  0.00  0.00    +0.000 C 
ATOM     18  O   UNL     1      -3.928  -0.698   0.000  0.00  0.00    +0.000 OA
ENDBRANCH  11  18
ENDBRANCH   1  14
BRANCH   2  19
ATOM     19  O   UNL     1      -0.398  -2.150   0.000  0.00  0.00    +0.000 OA
BRANCH  19  20
ATOM     20  C   UNL     1       0.154  -2.763   0.000  0.00  0.00    +0.000 A 
ATOM     21  C   UNL     1       0.961  -2.592   0.000  0.00  0.00    +0.000 A 
ATOM     22  C   UNL     1       1.513  -3.205   0.000  0.00  0.00    +0.000 A 
ATOM     23  C   UNL     1       1.258  -3.989   0.000  0.00  0.00    +0.000 A 
ATOM     24  C   UNL     1       0.451  -4.161   0.000  0.00  0.00    +0.000 A 
ATOM     25  C   UNL     1      -0.101  -3.548   0.000  0.00  0.00    +0.000 A 
BRANCH  23  26
ATOM     26  O   UNL     1       1.810  -4.602   0.000  0.00  0.00    +0.000 OA
BRANCH  26  27
ATOM     27  C   UNL     1       1.555  -5.387   0.000  0.00  0.00    +0.000 C 
BRANCH  27  28
ATOM     28  C   UNL     1       2.107  -6.000   0.000  0.00  0.00    +0.000 C 
BRANCH  28  29
ATOM     29  N   UNL     1       2.914  -5.829   0.000  0.00  0.00    +0.000 NA
ATOM     30  C   UNL     1       3.169  -5.044   0.000  0.00  0.00    +0.000 C 
ATOM     31  C   UNL     1       3.976  -4.872   0.000  0.00  0.00    +0.000 C 
ATOM     32  C   UNL     1       4.528  -5.486   0.000  0.00  0.00    +0.000 C 
ATOM     33  C   UNL     1       4.273  -6.270   0.000  0.00  0.00    +0.000 C 
ATOM     34  C   UNL     1       3.466  -6.442   0.000  0.00  0.00    +0.000 C 
ENDBRANCH  28  29
ENDBRANCH  27  28
ENDBRANCH  26  27
ENDBRANCH  23  26
ENDBRANCH  19  20
ENDBRANCH   2  19
TORSDOF 8
