REMARK  Name = 
REMARK  11 active torsions:
REMARK  status: ('A' for Active; 'I' for Inactive)
REMARK    1  A    between atoms: C_5  and  O_6
REMARK    2  A    between atoms: O_6  and  C_7
REMARK    3  A    between atoms: C_7  and  C_9
REMARK    4  A    between atoms: C_9  and  C_10
REMARK    5  A    between atoms: C_10  and  C_11
REMARK    6  A    between atoms: C_11  and  C_12
REMARK    7  A    between atoms: C_12  and  C_13
REMARK    8  A    between atoms: C_13  and  C_14
REMARK    9  A    between atoms: C_14  and  C_15
REMARK   10  A    between atoms: C_15  and  C_16
REMARK   11  A    between atoms: C_16  and  C_17
REMARK                            x       y       z     vdW  Elec       q    Type
REMARK                         _______ _______ _______ _____ _____    ______ ____
ROOT
ATOM      1  C   UNL     1      -1.686  -3.618   0.000  0.00  0.00    +0.000 C 
ATOM      2  C   UNL     1      -1.274  -2.903   0.000  0.00  0.00    +0.000 C 
ATOM      3  C   UNL     1      -0.467  -3.075   0.000  0.00  0.00    +0.000 C 
ATOM      4  C   UNL     1      -0.381  -3.895   0.000  0.00  0.00    +0.000 C 
ATOM      5  C   UNL     1      -1.134  -4.231   0.000  0.00  0.00    +0.000 C 
ATOM      6  C   UNL     1      -0.521  -4.783   0.000  0.00  0.00    +0.000 C 
ATOM      7  C   UNL     1      -1.389  -5.015   0.000  0.00  0.00    +0.000 C 
ATOM      8  C   UNL     1      -2.196  -5.187   0.000  0.00  0.00    +0.000 C 
ATOM      9  C   UNL     1      -2.451  -5.971   0.000  0.00  0.00    +0.000 C 
ATOM     10  C   UNL     1      -2.748  -4.574   0.000  0.00  0.00    +0.000 C 
ATOM     11  C   UNL     1      -3.555  -4.745   0.000  0.00  0.00    +0.000 C 
ATOM     12  C   UNL     1      -3.810  -5.530   0.000  0.00  0.00    +0.000 C 
ATOM     13  C   UNL     1      -4.617  -5.701   0.000  0.00  0.00    +0.000 C 
ATOM     14  C   UNL     1      -5.169  -5.088   0.000  0.00  0.00    +0.000 C 
ATOM     15  O   UNL     1      -5.976  -5.260   0.000  0.00  0.00    +0.000 OA
ATOM     16  C   UNL     1      -4.914  -4.304   0.000  0.00  0.00    +0.000 C 
ATOM     17  C   UNL     1      -4.107  -4.132   0.000  0.00  0.00    +0.000 C 
ATOM     18  C   UNL     1      -3.852  -3.348   0.000  0.00  0.00    +0.000 C 
ATOM     19  C   UNL     1      -3.045  -3.176   0.000  0.00  0.00    +0.000 C 
ATOM     20  C   UNL     1      -2.790  -2.391   0.000  0.00  0.00    +0.000 C 
ATOM     21  C   UNL     1      -2.493  -3.789   0.000  0.00  0.00    +0.000 C 
ENDROOT
BRANCH   4  22
ATOM     22  O   UNL     1       0.334  -4.308   0.000  0.00  0.00    +0.000 OA
BRANCH  22  23
ATOM     23  C   UNL     1       1.048  -3.895   0.000  0.00  0.00    +0.000 C 
ATOM     24  O   UNL     1       1.048  -3.070   0.000  0.00  0.00    +0.000 OA
BRANCH  23  25
ATOM     25  C   UNL     1       1.763  -4.308   0.000  0.00  0.00    +0.000 C 
BRANCH  25  26
ATOM     26  C   UNL     1       2.477  -3.895   0.000  0.00  0.00    +0.000 C 
BRANCH  26  27
ATOM     27  C   UNL     1       3.192  -4.308   0.000  0.00  0.00    +0.000 C 
BRANCH  27  28
ATOM     28  C   UNL     1       3.906  -3.895   0.000  0.00  0.00    +0.000 C 
BRANCH  28  29
ATOM     29  C   UNL     1       4.621  -4.308   0.000  0.00  0.00    +0.000 C 
BRANCH  29  30
ATOM     30  C   UNL     1       5.335  -3.895   0.000  0.00  0.00    +0.000 C 
BRANCH  30  31
ATOM     31  C   UNL     1       6.050  -4.308   0.000  0.00  0.00    +0.000 C 
BRANCH  31  32
ATOM     32  C   UNL     1       6.764  -3.895   0.000  0.00  0.00    +0.000 C 
BRANCH  32  33
ATOM     33  C   UNL     1       7.479  -4.308   0.000  0.00  0.00    +0.000 C 
ATOM     34  C   UNL     1       8.193  -3.895   0.000  0.00  0.00    +0.000 C 
ENDBRANCH  32  33
ENDBRANCH  31  32
ENDBRANCH  30  31
ENDBRANCH  29  30
ENDBRANCH  28  29
ENDBRANCH  27  28
ENDBRANCH  26  27
ENDBRANCH  25  26
ENDBRANCH  23  25
ENDBRANCH  22  23
ENDBRANCH   4  22
TORSDOF 11
