REMARK  Name = 
REMARK  13 active torsions:
REMARK  status: ('A' for Active; 'I' for Inactive)
REMARK    1  A    between atoms: N_2  and  C_4
REMARK    2  A    between atoms: C_4  and  C_5
REMARK    3  A    between atoms: C_5  and  C_6
REMARK    4  A    between atoms: C_6  and  N_7
REMARK    5  A    between atoms: C_8  and  C_10
REMARK    6  A    between atoms: C_10  and  C_20
REMARK    7  A    between atoms: C_11  and  C_12
REMARK    8  A    between atoms: C_12  and  C_13
REMARK    9  A    between atoms: C_13  and  C_14
REMARK   10  A    between atoms: C_14  and  C_15
REMARK   11  A    between atoms: C_15  and  C_16
REMARK   12  A    between atoms: C_20  and  O_21
REMARK   13  A    between atoms: O_21  and  C_22
REMARK                            x       y       z     vdW  Elec       q    Type
REMARK                         _______ _______ _______ _____ _____    ______ ____
ROOT
ATOM      1  C   UNL     1      -6.430  -1.238   0.000  0.00  0.00    +0.000 C 
ATOM      2  C   UNL     1      -5.716  -1.650   0.000  0.00  0.00    +0.000 C 
ENDROOT
BRANCH   1   4
ATOM      3  N   UNL     1      -7.859  -1.238   0.000  0.00  0.00    +0.000 NA
ATOM      4  C   UNL     1      -7.145  -1.650   0.000  0.00  0.00    +0.000 C 
ATOM      5  O   UNL     1      -7.145  -2.475   0.000  0.00  0.00    +0.000 OA
BRANCH   3   6
ATOM      6  C   UNL     1      -8.574  -1.650   0.000  0.00  0.00    +0.000 C 
BRANCH   6   7
ATOM      7  C   UNL     1      -9.288  -1.238   0.000  0.00  0.00    +0.000 C 
BRANCH   7   8
ATOM      8  C   UNL     1     -10.003  -1.650   0.000  0.00  0.00    +0.000 C 
BRANCH   8  10
ATOM      9  C   UNL     1     -11.431  -1.650   0.000  0.00  0.00    +0.000 C 
ATOM     10  N   UNL     1     -10.717  -1.238   0.000  0.00  0.00    +0.000 NA
ATOM     11  C   UNL     1     -10.717  -0.412   0.000  0.00  0.00    +0.000 C 
ENDBRANCH   8  10
ENDBRANCH   7   8
ENDBRANCH   6   7
ENDBRANCH   3   6
ENDBRANCH   1   4
BRANCH   2  12
ATOM     12  C   UNL     1      -5.001  -1.238   0.000  0.00  0.00    +0.000 C 
BRANCH  12  13
ATOM     13  C   UNL     1      -4.287  -1.650   0.000  0.00  0.00    +0.000 C 
BRANCH  13  14
ATOM     14  C   UNL     1      -3.572  -1.238   0.000  0.00  0.00    +0.000 C 
BRANCH  14  15
ATOM     15  C   UNL     1      -2.858  -1.650   0.000  0.00  0.00    +0.000 C 
BRANCH  15  16
ATOM     16  C   UNL     1      -2.143  -1.238   0.000  0.00  0.00    +0.000 C 
ATOM     17  O   UNL     1      -2.143  -0.412   0.000  0.00  0.00    +0.000 OA
ATOM     18  N   UNL     1      -1.429  -1.650   0.000  0.00  0.00    +0.000 NA
ATOM     19  O   UNL     1      -0.715  -1.238   0.000  0.00  0.00    +0.000 OA
ENDBRANCH  15  16
ENDBRANCH  14  15
ENDBRANCH  13  14
ENDBRANCH  12  13
ENDBRANCH   2  12
BRANCH   1  20
ATOM     20  C   UNL     1      -6.430  -0.412   0.000  0.00  0.00    +0.000 C 
BRANCH  20  21
ATOM     21  O   UNL     1      -7.145   0.000   0.000  0.00  0.00    +0.000 OA
BRANCH  21  22
ATOM     22  C   UNL     1      -7.145   0.825   0.000  0.00  0.00    +0.000 A 
ATOM     23  C   UNL     1      -6.430   1.238   0.000  0.00  0.00    +0.000 A 
ATOM     24  C   UNL     1      -6.430   2.062   0.000  0.00  0.00    +0.000 A 
ATOM     25  C   UNL     1      -7.145   2.475   0.000  0.00  0.00    +0.000 A 
ATOM     26  C   UNL     1      -7.859   2.062   0.000  0.00  0.00    +0.000 A 
ATOM     27  C   UNL     1      -7.859   1.238   0.000  0.00  0.00    +0.000 A 
ATOM     28  C   UNL     1      -8.574   0.825   0.000  0.00  0.00    +0.000 A 
ATOM     29  C   UNL     1      -9.288   1.238   0.000  0.00  0.00    +0.000 A 
ATOM     30  C   UNL     1      -9.288   2.062   0.000  0.00  0.00    +0.000 A 
ATOM     31  C   UNL     1      -8.574   2.475   0.000  0.00  0.00    +0.000 A 
ENDBRANCH  21  22
ENDBRANCH  20  21
ENDBRANCH   1  20
TORSDOF 13
