REMARK  Name = 
REMARK  4 active torsions:
REMARK  status: ('A' for Active; 'I' for Inactive)
REMARK    1  A    between atoms: C_2  and  N_3
REMARK    2  A    between atoms: C_6  and  O_9
REMARK    3  A    between atoms: O_9  and  C_10
REMARK    4  A    between atoms: C_11  and  C_23
REMARK                            x       y       z     vdW  Elec       q    Type
REMARK                         _______ _______ _______ _____ _____    ______ ____
ROOT
ATOM      1  C   UNL     1       2.898   1.197   0.000  0.00  0.00    +0.000 A 
ATOM      2  C   UNL     1       3.705   1.026   0.000  0.00  0.00    +0.000 A 
ATOM      3  N   UNL     1       3.960   0.241   0.000  0.00  0.00    +0.000 NA
ATOM      4  C   UNL     1       3.408  -0.372   0.000  0.00  0.00    +0.000 A 
ATOM      5  C   UNL     1       2.601  -0.201   0.000  0.00  0.00    +0.000 A 
ATOM      6  C   UNL     1       2.346   0.584   0.000  0.00  0.00    +0.000 A 
ATOM      7  C   UNL     1       1.521   0.584   0.000  0.00  0.00    +0.000 A 
ATOM      8  C   UNL     1       1.266  -0.201   0.000  0.00  0.00    +0.000 A 
ATOM      9  N   UNL     1       1.934  -0.685   0.000  0.00  0.00    +0.000 NA
ATOM     10  N   UNL     1       0.460  -0.372   0.000  0.00  0.00    +0.000 NA
ATOM     11  C   UNL     1      -0.092   0.241   0.000  0.00  0.00    +0.000 A 
ATOM     12  C   UNL     1       0.162   1.026   0.000  0.00  0.00    +0.000 A 
ATOM     13  C   UNL     1       0.969   1.197   0.000  0.00  0.00    +0.000 A 
ENDROOT
BRANCH   2  14
ATOM     14  C   UNL     1       4.258   1.639   0.000  0.00  0.00    +0.000 C 
ATOM     15  N   UNL     1       4.809   2.252   0.000  0.00  0.00    +0.000 NA
ENDBRANCH   2  14
BRANCH   1  16
ATOM     16  O   UNL     1       2.643   1.982   0.000  0.00  0.00    +0.000 OA
BRANCH  16  20
ATOM     17  N   UNL     1       4.300   3.821   0.000  0.00  0.00    +0.000 NA
ATOM     18  C   UNL     1       4.555   3.036   0.000  0.00  0.00    +0.000 C 
ATOM     19  C   UNL     1       4.003   2.423   0.000  0.00  0.00    +0.000 C 
ATOM     20  C   UNL     1       3.196   2.595   0.000  0.00  0.00    +0.000 C 
ATOM     21  C   UNL     1       2.941   3.380   0.000  0.00  0.00    +0.000 C 
ATOM     22  C   UNL     1       3.493   3.993   0.000  0.00  0.00    +0.000 C 
BRANCH  17  24
ATOM     23  C   UNL     1       4.597   5.219   0.000  0.00  0.00    +0.000 C 
ATOM     24  C   UNL     1       4.852   4.434   0.000  0.00  0.00    +0.000 C 
ENDBRANCH  17  24
ENDBRANCH  16  20
ENDBRANCH   1  16
TORSDOF 4
