REMARK  Name = 
REMARK  1 active torsions:
REMARK  status: ('A' for Active; 'I' for Inactive)
REMARK    1  A    between atoms: C_18  and  C_23
REMARK                            x       y       z     vdW  Elec       q    Type
REMARK                         _______ _______ _______ _____ _____    ______ ____
ROOT
ATOM      1  C   UNL     1      -1.638  -0.414   0.000  0.00  0.00    +0.000 C 
ATOM      2  C   UNL     1      -2.352  -0.826   0.000  0.00  0.00    +0.000 C 
ATOM      3  C   UNL     1      -2.352  -1.651   0.000  0.00  0.00    +0.000 C 
ATOM      4  C   UNL     1      -1.638  -2.064   0.000  0.00  0.00    +0.000 C 
ATOM      5  C   UNL     1      -0.923  -1.651   0.000  0.00  0.00    +0.000 C 
ATOM      6  C   UNL     1      -0.209  -2.064   0.000  0.00  0.00    +0.000 C 
ATOM      7  C   UNL     1       0.506  -1.651   0.000  0.00  0.00    +0.000 C 
ATOM      8  C   UNL     1      -0.209   0.411   0.000  0.00  0.00    +0.000 C 
ATOM      9  C   UNL     1       0.506   0.824   0.000  0.00  0.00    +0.000 C 
ATOM     10  C   UNL     1      -0.209  -0.414   0.000  0.00  0.00    +0.000 C 
ATOM     11  C   UNL     1       1.220   1.236   0.000  0.00  0.00    +0.000 C 
ATOM     12  C   UNL     1      -0.923  -0.826   0.000  0.00  0.00    +0.000 C 
ATOM     13  C   UNL     1      -0.923  -0.001   0.000  0.00  0.00    +0.000 C 
ATOM     14  C   UNL     1       0.506  -0.826   0.000  0.00  0.00    +0.000 C 
ATOM     15  C   UNL     1       2.005   0.666   0.000  0.00  0.00    +0.000 C 
ATOM     16  C   UNL     1       1.220   0.411   0.000  0.00  0.00    +0.000 C 
ATOM     17  C   UNL     1       2.005  -0.669   0.000  0.00  0.00    +0.000 C 
ATOM     18  C   UNL     1       2.490  -0.001   0.000  0.00  0.00    +0.000 C 
ATOM     19  C   UNL     1       1.220  -0.414   0.000  0.00  0.00    +0.000 C 
ATOM     20  O   UNL     1      -3.067  -2.064   0.000  0.00  0.00    +0.000 OA
ENDROOT
BRANCH  15  21
ATOM     21  C   UNL     1       2.260   1.451   0.000  0.00  0.00    +0.000 C 
ATOM     22  C   UNL     1       3.067   1.622   0.000  0.00  0.00    +0.000 C 
ATOM     23  O   UNL     1       1.708   2.064   0.000  0.00  0.00    +0.000 OA
ENDBRANCH  15  21
TORSDOF 1
