REMARK  Name = 
REMARK  4 active torsions:
REMARK  status: ('A' for Active; 'I' for Inactive)
REMARK    1  A    between atoms: C_4  and  C_28
REMARK    2  A    between atoms: C_19  and  C_20
REMARK    3  A    between atoms: C_20  and  C_21
REMARK    4  A    between atoms: C_31  and  S_34
REMARK                            x       y       z     vdW  Elec       q    Type
REMARK                         _______ _______ _______ _____ _____    ______ ____
ROOT
ATOM      1  C   UNL     1       1.389  -1.850   0.000  0.00  0.00    +0.000 C 
ATOM      2  C   UNL     1       1.749  -2.592   0.000  0.00  0.00    +0.000 C 
ATOM      3  C   UNL     1       2.281  -1.961   0.000  0.00  0.00    +0.000 C 
ATOM      4  C   UNL     1       3.093  -2.107   0.000  0.00  0.00    +0.000 C 
ATOM      5  C   UNL     1       3.374  -2.882   0.000  0.00  0.00    +0.000 C 
ATOM      6  C   UNL     1       4.186  -3.028   0.000  0.00  0.00    +0.000 C 
ATOM      7  C   UNL     1       4.718  -2.397   0.000  0.00  0.00    +0.000 C 
ATOM      8  C   UNL     1       5.530  -2.542   0.000  0.00  0.00    +0.000 C 
ATOM      9  C   UNL     1       5.810  -3.318   0.000  0.00  0.00    +0.000 C 
ATOM     10  O   UNL     1       6.622  -3.463   0.000  0.00  0.00    +0.000 OA
ATOM     11  C   UNL     1       5.278  -3.949   0.000  0.00  0.00    +0.000 C 
ATOM     12  C   UNL     1       4.466  -3.804   0.000  0.00  0.00    +0.000 C 
ATOM     13  C   UNL     1       3.934  -4.434   0.000  0.00  0.00    +0.000 C 
ATOM     14  C   UNL     1       3.122  -4.289   0.000  0.00  0.00    +0.000 C 
ATOM     15  C   UNL     1       2.842  -3.513   0.000  0.00  0.00    +0.000 C 
ATOM     16  C   UNL     1       2.030  -3.368   0.000  0.00  0.00    +0.000 C 
ATOM     17  C   UNL     1       1.378  -3.874   0.000  0.00  0.00    +0.000 C 
ATOM     18  C   UNL     1       0.696  -3.411   0.000  0.00  0.00    +0.000 C 
ATOM     19  C   UNL     1       0.925  -2.619   0.000  0.00  0.00    +0.000 C 
ATOM     20  O   UNL     1       0.803  -1.803   0.000  0.00  0.00    +0.000 OA
ENDROOT
BRANCH   4  21
ATOM     21  C   UNL     1       3.625  -1.476   0.000  0.00  0.00    +0.000 A 
ATOM     22  C   UNL     1       3.345  -0.700   0.000  0.00  0.00    +0.000 A 
ATOM     23  C   UNL     1       3.877  -0.069   0.000  0.00  0.00    +0.000 A 
ATOM     24  C   UNL     1       4.689  -0.214   0.000  0.00  0.00    +0.000 A 
ATOM     25  C   UNL     1       4.969  -0.990   0.000  0.00  0.00    +0.000 A 
ATOM     26  C   UNL     1       4.437  -1.621   0.000  0.00  0.00    +0.000 A 
BRANCH  24  27
ATOM     27  S   UNL     1       5.221   0.416   0.000  0.00  0.00    +0.000 S 
ATOM     28  O   UNL     1       5.753   1.047   0.000  0.00  0.00    +0.000 OA
ATOM     29  O   UNL     1       5.851  -0.116   0.000  0.00  0.00    +0.000 OA
ATOM     30  C   UNL     1       4.590   0.948   0.000  0.00  0.00    +0.000 C 
ENDBRANCH  24  27
ENDBRANCH   4  21
BRANCH  19  31
ATOM     31  C   UNL     1       0.164  -2.300   0.000  0.00  0.00    +0.000 C 
ATOM     32  F   UNL     1       0.483  -1.539   0.000  0.00  0.00    +0.000 F 
ATOM     33  F   UNL     1      -0.155  -3.061   0.000  0.00  0.00    +0.000 F 
BRANCH  31  34
ATOM     34  C   UNL     1      -0.597  -1.981   0.000  0.00  0.00    +0.000 C 
ATOM     35  F   UNL     1      -1.358  -1.662   0.000  0.00  0.00    +0.000 F 
ATOM     36  F   UNL     1      -0.278  -1.220   0.000  0.00  0.00    +0.000 F 
ATOM     37  F   UNL     1      -0.916  -2.742   0.000  0.00  0.00    +0.000 F 
ENDBRANCH  31  34
ENDBRANCH  19  31
TORSDOF 4
