REMARK  Name = 
REMARK  6 active torsions:
REMARK  status: ('A' for Active; 'I' for Inactive)
REMARK    1  A    between atoms: CA_4  and  N_8
REMARK    2  A    between atoms: CA_5  and  C_10
REMARK    3  A    between atoms: C_9  and  C_12
REMARK    4  A    between atoms: C_12  and  O_13
REMARK    5  A    between atoms: C_12  and  C_20
REMARK    6  A    between atoms: O_13  and  C_19
REMARK                            x       y       z     vdW  Elec       q    Type
REMARK                         _______ _______ _______ _____ _____    ______ ____
ROOT
ATOM      1  N   UNL     1       1.871   0.200   0.000  0.00  0.00    +0.000 N 
ATOM      2  C   UNL     1       1.871  -0.632   0.000  0.00  0.00    +0.000 C 
ATOM      3  C   UNL     1       1.036   0.200   0.000  0.00  0.00    +0.000 C 
ATOM      4  CA  UNL     1       1.036  -0.632   0.000  0.00  0.00    +0.000 C 
ATOM      5  CA  UNL     1       2.644   0.459   0.000  0.00  0.00    +0.000 C 
ATOM      6  S   UNL     1       2.644  -0.867   0.000  0.00  0.00    +0.000 S 
ATOM      7  C   UNL     1       3.119  -0.200   0.000  0.00  0.00    +0.000 C 
ATOM      8  O   UNL     1       0.659   0.894   0.000  0.00  0.00    +0.000 OA
ATOM      9  C   UNL     1       3.790  -0.702   0.000  0.00  0.00    +0.000 C 
ATOM     10  C   UNL     1       3.825   0.200   0.000  0.00  0.00    +0.000 C 
ENDROOT
BRANCH   4  11
ATOM     11  N   UNL     1       0.267  -0.408   0.000  0.00  0.00    +0.000 NA
ATOM     12  C   UNL     1      -0.322  -0.977   0.000  0.00  0.00    +0.000 C 
ATOM     13  O   UNL     1      -0.141  -1.754   0.000  0.00  0.00    +0.000 OA
BRANCH  12  14
ATOM     14  C   UNL     1      -1.118  -0.718   0.000  0.00  0.00    +0.000 C 
BRANCH  14  15
ATOM     15  C   UNL     1      -1.299   0.047   0.000  0.00  0.00    +0.000 C 
ATOM     16  C   UNL     1      -0.706   0.624   0.000  0.00  0.00    +0.000 C 
ENDBRANCH  14  15
BRANCH  14  17
ATOM     17  O   UNL     1      -1.707  -1.271   0.000  0.00  0.00    +0.000 OA
BRANCH  17  18
ATOM     18  C   UNL     1      -2.476  -1.048   0.000  0.00  0.00    +0.000 A 
ATOM     19  C   UNL     1      -2.683  -0.235   0.000  0.00  0.00    +0.000 A 
ATOM     20  C   UNL     1      -3.088  -1.601   0.000  0.00  0.00    +0.000 A 
ATOM     21  C   UNL     1      -3.453  -0.024   0.000  0.00  0.00    +0.000 A 
ATOM     22  C   UNL     1      -3.861  -1.385   0.000  0.00  0.00    +0.000 A 
ATOM     23  C   UNL     1      -4.061  -0.589   0.000  0.00  0.00    +0.000 A 
ENDBRANCH  17  18
ENDBRANCH  14  17
ENDBRANCH  12  14
ENDBRANCH   4  11
BRANCH   5  24
ATOM     24  C   UNL     1       3.327   0.942   0.000  0.00  0.00    +0.000 C 
ATOM     25  O   UNL     1       3.233   1.754   0.000  0.00  0.00    +0.000 OA
ATOM     26  OXT UNL     1       4.061   0.589   0.000  0.00  0.00    +0.000 OA
ENDBRANCH   5  24
TORSDOF 6
