REMARK  Name = 
REMARK  4 active torsions:
REMARK  status: ('A' for Active; 'I' for Inactive)
REMARK    1  A    between atoms: C_16  and  C_19
REMARK    2  A    between atoms: C_16  and  N_27
REMARK    3  A    between atoms: C_17  and  C_26
REMARK    4  A    between atoms: C_17  and  N_28
REMARK                            x       y       z     vdW  Elec       q    Type
REMARK                         _______ _______ _______ _____ _____    ______ ____
ROOT
ATOM      1  C   UNL     1       3.572  -0.412   0.000  0.00  0.00    +0.000 C 
ENDROOT
BRANCH   1  14
ATOM      2  C   UNL     1       5.001   1.238   0.000  0.00  0.00    +0.000 A 
ATOM      3  C   UNL     1       0.715   1.238   0.000  0.00  0.00    +0.000 A 
ATOM      4  C   UNL     1       5.001   2.062   0.000  0.00  0.00    +0.000 A 
ATOM      5  C   UNL     1       0.715   2.062   0.000  0.00  0.00    +0.000 A 
ATOM      6  C   UNL     1       4.287   0.825   0.000  0.00  0.00    +0.000 A 
ATOM      7  C   UNL     1       1.429   0.825   0.000  0.00  0.00    +0.000 A 
ATOM      8  C   UNL     1       4.287   2.475   0.000  0.00  0.00    +0.000 A 
ATOM      9  C   UNL     1       1.429   2.475   0.000  0.00  0.00    +0.000 A 
ATOM     10  C   UNL     1       3.572   1.238   0.000  0.00  0.00    +0.000 A 
ATOM     11  C   UNL     1       2.143   1.238   0.000  0.00  0.00    +0.000 A 
ATOM     12  C   UNL     1       3.572   2.062   0.000  0.00  0.00    +0.000 A 
ATOM     13  C   UNL     1       2.143   2.062   0.000  0.00  0.00    +0.000 A 
ATOM     14  C   UNL     1       2.858   0.000   0.000  0.00  0.00    +0.000 C 
ATOM     15  N   UNL     1       2.858   0.825   0.000  0.00  0.00    +0.000 N 
ATOM     16  O   UNL     1       2.143  -0.412   0.000  0.00  0.00    +0.000 OA
ATOM     17  S   UNL     1       2.858   2.475   0.000  0.00  0.00    +0.000 S 
ENDBRANCH   1  14
BRANCH   1  23
ATOM     18  C   UNL     1       4.287  -2.475   0.000  0.00  0.00    +0.000 C 
ATOM     19  C   UNL     1       2.858  -2.475   0.000  0.00  0.00    +0.000 C 
ATOM     20  C   UNL     1       4.287  -1.650   0.000  0.00  0.00    +0.000 C 
ATOM     21  C   UNL     1       2.858  -1.650   0.000  0.00  0.00    +0.000 C 
ATOM     22  N   UNL     1       3.572  -2.888   0.000  0.00  0.00    +0.000 NA
ATOM     23  N   UNL     1       3.572  -1.238   0.000  0.00  0.00    +0.000 NA
BRANCH  22  24
ATOM     24  C   UNL     1       3.572  -3.712   0.000  0.00  0.00    +0.000 C 
BRANCH  24  29
ATOM     25  C   UNL     1       2.143  -3.712   0.000  0.00  0.00    +0.000 A 
ATOM     26  C   UNL     1       1.429  -4.125   0.000  0.00  0.00    +0.000 A 
ATOM     27  C   UNL     1       2.858  -4.950   0.000  0.00  0.00    +0.000 A 
ATOM     28  C   UNL     1       1.151  -6.256   0.000  0.00  0.00    +0.000 C 
ATOM     29  C   UNL     1       2.858  -4.125   0.000  0.00  0.00    +0.000 A 
ATOM     30  C   UNL     1       1.429  -4.950   0.000  0.00  0.00    +0.000 A 
ATOM     31  C   UNL     1       2.143  -5.362   0.000  0.00  0.00    +0.000 A 
ATOM     32  O   UNL     1       0.816  -5.502   0.000  0.00  0.00    +0.000 OA
ATOM     33  O   UNL     1       1.972  -6.170   0.000  0.00  0.00    +0.000 OA
ENDBRANCH  24  29
ENDBRANCH  22  24
ENDBRANCH   1  23
TORSDOF 4
