REMARK  Name = 
REMARK  3 active torsions:
REMARK  status: ('A' for Active; 'I' for Inactive)
REMARK    1  A    between atoms: C_6  and  C_8
REMARK    2  A    between atoms: C_9  and  C_10
REMARK    3  A    between atoms: C_19  and  O_21
REMARK                            x       y       z     vdW  Elec       q    Type
REMARK                         _______ _______ _______ _____ _____    ______ ____
ROOT
ATOM      1  C   UNL     1       3.279   1.238   0.000  0.00  0.00    +0.000 C 
ATOM      2  C   UNL     1       3.993   0.825   0.000  0.00  0.00    +0.000 C 
ATOM      3  C   UNL     1       3.993   0.000   0.000  0.00  0.00    +0.000 C 
ATOM      4  C   UNL     1       3.279  -0.412   0.000  0.00  0.00    +0.000 C 
ATOM      5  C   UNL     1       2.564   0.000   0.000  0.00  0.00    +0.000 C 
ATOM      6  C   UNL     1       2.564   0.825   0.000  0.00  0.00    +0.000 C 
ATOM      7  C   UNL     1       1.780   1.080   0.000  0.00  0.00    +0.000 C 
ATOM      8  C   UNL     1       1.295   0.412   0.000  0.00  0.00    +0.000 C 
ATOM      9  N   UNL     1       1.780  -0.255   0.000  0.00  0.00    +0.000 N 
ATOM     10  C   UNL     1       1.525  -1.040   0.000  0.00  0.00    +0.000 C 
ATOM     11  O   UNL     1       2.077  -1.653   0.000  0.00  0.00    +0.000 OA
ATOM     12  O   UNL     1       3.809   1.869   0.000  0.00  0.00    +0.000 OA
ENDROOT
BRANCH   1  14
ATOM     13  C   UNL     1       2.218   2.502   0.000  0.00  0.00    +0.000 C 
ATOM     14  C   UNL     1       2.749   1.869   0.000  0.00  0.00    +0.000 C 
BRANCH  13  20
ATOM     15  C   UNL     1      -0.467   3.479   0.000  0.00  0.00    +0.000 C 
ATOM     16  C   UNL     1       0.345   3.622   0.000  0.00  0.00    +0.000 A 
ATOM     17  C   UNL     1       0.627   4.397   0.000  0.00  0.00    +0.000 A 
ATOM     18  C   UNL     1       1.440   4.541   0.000  0.00  0.00    +0.000 A 
ATOM     19  C   UNL     1       1.970   3.909   0.000  0.00  0.00    +0.000 A 
ATOM     20  C   UNL     1       1.688   3.134   0.000  0.00  0.00    +0.000 A 
ATOM     21  C   UNL     1       0.876   2.990   0.000  0.00  0.00    +0.000 A 
ENDBRANCH  13  20
ENDBRANCH   1  14
BRANCH  10  22
ATOM     22  O   UNL     1       0.718  -1.211   0.000  0.00  0.00    +0.000 OA
ATOM     23  C   UNL     1       0.463  -1.996   0.000  0.00  0.00    +0.000 C 
ENDBRANCH  10  22
TORSDOF 3
