REMARK  Name = 
REMARK  5 active torsions:
REMARK  status: ('A' for Active; 'I' for Inactive)
REMARK    1  A    between atoms: C_2  and  N_3
REMARK    2  A    between atoms: C_5  and  C_7
REMARK    3  A    between atoms: C_10  and  C_14
REMARK    4  A    between atoms: C_20  and  C_28
REMARK    5  A    between atoms: C_28  and  C_31
REMARK                            x       y       z     vdW  Elec       q    Type
REMARK                         _______ _______ _______ _____ _____    ______ ____
ROOT
ATOM      1  C   UNL     1       4.287   0.825   0.000  0.00  0.00    +0.000 A 
ATOM      2  N   UNL     1       3.572   1.238   0.000  0.00  0.00    +0.000 NA
ATOM      3  C   UNL     1       2.858   0.825   0.000  0.00  0.00    +0.000 A 
ATOM      4  C   UNL     1       2.858   0.000   0.000  0.00  0.00    +0.000 A 
ATOM      5  C   UNL     1       3.572  -0.412   0.000  0.00  0.00    +0.000 A 
ATOM      6  C   UNL     1       4.287   0.000   0.000  0.00  0.00    +0.000 A 
ATOM      7  C   UNL     1       2.143  -0.412   0.000  0.00  0.00    +0.000 C 
ATOM      8  C   UNL     1       1.429   0.000   0.000  0.00  0.00    +0.000 A 
ATOM      9  C   UNL     1       0.715  -0.412   0.000  0.00  0.00    +0.000 A 
ATOM     10  C   UNL     1       0.000   0.000   0.000  0.00  0.00    +0.000 A 
ATOM     11  C   UNL     1       0.000   0.825   0.000  0.00  0.00    +0.000 A 
ATOM     12  C   UNL     1       0.715   1.238   0.000  0.00  0.00    +0.000 A 
ATOM     13  C   UNL     1       1.429   0.825   0.000  0.00  0.00    +0.000 A 
ATOM     14  O   UNL     1       2.143   1.238   0.000  0.00  0.00    +0.000 OA
ENDROOT
BRANCH   1  18
ATOM     15  C   UNL     1       6.430   2.062   0.000  0.00  0.00    +0.000 A 
ATOM     16  C   UNL     1       6.430   1.238   0.000  0.00  0.00    +0.000 A 
ATOM     17  C   UNL     1       5.716   0.825   0.000  0.00  0.00    +0.000 A 
ATOM     18  C   UNL     1       5.001   1.238   0.000  0.00  0.00    +0.000 A 
ATOM     19  C   UNL     1       5.001   2.062   0.000  0.00  0.00    +0.000 A 
ATOM     20  C   UNL     1       5.716   2.475   0.000  0.00  0.00    +0.000 A 
ATOM     21  F   UNL     1       5.716   3.300   0.000  0.00  0.00    +0.000 F 
BRANCH  15  24
ATOM     22  N   UNL     1       7.145   3.300   0.000  0.00  0.00    +0.000 N 
ATOM     23  C   UNL     1       6.430   3.712   0.000  0.00  0.00    +0.000 C 
ATOM     24  C   UNL     1       7.145   2.475   0.000  0.00  0.00    +0.000 C 
ATOM     25  O   UNL     1       7.859   2.062   0.000  0.00  0.00    +0.000 OA
BRANCH  22  27
ATOM     26  C   UNL     1       7.859   4.537   0.000  0.00  0.00    +0.000 C 
ATOM     27  C   UNL     1       7.859   3.712   0.000  0.00  0.00    +0.000 C 
ENDBRANCH  22  27
ENDBRANCH  15  24
ENDBRANCH   1  18
BRANCH   7  28
ATOM     28  C   UNL     1       2.143  -1.238   0.000  0.00  0.00    +0.000 C 
ATOM     29  C   UNL     1       1.318  -1.238   0.000  0.00  0.00    +0.000 C 
ATOM     30  C   UNL     1       2.968  -1.238   0.000  0.00  0.00    +0.000 C 
BRANCH  28  31
ATOM     31  C   UNL     1       2.143  -2.062   0.000  0.00  0.00    +0.000 C 
ATOM     32  O   UNL     1       2.858  -2.475   0.000  0.00  0.00    +0.000 OA
ATOM     33  N   UNL     1       1.429  -2.475   0.000  0.00  0.00    +0.000 NA
ATOM     34  C   UNL     1       0.715  -2.062   0.000  0.00  0.00    +0.000 A 
ATOM     35  N   UNL     1      -0.039  -2.398   0.000  0.00  0.00    +0.000 NA
ATOM     36  N   UNL     1      -0.591  -1.785   0.000  0.00  0.00    +0.000 NA
ATOM     37  C   UNL     1      -0.179  -1.071   0.000  0.00  0.00    +0.000 A 
ATOM     38  S   UNL     1       0.628  -1.242   0.000  0.00  0.00    +0.000 S 
ENDBRANCH  28  31
ENDBRANCH   7  28
TORSDOF 5
