REMARK  Name = 
REMARK  15 active torsions:
REMARK  status: ('A' for Active; 'I' for Inactive)
REMARK    1  A    between atoms: C_1  and  C_2
REMARK    2  A    between atoms: C_2  and  C_3
REMARK    3  A    between atoms: C_2  and  O_26
REMARK    4  A    between atoms: C_3  and  C_4
REMARK    5  A    between atoms: C_4  and  C_5
REMARK    6  A    between atoms: C_5  and  C_6
REMARK    7  A    between atoms: C_5  and  O_9
REMARK    8  A    between atoms: N_7  and  C_29
REMARK    9  A    between atoms: O_9  and  C_10
REMARK   10  A    between atoms: C_10  and  C_11
REMARK   11  A    between atoms: C_19  and  C_20
REMARK   12  A    between atoms: C_19  and  O_26
REMARK   13  A    between atoms: N_28  and  C_37
REMARK   14  A    between atoms: C_29  and  C_31
REMARK   15  A    between atoms: C_29  and  C_33
REMARK                            x       y       z     vdW  Elec       q    Type
REMARK                         _______ _______ _______ _____ _____    ______ ____
ROOT
ATOM      1  C   UNL     1      -0.728   0.209   0.000  0.00  0.00    +0.000 C 
ATOM      2  O   UNL     1      -0.728   1.027   0.000  0.00  0.00    +0.000 OA
ENDROOT
BRANCH   1   3
ATOM      3  C   UNL     1      -0.010  -0.209   0.000  0.00  0.00    +0.000 C 
ATOM      4  O   UNL     1      -0.010  -1.027   0.000  0.00  0.00    +0.000 OA
BRANCH   3   5
ATOM      5  C   UNL     1       0.698   0.209   0.000  0.00  0.00    +0.000 C 
BRANCH   5   6
ATOM      6  C   UNL     1       1.416  -0.209   0.000  0.00  0.00    +0.000 C 
ATOM      7  N   UNL     1       2.124   0.209   0.000  0.00  0.00    +0.000 NA
ATOM      8  O   UNL     1       1.416  -1.027   0.000  0.00  0.00    +0.000 OA
BRANCH   7   9
ATOM      9  C   UNL     1       2.842  -0.209   0.000  0.00  0.00    +0.000 C 
BRANCH   9  10
ATOM     10  C   UNL     1       3.560   0.209   0.000  0.00  0.00    +0.000 C 
ATOM     11  O   UNL     1       3.560   1.027   0.000  0.00  0.00    +0.000 OA
ATOM     12  N   UNL     1       4.268  -0.209   0.000  0.00  0.00    +0.000 NA
ATOM     13  C   UNL     1       4.986   0.209   0.000  0.00  0.00    +0.000 C 
ENDBRANCH   9  10
BRANCH   9  15
ATOM     14  C   UNL     1       2.124  -1.446   0.000  0.00  0.00    +0.000 C 
ATOM     15  C   UNL     1       2.842  -1.027   0.000  0.00  0.00    +0.000 C 
ATOM     16  C   UNL     1       3.560  -1.446   0.000  0.00  0.00    +0.000 C 
ENDBRANCH   9  15
ENDBRANCH   7   9
ENDBRANCH   5   6
BRANCH   5  17
ATOM     17  O   UNL     1       0.698   1.027   0.000  0.00  0.00    +0.000 OA
BRANCH  17  18
ATOM     18  C   UNL     1       1.416   1.446   0.000  0.00  0.00    +0.000 C 
BRANCH  18  19
ATOM     19  C   UNL     1       1.416   2.264   0.000  0.00  0.00    +0.000 A 
ATOM     20  C   UNL     1       1.416   3.919   0.000  0.00  0.00    +0.000 A 
ATOM     21  C   UNL     1       0.698   3.500   0.000  0.00  0.00    +0.000 A 
ATOM     22  C   UNL     1       0.698   2.682   0.000  0.00  0.00    +0.000 A 
ATOM     23  C   UNL     1       2.124   2.682   0.000  0.00  0.00    +0.000 A 
ATOM     24  C   UNL     1       2.124   3.500   0.000  0.00  0.00    +0.000 A 
ENDBRANCH  18  19
ENDBRANCH  17  18
ENDBRANCH   5  17
ENDBRANCH   3   5
ENDBRANCH   1   3
BRANCH   1  25
ATOM     25  C   UNL     1      -1.446  -0.209   0.000  0.00  0.00    +0.000 C 
BRANCH  25  26
ATOM     26  C   UNL     1      -2.154   0.209   0.000  0.00  0.00    +0.000 C 
ATOM     27  O   UNL     1      -2.154   1.027   0.000  0.00  0.00    +0.000 OA
ATOM     28  N   UNL     1      -2.872  -0.209   0.000  0.00  0.00    +0.000 NA
BRANCH  28  29
ATOM     29  C   UNL     1      -3.590   0.209   0.000  0.00  0.00    +0.000 C 
ATOM     30  C   UNL     1      -4.916   0.289   0.000  0.00  0.00    +0.000 C 
ATOM     31  C   UNL     1      -4.278  -0.239   0.000  0.00  0.00    +0.000 C 
ATOM     32  O   UNL     1      -4.327  -1.067   0.000  0.00  0.00    +0.000 OA
ATOM     33  C   UNL     1      -4.617   1.057   0.000  0.00  0.00    +0.000 A 
ATOM     34  C   UNL     1      -3.709   2.433   0.000  0.00  0.00    +0.000 A 
ATOM     35  C   UNL     1      -4.527   2.483   0.000  0.00  0.00    +0.000 A 
ATOM     36  C   UNL     1      -4.986   1.795   0.000  0.00  0.00    +0.000 A 
ATOM     37  C   UNL     1      -3.789   1.007   0.000  0.00  0.00    +0.000 A 
ATOM     38  C   UNL     1      -3.340   1.695   0.000  0.00  0.00    +0.000 A 
ENDBRANCH  28  29
ENDBRANCH  25  26
BRANCH  25  39
ATOM     39  O   UNL     1      -1.446  -1.027   0.000  0.00  0.00    +0.000 OA
BRANCH  39  40
ATOM     40  C   UNL     1      -2.154  -1.446   0.000  0.00  0.00    +0.000 C 
BRANCH  40  41
ATOM     41  C   UNL     1      -2.154  -2.273   0.000  0.00  0.00    +0.000 A 
ATOM     42  C   UNL     1      -2.872  -2.682   0.000  0.00  0.00    +0.000 A 
ATOM     43  C   UNL     1      -2.872  -3.510   0.000  0.00  0.00    +0.000 A 
ATOM     44  C   UNL     1      -2.154  -3.919   0.000  0.00  0.00    +0.000 A 
ATOM     45  C   UNL     1      -1.446  -3.510   0.000  0.00  0.00    +0.000 A 
ATOM     46  C   UNL     1      -1.446  -2.682   0.000  0.00  0.00    +0.000 A 
ENDBRANCH  40  41
ENDBRANCH  39  40
ENDBRANCH  25  39
ENDBRANCH   1  25
TORSDOF 15
