REMARK  Name = 
REMARK  3 active torsions:
REMARK  status: ('A' for Active; 'I' for Inactive)
REMARK    1  A    between atoms: C_8  and  S_10
REMARK    2  A    between atoms: S_10  and  N_11
REMARK    3  A    between atoms: N_11  and  C_12
REMARK                            x       y       z     vdW  Elec       q    Type
REMARK                         _______ _______ _______ _____ _____    ______ ____
ROOT
ATOM      1  C   UNL     1       3.206   0.715   0.000  0.00  0.00    +0.000 A 
ATOM      2  C   UNL     1       3.206  -0.111   0.000  0.00  0.00    +0.000 A 
ATOM      3  C   UNL     1       2.491  -0.523   0.000  0.00  0.00    +0.000 A 
ATOM      4  C   UNL     1       1.777  -0.111   0.000  0.00  0.00    +0.000 A 
ATOM      5  C   UNL     1       1.777   0.715   0.000  0.00  0.00    +0.000 A 
ATOM      6  C   UNL     1       2.491   1.127   0.000  0.00  0.00    +0.000 A 
ATOM      7  N   UNL     1       0.992   0.970   0.000  0.00  0.00    +0.000 NA
ATOM      8  C   UNL     1       0.507   0.302   0.000  0.00  0.00    +0.000 A 
ATOM      9  S   UNL     1       0.992  -0.365   0.000  0.00  0.00    +0.000 S 
ENDROOT
BRANCH   8  10
ATOM     10  S   UNL     1      -0.318   0.302   0.000  0.00  0.00    +0.000 S 
BRANCH  10  11
ATOM     11  N   UNL     1      -0.731  -0.412   0.000  0.00  0.00    +0.000 NA
BRANCH  11  12
ATOM     12  C   UNL     1      -1.556  -0.412   0.000  0.00  0.00    +0.000 C 
ATOM     13  C   UNL     1      -1.968  -1.127   0.000  0.00  0.00    +0.000 C 
ATOM     14  C   UNL     1      -2.793  -1.127   0.000  0.00  0.00    +0.000 C 
ATOM     15  C   UNL     1      -3.206  -0.412   0.000  0.00  0.00    +0.000 C 
ATOM     16  C   UNL     1      -2.793   0.302   0.000  0.00  0.00    +0.000 C 
ATOM     17  C   UNL     1      -1.968   0.302   0.000  0.00  0.00    +0.000 C 
ENDBRANCH  11  12
ENDBRANCH  10  11
ENDBRANCH   8  10
TORSDOF 3
