REMARK  Name = 
REMARK  6 active torsions:
REMARK  status: ('A' for Active; 'I' for Inactive)
REMARK    1  A    between atoms: C_4  and  C_6
REMARK    2  A    between atoms: C_9  and  C_12
REMARK    3  A    between atoms: N_14  and  C_15
REMARK    4  A    between atoms: C_18  and  O_31
REMARK    5  A    between atoms: C_20  and  C_21
REMARK    6  A    between atoms: N_23  and  C_24
REMARK                            x       y       z     vdW  Elec       q    Type
REMARK                         _______ _______ _______ _____ _____    ______ ____
ROOT
ATOM      1  C   UNL     1      -2.858  -7.425   0.000  0.00  0.00    +0.000 A 
ATOM      2  C   UNL     1      -2.143  -7.838   0.000  0.00  0.00    +0.000 A 
ATOM      3  C   UNL     1      -2.143  -8.662   0.000  0.00  0.00    +0.000 A 
ATOM      4  C   UNL     1      -2.858  -9.075   0.000  0.00  0.00    +0.000 A 
ATOM      5  C   UNL     1      -3.572  -8.662   0.000  0.00  0.00    +0.000 A 
ATOM      6  C   UNL     1      -3.572  -7.838   0.000  0.00  0.00    +0.000 A 
ENDROOT
BRANCH   6   7
ATOM      7  C   UNL     1      -4.287  -7.425   0.000  0.00  0.00    +0.000 C 
ATOM      8  O   UNL     1      -4.287  -6.600   0.000  0.00  0.00    +0.000 OA
ATOM      9  N   UNL     1      -5.001  -7.838   0.000  0.00  0.00    +0.000 NA
BRANCH   9  10
ATOM     10  C   UNL     1      -5.001  -8.662   0.000  0.00  0.00    +0.000 A 
ATOM     11  C   UNL     1      -4.287  -9.075   0.000  0.00  0.00    +0.000 A 
ATOM     12  C   UNL     1      -4.287  -9.900   0.000  0.00  0.00    +0.000 A 
ATOM     13  C   UNL     1      -5.001 -10.312   0.000  0.00  0.00    +0.000 A 
ATOM     14  C   UNL     1      -5.716  -9.900   0.000  0.00  0.00    +0.000 A 
ATOM     15  N   UNL     1      -5.716  -9.075   0.000  0.00  0.00    +0.000 NA
ATOM     16 CL   UNL     1      -5.001 -11.137   0.000  0.00  0.00    +0.000 Cl
ENDBRANCH   9  10
ENDBRANCH   6   7
BRANCH   1  19
ATOM     17  C   UNL     1      -2.143  -6.188   0.000  0.00  0.00    +0.000 C 
ATOM     18  O   UNL     1      -1.429  -6.600   0.000  0.00  0.00    +0.000 OA
ATOM     19  N   UNL     1      -2.858  -6.600   0.000  0.00  0.00    +0.000 NA
BRANCH  17  23
ATOM     20  C   UNL     1      -2.143  -3.712   0.000  0.00  0.00    +0.000 A 
ATOM     21  C   UNL     1      -1.429  -4.125   0.000  0.00  0.00    +0.000 A 
ATOM     22  C   UNL     1      -1.429  -4.950   0.000  0.00  0.00    +0.000 A 
ATOM     23  C   UNL     1      -2.143  -5.362   0.000  0.00  0.00    +0.000 A 
ATOM     24  C   UNL     1      -2.858  -4.950   0.000  0.00  0.00    +0.000 A 
ATOM     25  C   UNL     1      -2.858  -4.125   0.000  0.00  0.00    +0.000 A 
BRANCH  20  29
ATOM     26  C   UNL     1      -2.858  -1.650   0.000  0.00  0.00    +0.000 C 
ATOM     27  N   UNL     1      -2.858  -2.475   0.000  0.00  0.00    +0.000 N 
ATOM     28  C   UNL     1      -3.572  -2.888   0.000  0.00  0.00    +0.000 C 
ATOM     29  C   UNL     1      -2.143  -2.888   0.000  0.00  0.00    +0.000 C 
ATOM     30  N   UNL     1      -1.429  -2.475   0.000  0.00  0.00    +0.000 NA
ENDBRANCH  20  29
ENDBRANCH  17  23
ENDBRANCH   1  19
BRANCH   4  31
ATOM     31  O   UNL     1      -2.858  -9.900   0.000  0.00  0.00    +0.000 OA
ATOM     32  C   UNL     1      -3.572 -10.312   0.000  0.00  0.00    +0.000 C 
ENDBRANCH   4  31
TORSDOF 6
