REMARK  Name = 
REMARK  10 active torsions:
REMARK  status: ('A' for Active; 'I' for Inactive)
REMARK    1  A    between atoms: O_2  and  C_3
REMARK    2  A    between atoms: C_5  and  N_6
REMARK    3  A    between atoms: N_6  and  C_8
REMARK    4  A    between atoms: C_8  and  C_9
REMARK    5  A    between atoms: C_9  and  N_10
REMARK    6  A    between atoms: C_13  and  N_14
REMARK    7  A    between atoms: C_15  and  C_17
REMARK    8  A    between atoms: C_20  and  N_21
REMARK    9  A    between atoms: C_24  and  C_28
REMARK   10  A    between atoms: N_30  and  C_31
REMARK                            x       y       z     vdW  Elec       q    Type
REMARK                         _______ _______ _______ _____ _____    ______ ____
ROOT
ATOM      1  C   UNL     1      -0.611   3.721   0.000  0.00  0.00    +0.000 A 
ATOM      2  C   UNL     1      -0.866   4.506   0.000  0.00  0.00    +0.000 A 
ATOM      3  C   UNL     1      -0.314   5.119   0.000  0.00  0.00    +0.000 A 
ATOM      4  C   UNL     1       0.493   4.947   0.000  0.00  0.00    +0.000 A 
ATOM      5  C   UNL     1       0.748   4.163   0.000  0.00  0.00    +0.000 A 
ATOM      6  C   UNL     1       0.196   3.550   0.000  0.00  0.00    +0.000 A 
ENDROOT
BRANCH   6   7
ATOM      7  N   UNL     1       0.451   2.765   0.000  0.00  0.00    +0.000 NA
ATOM      8  C   UNL     1      -0.101   2.152   0.000  0.00  0.00    +0.000 A 
ATOM      9  N   UNL     1       0.154   1.367   0.000  0.00  0.00    +0.000 NA
ATOM     10  C   UNL     1      -0.398   0.754   0.000  0.00  0.00    +0.000 A 
ATOM     11  C   UNL     1      -1.205   0.926   0.000  0.00  0.00    +0.000 A 
ATOM     12  C   UNL     1      -1.460   1.710   0.000  0.00  0.00    +0.000 A 
ATOM     13  N   UNL     1      -0.908   2.323   0.000  0.00  0.00    +0.000 NA
BRANCH  10  14
ATOM     14  C   UNL     1      -0.143  -0.030   0.000  0.00  0.00    +0.000 A 
ATOM     15  C   UNL     1      -0.628  -0.698   0.000  0.00  0.00    +0.000 A 
ATOM     16  N   UNL     1      -0.143  -1.365   0.000  0.00  0.00    +0.000 N 
ATOM     17  C   UNL     1       0.641  -1.110   0.000  0.00  0.00    +0.000 A 
ATOM     18  C   UNL     1       0.641  -0.285   0.000  0.00  0.00    +0.000 A 
ATOM     19  C   UNL     1       1.356   0.127   0.000  0.00  0.00    +0.000 A 
ATOM     20  C   UNL     1       2.070  -0.285   0.000  0.00  0.00    +0.000 A 
ATOM     21  C   UNL     1       2.070  -1.110   0.000  0.00  0.00    +0.000 A 
ATOM     22  C   UNL     1       1.356  -1.523   0.000  0.00  0.00    +0.000 A 
BRANCH  16  23
ATOM     23  C   UNL     1      -0.398  -2.150   0.000  0.00  0.00    +0.000 C 
ATOM     24  C   UNL     1      -0.227  -2.957   0.000  0.00  0.00    +0.000 C 
ATOM     25  C   UNL     1      -1.012  -2.702   0.000  0.00  0.00    +0.000 C 
ENDBRANCH  16  23
ENDBRANCH  10  14
ENDBRANCH   6   7
BRANCH   4  26
ATOM     26  N   UNL     1       1.045   5.560   0.000  0.00  0.00    +0.000 NA
ATOM     27  C   UNL     1       1.852   5.389   0.000  0.00  0.00    +0.000 C 
ATOM     28  O   UNL     1       2.107   4.604   0.000  0.00  0.00    +0.000 OA
BRANCH  27  29
ATOM     29  C   UNL     1       2.404   6.002   0.000  0.00  0.00    +0.000 C 
ATOM     30  C   UNL     1       3.211   5.830   0.000  0.00  0.00    +0.000 C 
ENDBRANCH  27  29
ENDBRANCH   4  26
BRANCH   1  32
ATOM     31  C   UNL     1      -1.970   3.280   0.000  0.00  0.00    +0.000 C 
ATOM     32  O   UNL     1      -1.163   3.108   0.000  0.00  0.00    +0.000 OA
ENDBRANCH   1  32
BRANCH   3  33
ATOM     33  N   UNL     1      -0.569   5.903   0.000  0.00  0.00    +0.000 N 
ATOM     34  C   UNL     1      -1.376   6.075   0.000  0.00  0.00    +0.000 C 
BRANCH  33  35
ATOM     35  C   UNL     1      -0.017   6.516   0.000  0.00  0.00    +0.000 C 
BRANCH  35  36
ATOM     36  C   UNL     1      -0.272   7.301   0.000  0.00  0.00    +0.000 C 
BRANCH  36  37
ATOM     37  N   UNL     1       0.280   7.914   0.000  0.00  0.00    +0.000 NA
ATOM     38  C   UNL     1       0.025   8.699   0.000  0.00  0.00    +0.000 C 
ATOM     39  C   UNL     1       1.087   7.743   0.000  0.00  0.00    +0.000 C 
ENDBRANCH  36  37
ENDBRANCH  35  36
ENDBRANCH  33  35
ENDBRANCH   3  33
TORSDOF 10
