REMARK  Name = 
REMARK  5 active torsions:
REMARK  status: ('A' for Active; 'I' for Inactive)
REMARK    1  A    between atoms: C_7  and  C_8
REMARK    2  A    between atoms: N_14  and  C_25
REMARK    3  A    between atoms: N_19  and  CA_20
REMARK    4  A    between atoms: CA_20  and  CB_21
REMARK    5  A    between atoms: CA_20  and  C_23
REMARK                            x       y       z     vdW  Elec       q    Type
REMARK                         _______ _______ _______ _____ _____    ______ ____
ROOT
ATOM      1  C   UNK A   0       1.429   0.000   0.000  0.00  0.00    +0.000 A 
ATOM      2  C   UNK A   0       2.143  -0.412   0.000  0.00  0.00    +0.000 A 
ATOM      3  C   UNK A   0       2.858   0.000   0.000  0.00  0.00    +0.000 A 
ATOM      4  C   UNK A   0       3.572  -0.412   0.000  0.00  0.00    +0.000 A 
ATOM      5  C   UNK A   0       3.572  -1.238   0.000  0.00  0.00    +0.000 A 
ATOM      6  O   UNK A   0       4.287  -1.650   0.000  0.00  0.00    +0.000 OA
ATOM      7  N   UNK A   0       2.858  -1.650   0.000  0.00  0.00    +0.000 N 
ATOM      8  C   UNK A   0       2.143  -1.238   0.000  0.00  0.00    +0.000 A 
ATOM      9  N   UNK A   0       1.429  -1.650   0.000  0.00  0.00    +0.000 NA
ATOM     10  C   UNK A   0       0.715  -1.238   0.000  0.00  0.00    +0.000 A 
ATOM     11  N   UNK A   0       0.715  -0.412   0.000  0.00  0.00    +0.000 NA
ATOM     12  N   SER A   1       0.000  -1.650   0.000  0.00  0.00    +0.000 NA
ENDROOT
BRANCH   1  19
ATOM     13  C   UNK A   0       0.000   0.825   0.000  0.00  0.00    +0.000 C 
ATOM     14  C   UNK A   0       0.715   1.238   0.000  0.00  0.00    +0.000 A 
ATOM     15  C   UNK A   0       0.715   2.062   0.000  0.00  0.00    +0.000 A 
ATOM     16  C   UNK A   0       1.429   2.475   0.000  0.00  0.00    +0.000 A 
ATOM     17  C   UNK A   0       2.143   2.062   0.000  0.00  0.00    +0.000 A 
ATOM     18  C   UNK A   0       2.143   1.238   0.000  0.00  0.00    +0.000 A 
ATOM     19  C   UNK A   0       1.429   0.825   0.000  0.00  0.00    +0.000 A 
ATOM     20  F   UNK A   0       1.429   3.300   0.000  0.00  0.00    +0.000 F 
ENDBRANCH   1  19
BRANCH   7  21
ATOM     21  C   UNK A   0       2.858  -2.475   0.000  0.00  0.00    +0.000 A 
ATOM     22  C   UNK A   0       3.572  -2.888   0.000  0.00  0.00    +0.000 A 
ATOM     23  C   UNK A   0       3.572  -3.712   0.000  0.00  0.00    +0.000 A 
ATOM     24  C   UNK A   0       2.858  -4.125   0.000  0.00  0.00    +0.000 A 
ATOM     25  C   UNK A   0       2.143  -3.712   0.000  0.00  0.00    +0.000 A 
ATOM     26  C   UNK A   0       2.143  -2.888   0.000  0.00  0.00    +0.000 A 
ATOM     27  F   UNK A   0       1.429  -2.475   0.000  0.00  0.00    +0.000 F 
ATOM     28  F   UNK A   0       4.287  -2.475   0.000  0.00  0.00    +0.000 F 
ENDBRANCH   7  21
BRANCH  12  29
ATOM     29  CA  SER A   1      -0.715  -1.238   0.000  0.00  0.00    +0.000 C 
BRANCH  29  30
ATOM     30  CB  SER A   1      -1.429  -1.650   0.000  0.00  0.00    +0.000 C 
ATOM     31  OG  SER A   1      -2.143  -1.238   0.000  0.00  0.00    +0.000 OA
ENDBRANCH  29  30
BRANCH  29  32
ATOM     32  C   SER A   1      -0.715  -0.412   0.000  0.00  0.00    +0.000 C 
ATOM     33  O   SER A   1       0.000   0.000   0.000  0.00  0.00    +0.000 OA
ENDBRANCH  29  32
ENDBRANCH  12  29
TORSDOF 5
