REMARK  Name = 
REMARK  4 active torsions:
REMARK  status: ('A' for Active; 'I' for Inactive)
REMARK    1  A    between atoms: C_6  and  C_14
REMARK    2  A    between atoms: C_14  and  C_27
REMARK    3  A    between atoms: C_27  and  O_28
REMARK    4  A    between atoms: O_28  and  C_31
REMARK                            x       y       z     vdW  Elec       q    Type
REMARK                         _______ _______ _______ _____ _____    ______ ____
ROOT
ATOM      1  C   UNL     1       0.392  -0.227   0.000  0.00  0.00    +0.000 C 
ATOM      2  C   UNL     1      -1.045  -1.044   0.000  0.00  0.00    +0.000 C 
ATOM      3  C   UNL     1      -1.758  -1.456   0.000  0.00  0.00    +0.000 C 
ATOM      4  C   UNL     1       0.388  -1.052   0.000  0.00  0.00    +0.000 C 
ATOM      5  C   UNL     1      -0.324  -1.456   0.000  0.00  0.00    +0.000 C 
ATOM      6  C   UNL     1       1.188   0.019   0.000  0.00  0.00    +0.000 C 
ATOM      7  C   UNL     1      -1.758  -2.281   0.000  0.00  0.00    +0.000 C 
ATOM      8  C   UNL     1      -1.037  -0.215   0.000  0.00  0.00    +0.000 C 
ATOM      9  C   UNL     1      -0.320   0.194   0.000  0.00  0.00    +0.000 C 
ATOM     10  C   UNL     1       1.663  -0.656   0.000  0.00  0.00    +0.000 C 
ATOM     11  C   UNL     1      -2.462  -1.040   0.000  0.00  0.00    +0.000 C 
ATOM     12  C   UNL     1       1.167  -1.319   0.000  0.00  0.00    +0.000 C 
ATOM     13  C   UNL     1      -2.462  -2.690   0.000  0.00  0.00    +0.000 C 
ATOM     14  C   UNL     1      -0.333  -2.281   0.000  0.00  0.00    +0.000 C 
ATOM     15  C   UNL     1      -3.174  -1.456   0.000  0.00  0.00    +0.000 C 
ATOM     16  C   UNL     1      -3.174  -2.281   0.000  0.00  0.00    +0.000 C 
ATOM     17  C   UNL     1      -1.045  -2.694   0.000  0.00  0.00    +0.000 C 
ATOM     18  F   UNL     1      -1.045  -1.869   0.000  0.00  0.00    +0.000 F 
ATOM     19  O   UNL     1      -3.895  -2.694   0.000  0.00  0.00    +0.000 OA
ATOM     20  O   UNL     1       1.980   0.235   0.000  0.00  0.00    +0.000 OA
ATOM     21  C   UNL     1       0.392   0.606   0.000  0.00  0.00    +0.000 C 
ATOM     22  O   UNL     1      -1.749   0.206   0.000  0.00  0.00    +0.000 OA
ATOM     23  C   UNL     1      -1.758  -0.631   0.000  0.00  0.00    +0.000 C 
ATOM     24  C   UNL     1       2.488  -0.669   0.000  0.00  0.00    +0.000 C 
ENDROOT
BRANCH   6  25
ATOM     25  C   UNL     1       1.455   0.798   0.000  0.00  0.00    +0.000 C 
ATOM     26  O   UNL     1       0.905   1.419   0.000  0.00  0.00    +0.000 OA
BRANCH  25  27
ATOM     27  C   UNL     1       2.263   0.960   0.000  0.00  0.00    +0.000 C 
BRANCH  27  28
ATOM     28  O   UNL     1       2.530   1.744   0.000  0.00  0.00    +0.000 OA
BRANCH  28  29
ATOM     29  C   UNL     1       3.346   1.905   0.000  0.00  0.00    +0.000 C 
ATOM     30  O   UNL     1       3.615   2.694   0.000  0.00  0.00    +0.000 OA
ATOM     31  C   UNL     1       3.895   1.279   0.000  0.00  0.00    +0.000 C 
ENDBRANCH  28  29
ENDBRANCH  27  28
ENDBRANCH  25  27
ENDBRANCH   6  25
TORSDOF 4
