REMARK  Name = 
REMARK  4 active torsions:
REMARK  status: ('A' for Active; 'I' for Inactive)
REMARK    1  A    between atoms: N_5  and  C_7
REMARK    2  A    between atoms: N_10  and  C_13
REMARK    3  A    between atoms: C_18  and  C_19
REMARK    4  A    between atoms: C_29  and  C_32
REMARK                            x       y       z     vdW  Elec       q    Type
REMARK                         _______ _______ _______ _____ _____    ______ ____
ROOT
ATOM      1  C   UNL     1      -1.298   0.423   0.000  0.00  0.00    +0.000 A 
ATOM      2  C   UNL     1      -0.583   0.011   0.000  0.00  0.00    +0.000 A 
ATOM      3  C   UNL     1       0.131   0.424   0.000  0.00  0.00    +0.000 A 
ATOM      4  C   UNL     1       0.131   1.249   0.000  0.00  0.00    +0.000 A 
ATOM      5  C   UNL     1      -0.583   1.661   0.000  0.00  0.00    +0.000 A 
ATOM      6  C   UNL     1      -1.298   1.248   0.000  0.00  0.00    +0.000 A 
ATOM      7  C   UNL     1       0.845   0.011   0.000  0.00  0.00    +0.000 C 
ATOM      8  C   UNL     1       1.560   0.424   0.000  0.00  0.00    +0.000 A 
ATOM      9  C   UNL     1       1.560   1.249   0.000  0.00  0.00    +0.000 A 
ATOM     10  C   UNL     1       0.845   1.661   0.000  0.00  0.00    +0.000 C 
ATOM     11  N   UNL     1       2.345   0.169   0.000  0.00  0.00    +0.000 NA
ATOM     12  C   UNL     1       2.829   0.837   0.000  0.00  0.00    +0.000 A 
ATOM     13  C   UNL     1       2.344   1.504   0.000  0.00  0.00    +0.000 A 
ATOM     14  C   UNL     1       3.650   0.923   0.000  0.00  0.00    +0.000 A 
ATOM     15  C   UNL     1       3.985   1.677   0.000  0.00  0.00    +0.000 A 
ATOM     16  C   UNL     1       3.500   2.344   0.000  0.00  0.00    +0.000 A 
ATOM     17  C   UNL     1       2.680   2.258   0.000  0.00  0.00    +0.000 A 
ATOM     18  O   UNL     1       0.845   2.475   0.000  0.00  0.00    +0.000 OA
ATOM     19  C   UNL     1       1.245  -0.719   0.000  0.00  0.00    +0.000 C 
ATOM     20  C   UNL     1       0.409  -0.703   0.000  0.00  0.00    +0.000 C 
ENDROOT
BRANCH   1  24
ATOM     21  C   UNL     1      -3.440  -0.819   0.000  0.00  0.00    +0.000 C 
ATOM     22  C   UNL     1      -2.730  -1.228   0.000  0.00  0.00    +0.000 C 
ATOM     23  C   UNL     1      -2.015  -0.816   0.000  0.00  0.00    +0.000 C 
ATOM     24  N   UNL     1      -2.015   0.009   0.000  0.00  0.00    +0.000 N 
ATOM     25  C   UNL     1      -2.726   0.419   0.000  0.00  0.00    +0.000 C 
ATOM     26  C   UNL     1      -3.440   0.006   0.000  0.00  0.00    +0.000 C 
BRANCH  21  31
ATOM     27  C   UNL     1      -5.594  -1.238   0.000  0.00  0.00    +0.000 C 
ATOM     28  O   UNL     1      -5.594  -2.062   0.000  0.00  0.00    +0.000 OA
ATOM     29  C   UNL     1      -4.880  -2.475   0.000  0.00  0.00    +0.000 C 
ATOM     30  C   UNL     1      -4.165  -2.062   0.000  0.00  0.00    +0.000 C 
ATOM     31  N   UNL     1      -4.165  -1.238   0.000  0.00  0.00    +0.000 NA
ATOM     32  C   UNL     1      -4.880  -0.825   0.000  0.00  0.00    +0.000 C 
ENDBRANCH  21  31
ENDBRANCH   1  24
BRANCH   6  33
ATOM     33  C   UNL     1      -2.012   1.661   0.000  0.00  0.00    +0.000 C 
ATOM     34  C   UNL     1      -2.726   1.248   0.000  0.00  0.00    +0.000 C 
ENDBRANCH   6  33
BRANCH  15  35
ATOM     35  C   UNL     1       4.797   1.762   0.000  0.00  0.00    +0.000 C 
ATOM     36  N   UNL     1       5.594   1.852   0.000  0.00  0.00    +0.000 NA
ENDBRANCH  15  35
TORSDOF 4
