REMARK  Name = 
REMARK  10 active torsions:
REMARK  status: ('A' for Active; 'I' for Inactive)
REMARK    1  A    between atoms: C_1  and  C_5
REMARK    2  A    between atoms: C_5  and  O_11
REMARK    3  A    between atoms: O_11  and  C_39
REMARK    4  A    between atoms: C_28  and  C_31
REMARK    5  A    between atoms: C_41  and  C_48
REMARK    6  A    between atoms: C_48  and  O_49
REMARK    7  A    between atoms: O_49  and  C_50
REMARK    8  A    between atoms: C_53  and  O_57
REMARK    9  A    between atoms: C_54  and  C_58
REMARK   10  A    between atoms: O_57  and  C_60
REMARK                            x       y       z     vdW  Elec       q    Type
REMARK                         _______ _______ _______ _____ _____    ______ ____
ROOT
ATOM      1  C   UNL     1       0.707   3.037   0.000  0.00  0.00    +0.000 C 
ATOM      2  O   UNL     1       0.707   2.211   0.000  0.00  0.00    +0.000 OA
ENDROOT
BRANCH   1   3
ATOM      3  C   UNL     1      -0.001   3.449   0.000  0.00  0.00    +0.000 C 
ATOM      4  C   UNL     1      -0.709   3.869   0.000  0.00  0.00    +0.000 C 
ATOM      5  C   UNL     1      -0.011   2.631   0.000  0.00  0.00    +0.000 C 
ATOM      6  C   UNL     1       0.714   3.848   0.000  0.00  0.00    +0.000 C 
ATOM      7  C   UNL     1      -1.425   3.470   0.000  0.00  0.00    +0.000 C 
ATOM      8  C   UNL     1      -0.696   4.691   0.000  0.00  0.00    +0.000 C 
ATOM      9  C   UNL     1      -0.727   2.225   0.000  0.00  0.00    +0.000 C 
ATOM     10  C   UNL     1       0.728   4.670   0.000  0.00  0.00    +0.000 C 
ATOM     11  C   UNL     1      -1.435   2.648   0.000  0.00  0.00    +0.000 C 
ATOM     12  C   UNL     1      -2.136   3.886   0.000  0.00  0.00    +0.000 C 
ATOM     13  C   UNL     1       0.020   5.093   0.000  0.00  0.00    +0.000 C 
ATOM     14  C   UNL     1      -1.407   5.117   0.000  0.00  0.00    +0.000 C 
ATOM     15  C   UNL     1      -2.150   2.235   0.000  0.00  0.00    +0.000 C 
ATOM     16  C   UNL     1      -1.445   1.823   0.000  0.00  0.00    +0.000 C 
ATOM     17  C   UNL     1      -2.855   3.480   0.000  0.00  0.00    +0.000 C 
ATOM     18  C   UNL     1       0.033   5.922   0.000  0.00  0.00    +0.000 C 
ATOM     19  C   UNL     1      -2.862   2.655   0.000  0.00  0.00    +0.000 C 
ATOM     20  C   UNL     1      -2.150   1.410   0.000  0.00  0.00    +0.000 C 
ATOM     21  C   UNL     1      -2.157   2.779   0.000  0.00  0.00    +0.000 C 
ATOM     22  C   UNL     1      -3.581   2.242   0.000  0.00  0.00    +0.000 C 
ATOM     23  C   UNL     1      -2.869   1.001   0.000  0.00  0.00    +0.000 C 
ATOM     24  C   UNL     1      -3.584   1.417   0.000  0.00  0.00    +0.000 C 
ATOM     25  C   UNL     1      -4.289   2.658   0.000  0.00  0.00    +0.000 C 
ATOM     26  C   UNL     1      -3.588   3.071   0.000  0.00  0.00    +0.000 C 
ATOM     27  C   UNL     1      -4.289   1.004   0.000  0.00  0.00    +0.000 C 
ATOM     28  C   UNL     1      -5.008   2.242   0.000  0.00  0.00    +0.000 C 
ATOM     29  C   UNL     1      -5.008   1.417   0.000  0.00  0.00    +0.000 C 
ATOM     30  C   UNL     1      -3.794   0.083   0.000  0.00  0.00    +0.000 C 
ATOM     31  O   UNL     1      -5.726   1.004   0.000  0.00  0.00    +0.000 OA
ATOM     32  O   UNL     1      -5.727   2.657   0.000  0.00  0.00    +0.000 OA
BRANCH  27  33
ATOM     33  C   UNL     1      -4.722   0.289   0.000  0.00  0.00    +0.000 C 
ATOM     34  O   UNL     1      -5.644   0.294   0.000  0.00  0.00    +0.000 OA
ENDBRANCH  27  33
ENDBRANCH   1   3
BRANCH   1  35
ATOM     35  O   UNL     1       1.426   3.453   0.000  0.00  0.00    +0.000 OA
BRANCH  35  36
ATOM     36  C   UNL     1       2.142   3.040   0.000  0.00  0.00    +0.000 C 
ATOM     37  O   UNL     1       2.143   2.202   0.000  0.00  0.00    +0.000 OA
ATOM     38  C   UNL     1       2.857   1.790   0.000  0.00  0.00    +0.000 C 
ATOM     39  C   UNL     1       3.571   2.203   0.000  0.00  0.00    +0.000 C 
ATOM     40  C   UNL     1       3.571   3.042   0.000  0.00  0.00    +0.000 C 
ATOM     41  C   UNL     1       2.856   3.453   0.000  0.00  0.00    +0.000 C 
ATOM     42  O   UNL     1       2.856   4.264   0.000  0.00  0.00    +0.000 OA
ATOM     43  O   UNL     1       4.274   3.448   0.000  0.00  0.00    +0.000 OA
ATOM     44  O   UNL     1       4.282   1.794   0.000  0.00  0.00    +0.000 OA
BRANCH  38  45
ATOM     45  C   UNL     1       2.858   0.965   0.000  0.00  0.00    +0.000 C 
BRANCH  45  46
ATOM     46  O   UNL     1       3.577   0.551   0.000  0.00  0.00    +0.000 OA
BRANCH  46  47
ATOM     47  C   UNL     1       3.578  -0.272   0.000  0.00  0.00    +0.000 C 
ATOM     48  C   UNL     1       2.854  -0.691   0.000  0.00  0.00    +0.000 C 
ATOM     49  C   UNL     1       2.855  -1.516   0.000  0.00  0.00    +0.000 C 
ATOM     50  C   UNL     1       3.569  -1.927   0.000  0.00  0.00    +0.000 C 
ATOM     51  C   UNL     1       4.293  -1.509   0.000  0.00  0.00    +0.000 C 
ATOM     52  O   UNL     1       4.292  -0.684   0.000  0.00  0.00    +0.000 OA
ATOM     53  O   UNL     1       2.144  -0.281   0.000  0.00  0.00    +0.000 OA
ATOM     54  O   UNL     1       2.150  -1.923   0.000  0.00  0.00    +0.000 OA
BRANCH  51  55
ATOM     55  C   UNL     1       5.018  -1.927   0.000  0.00  0.00    +0.000 C 
ATOM     56  O   UNL     1       5.727  -1.517   0.000  0.00  0.00    +0.000 OA
ENDBRANCH  51  55
BRANCH  50  57
ATOM     57  O   UNL     1       3.570  -3.448   0.000  0.00  0.00    +0.000 OA
BRANCH  57  58
ATOM     58  C   UNL     1       2.852  -3.863   0.000  0.00  0.00    +0.000 C 
ATOM     59  C   UNL     1       2.145  -3.455   0.000  0.00  0.00    +0.000 C 
ATOM     60  C   UNL     1       1.431  -3.868   0.000  0.00  0.00    +0.000 C 
ATOM     61  C   UNL     1       1.432  -4.693   0.000  0.00  0.00    +0.000 C 
ATOM     62  C   UNL     1       2.139  -5.101   0.000  0.00  0.00    +0.000 C 
ATOM     63  O   UNL     1       2.853  -4.688   0.000  0.00  0.00    +0.000 OA
ATOM     64  C   UNL     1       2.139  -5.922   0.000  0.00  0.00    +0.000 C 
ATOM     65  O   UNL     1       0.713  -5.109   0.000  0.00  0.00    +0.000 OA
ATOM     66  O   UNL     1       0.705  -3.450   0.000  0.00  0.00    +0.000 OA
ATOM     67  O   UNL     1       2.144  -2.623   0.000  0.00  0.00    +0.000 OA
ENDBRANCH  57  58
ENDBRANCH  50  57
ENDBRANCH  46  47
ENDBRANCH  45  46
ENDBRANCH  38  45
ENDBRANCH  35  36
ENDBRANCH   1  35
TORSDOF 10
