REMARK  Name = 
REMARK  7 active torsions:
REMARK  status: ('A' for Active; 'I' for Inactive)
REMARK    1  A    between atoms: N_3  and  C_8
REMARK    2  A    between atoms: N_4  and  C_10
REMARK    3  A    between atoms: C_7  and  C_8
REMARK    4  A    between atoms: C_7  and  C_9
REMARK    5  A    between atoms: C_8  and  C_11
REMARK    6  A    between atoms: C_9  and  C_10
REMARK    7  A    between atoms: C_12  and  C_13
REMARK                            x       y       z     vdW  Elec       q    Type
REMARK                         _______ _______ _______ _____ _____    ______ ____
ROOT
ATOM      1  C   UNL     1       0.936   0.128   0.000  0.00  0.00    +0.000 C 
ENDROOT
BRANCH   1   3
ATOM      2  O   UNL     1      -0.493  -0.697   0.000  0.00  0.00    +0.000 OA
ATOM      3  N   UNL     1       0.936  -0.697   0.000  0.00  0.00    +0.000 NA
ATOM      4  C   UNL     1       0.221  -1.110   0.000  0.00  0.00    +0.000 C 
BRANCH   4   5
ATOM      5  C   UNL     1       0.221  -1.935   0.000  0.00  0.00    +0.000 A 
ATOM      6  C   UNL     1      -0.493  -2.347   0.000  0.00  0.00    +0.000 A 
ATOM      7  C   UNL     1       0.936  -2.347   0.000  0.00  0.00    +0.000 A 
ATOM      8  C   UNL     1      -0.493  -3.172   0.000  0.00  0.00    +0.000 A 
ATOM      9  C   UNL     1       0.936  -3.172   0.000  0.00  0.00    +0.000 A 
ATOM     10  C   UNL     1       0.221  -3.585   0.000  0.00  0.00    +0.000 A 
ENDBRANCH   4   5
ENDBRANCH   1   3
BRANCH   1  13
ATOM     11  O   UNL     1       2.365   0.128   0.000  0.00  0.00    +0.000 OA
ATOM     12  N   UNL     1       1.650   1.365   0.000  0.00  0.00    +0.000 NA
ATOM     13  C   UNL     1       1.650   0.540   0.000  0.00  0.00    +0.000 C 
ENDBRANCH   1  13
BRANCH   1  14
ATOM     14  C   UNL     1       0.221   0.540   0.000  0.00  0.00    +0.000 C 
BRANCH  14  15
ATOM     15  C   UNL     1       0.221   1.365   0.000  0.00  0.00    +0.000 C 
BRANCH  15  16
ATOM     16  C   UNL     1      -0.493   1.778   0.000  0.00  0.00    +0.000 C 
BRANCH  16  17
ATOM     17  N   UNL     1      -0.493   2.603   0.000  0.00  0.00    +0.000 NA
ATOM     18  N   UNL     1      -1.208   3.840   0.000  0.00  0.00    +0.000 NA
ATOM     19  C   UNL     1      -1.208   3.015   0.000  0.00  0.00    +0.000 C 
ATOM     20  C   UNL     1      -1.922   2.603   0.000  0.00  0.00    +0.000 C 
ENDBRANCH  16  17
ENDBRANCH  15  16
ENDBRANCH  14  15
ENDBRANCH   1  14
TORSDOF 7
