REMARK  Name = 
REMARK  6 active torsions:
REMARK  status: ('A' for Active; 'I' for Inactive)
REMARK    1  A    between atoms: N_1  and  C_13
REMARK    2  A    between atoms: C_8  and  C_9
REMARK    3  A    between atoms: C_9  and  C_19
REMARK    4  A    between atoms: C_13  and  C_14
REMARK    5  A    between atoms: C_14  and  C_18
REMARK    6  A    between atoms: N_15  and  C_18
REMARK                            x       y       z     vdW  Elec       q    Type
REMARK                         _______ _______ _______ _____ _____    ______ ____
ROOT
ATOM      1  N   UNL     1      -1.072   0.825   0.000  0.00  0.00    +0.000 N 
ATOM      2  C   UNL     1      -0.357   1.238   0.000  0.00  0.00    +0.000 A 
ATOM      3  S   UNL     1      -1.072   2.475   0.000  0.00  0.00    +0.000 S 
ATOM      4  C   UNL     1      -0.357   2.062   0.000  0.00  0.00    +0.000 A 
ATOM      5  C   UNL     1      -1.786   1.237   0.000  0.00  0.00    +0.000 A 
ATOM      6  C   UNL     1      -1.786   2.062   0.000  0.00  0.00    +0.000 A 
ATOM      7  C   UNL     1       0.357   0.825   0.000  0.00  0.00    +0.000 A 
ATOM      8  C   UNL     1       1.072   1.238   0.000  0.00  0.00    +0.000 A 
ATOM      9  C   UNL     1       0.357   2.475   0.000  0.00  0.00    +0.000 A 
ATOM     10  C   UNL     1       1.072   2.062   0.000  0.00  0.00    +0.000 A 
ATOM     11  C   UNL     1      -2.501   0.825   0.000  0.00  0.00    +0.000 A 
ATOM     12  C   UNL     1      -2.501   2.475   0.000  0.00  0.00    +0.000 A 
ATOM     13  C   UNL     1      -3.215   1.237   0.000  0.00  0.00    +0.000 A 
ATOM     14  C   UNL     1      -3.215   2.062   0.000  0.00  0.00    +0.000 A 
ENDROOT
BRANCH   8  15
ATOM     15  C   UNL     1       1.786   0.825   0.000  0.00  0.00    +0.000 C 
ATOM     16  O   UNL     1       1.786   0.000   0.000  0.00  0.00    +0.000 OA
BRANCH  15  17
ATOM     17  C   UNL     1       2.501   1.238   0.000  0.00  0.00    +0.000 C 
ATOM     18  C   UNL     1       3.215   0.825   0.000  0.00  0.00    +0.000 C 
ENDBRANCH  15  17
ENDBRANCH   8  15
BRANCH   1  19
ATOM     19  C   UNL     1      -1.072   0.000   0.000  0.00  0.00    +0.000 C 
BRANCH  19  20
ATOM     20  C   UNL     1      -1.786  -0.412   0.000  0.00  0.00    +0.000 C 
BRANCH  20  21
ATOM     21  C   UNL     1      -1.786  -1.238   0.000  0.00  0.00    +0.000 C 
BRANCH  21  22
ATOM     22  N   UNL     1      -2.501  -1.650   0.000  0.00  0.00    +0.000 NA
ATOM     23  C   UNL     1      -2.501  -2.475   0.000  0.00  0.00    +0.000 C 
ATOM     24  C   UNL     1      -3.215  -1.238   0.000  0.00  0.00    +0.000 C 
ENDBRANCH  21  22
ENDBRANCH  20  21
ENDBRANCH  19  20
ENDBRANCH   1  19
TORSDOF 6
