REMARK  Name = 
REMARK  5 active torsions:
REMARK  status: ('A' for Active; 'I' for Inactive)
REMARK    1  A    between atoms: C_7  and  O_14
REMARK    2  A    between atoms: O_14  and  C_17
REMARK    3  A    between atoms: C_17  and  C_20
REMARK    4  A    between atoms: C_20  and  C_23
REMARK    5  A    between atoms: C_23  and  C_25
REMARK                            x       y       z     vdW  Elec       q    Type
REMARK                         _______ _______ _______ _____ _____    ______ ____
ROOT
ATOM      1  C   UNL     1       0.150  -1.144   0.000  0.00  0.00    +0.000 C 
ATOM      2  C   UNL     1      -0.549  -1.553   0.000  0.00  0.00    +0.000 C 
ATOM      3  C   UNL     1       0.150  -0.317   0.000  0.00  0.00    +0.000 C 
ATOM      4  C   UNL     1       0.932  -1.403   0.000  0.00  0.00    +0.000 C 
ATOM      5  C   UNL     1      -1.273  -1.144   0.000  0.00  0.00    +0.000 C 
ATOM      6  C   UNL     1      -0.549  -2.380   0.000  0.00  0.00    +0.000 C 
ATOM      7  C   UNL     1       0.932  -0.065   0.000  0.00  0.00    +0.000 C 
ATOM      8  C   UNL     1      -0.549   0.079   0.000  0.00  0.00    +0.000 C 
ATOM      9  C   UNL     1       0.167   0.526   0.000  0.00  0.00    +0.000 C 
ATOM     10  C   UNL     1       1.424  -0.731   0.000  0.00  0.00    +0.000 C 
ATOM     11  C   UNL     1      -1.976  -1.553   0.000  0.00  0.00    +0.000 A 
ATOM     12  C   UNL     1      -1.273  -0.317   0.000  0.00  0.00    +0.000 C 
ATOM     13  C   UNL     1      -1.273  -2.789   0.000  0.00  0.00    +0.000 C 
ATOM     14  C   UNL     1      -1.976  -2.380   0.000  0.00  0.00    +0.000 A 
ATOM     15  C   UNL     1      -2.693  -1.144   0.000  0.00  0.00    +0.000 A 
ATOM     16  C   UNL     1      -2.693  -2.789   0.000  0.00  0.00    +0.000 A 
ATOM     17  C   UNL     1      -3.407  -1.553   0.000  0.00  0.00    +0.000 A 
ATOM     18  C   UNL     1      -3.407  -2.380   0.000  0.00  0.00    +0.000 A 
ATOM     19  O   UNL     1      -4.118  -2.789   0.000  0.00  0.00    +0.000 OA
ENDROOT
BRANCH   7  20
ATOM     20  O   UNL     1       1.192   0.710   0.000  0.00  0.00    +0.000 OA
BRANCH  20  21
ATOM     21  C   UNL     1       2.001   0.881   0.000  0.00  0.00    +0.000 C 
ATOM     22  O   UNL     1       2.540   0.270   0.000  0.00  0.00    +0.000 OA
BRANCH  21  23
ATOM     23  C   UNL     1       2.247   1.663   0.000  0.00  0.00    +0.000 C 
BRANCH  23  24
ATOM     24  C   UNL     1       3.049   1.837   0.000  0.00  0.00    +0.000 C 
BRANCH  24  25
ATOM     25  C   UNL     1       3.305   2.618   0.000  0.00  0.00    +0.000 C 
ATOM     26  C   UNL     1       4.118   2.789   0.000  0.00  0.00    +0.000 C 
ENDBRANCH  24  25
ENDBRANCH  23  24
ENDBRANCH  21  23
ENDBRANCH  20  21
ENDBRANCH   7  20
TORSDOF 5
