REMARK  Name = 
REMARK  0 active torsions:
REMARK  status: ('A' for Active; 'I' for Inactive)
REMARK                            x       y       z     vdW  Elec       q    Type
REMARK                         _______ _______ _______ _____ _____    ______ ____
ROOT
ATOM      1  F   UNL     1      -1.429  -1.238   0.000  0.00  0.00    +0.000 F 
ATOM      2  O   UNL     1       0.000  -1.238   0.000  0.00  0.00    +0.000 OA
ATOM      3  O   UNL     1       0.000   1.238   0.000  0.00  0.00    +0.000 OA
ATOM      4  O   UNL     1      -1.429   0.412   0.000  0.00  0.00    +0.000 OA
ATOM      5  O   UNL     1       1.429   0.412   0.000  0.00  0.00    +0.000 OA
ATOM      6  O   UNL     1       1.429  -1.238   0.000  0.00  0.00    +0.000 OA
ATOM      7  C   UNL     1       0.000   0.412   0.000  0.00  0.00    +0.000 C 
ATOM      8  C   UNL     1      -0.714   0.000   0.000  0.00  0.00    +0.000 C 
ATOM      9  C   UNL     1       0.715   0.000   0.000  0.00  0.00    +0.000 C 
ATOM     10  C   UNL     1      -0.714  -0.825   0.000  0.00  0.00    +0.000 C 
ATOM     11  C   UNL     1       0.715  -0.825   0.000  0.00  0.00    +0.000 C 
ENDROOT
TORSDOF 0
