REMARK  Name = 
REMARK  3 active torsions:
REMARK  status: ('A' for Active; 'I' for Inactive)
REMARK    1  A    between atoms: C_2  and  C_3
REMARK    2  A    between atoms: N_6  and  C_8
REMARK    3  A    between atoms: C_16  and  C_20
REMARK                            x       y       z     vdW  Elec       q    Type
REMARK                         _______ _______ _______ _____ _____    ______ ____
ROOT
ATOM      1  C   UNL     1       2.816   1.992   0.000  0.00  0.00    +0.000 A 
ATOM      2  C   UNL     1       2.009   2.164   0.000  0.00  0.00    +0.000 A 
ATOM      3  C   UNL     1       1.596   1.450   0.000  0.00  0.00    +0.000 A 
ATOM      4  N   UNL     1       2.148   0.837   0.000  0.00  0.00    +0.000 N 
ATOM      5  N   UNL     1       2.902   1.172   0.000  0.00  0.00    +0.000 NA
ATOM      6  C   UNL     1       0.771   1.450   0.000  0.00  0.00    +0.000 A 
ATOM      7  N   UNL     1       0.219   0.837   0.000  0.00  0.00    +0.000 NA
ATOM      8  N   UNL     1      -0.534   1.172   0.000  0.00  0.00    +0.000 NA
ATOM      9  C   UNL     1      -0.448   1.992   0.000  0.00  0.00    +0.000 A 
ATOM     10  N   UNL     1       0.359   2.164   0.000  0.00  0.00    +0.000 N 
ATOM     11  C   UNL     1       0.771   2.878   0.000  0.00  0.00    +0.000 C 
ATOM     12  C   UNL     1       1.596   2.878   0.000  0.00  0.00    +0.000 C 
ENDROOT
BRANCH   4  13
ATOM     13  C   UNL     1       1.977   0.029   0.000  0.00  0.00    +0.000 C 
ATOM     14  C   UNL     1       2.529  -0.584   0.000  0.00  0.00    +0.000 C 
ATOM     15  C   UNL     1       2.116  -1.298   0.000  0.00  0.00    +0.000 C 
ATOM     16  C   UNL     1       1.309  -1.127   0.000  0.00  0.00    +0.000 C 
ATOM     17  C   UNL     1       1.223  -0.306   0.000  0.00  0.00    +0.000 C 
ENDBRANCH   4  13
BRANCH   9  18
ATOM     18  C   UNL     1      -1.061   2.545   0.000  0.00  0.00    +0.000 A 
ATOM     19  C   UNL     1      -1.868   2.373   0.000  0.00  0.00    +0.000 A 
ATOM     20  C   UNL     1      -2.281   3.087   0.000  0.00  0.00    +0.000 A 
ATOM     21  C   UNL     1      -1.729   3.701   0.000  0.00  0.00    +0.000 A 
ATOM     22  S   UNL     1      -0.975   3.365   0.000  0.00  0.00    +0.000 S 
ENDBRANCH   9  18
BRANCH   1  24
ATOM     23  C   UNL     1       4.213   2.290   0.000  0.00  0.00    +0.000 C 
ATOM     24  C   UNL     1       3.429   2.545   0.000  0.00  0.00    +0.000 C 
ENDBRANCH   1  24
TORSDOF 3
