REMARK  Name = 
REMARK  5 active torsions:
REMARK  status: ('A' for Active; 'I' for Inactive)
REMARK    1  A    between atoms: C_8  and  O_10
REMARK    2  A    between atoms: O_10  and  C_11
REMARK    3  A    between atoms: C_11  and  C_13
REMARK    4  A    between atoms: C_13  and  C_14
REMARK    5  A    between atoms: C_13  and  C_16
REMARK                            x       y       z     vdW  Elec       q    Type
REMARK                         _______ _______ _______ _____ _____    ______ ____
ROOT
ATOM      1  O   UNL     1       1.066   3.530   0.000  0.00  0.00    +0.000 OA
ENDROOT
BRANCH   1   9
ATOM      2  C   UNL     1      -0.101   3.662   0.000  0.00  0.00    +0.000 C 
ATOM      3  N   UNL     1      -0.454   4.408   0.000  0.00  0.00    +0.000 N 
ATOM      4  C   UNL     1      -0.191   5.326   0.000  0.00  0.00    +0.000 C 
ATOM      5  C   UNL     1      -1.007   5.203   0.000  0.00  0.00    +0.000 C 
ATOM      6  C   UNL     1      -1.420   4.489   0.000  0.00  0.00    +0.000 C 
ATOM      7  C   UNL     1      -1.118   3.721   0.000  0.00  0.00    +0.000 C 
ATOM      8  C   UNL     1      -0.330   3.478   0.000  0.00  0.00    +0.000 C 
ATOM      9  C   UNL     1       0.352   3.942   0.000  0.00  0.00    +0.000 C 
ATOM     10  C   UNL     1       0.413   4.765   0.000  0.00  0.00    +0.000 C 
ATOM     11  C   UNL     1       0.368   4.475   0.000  0.00  0.00    +0.000 C 
ENDBRANCH   1   9
BRANCH   1  12
ATOM     12  C   UNL     1       1.066   2.705   0.000  0.00  0.00    +0.000 C 
ATOM     13  O   UNL     1       0.352   2.292   0.000  0.00  0.00    +0.000 OA
BRANCH  12  14
ATOM     14  C   UNL     1       1.781   2.292   0.000  0.00  0.00    +0.000 C 
BRANCH  14  15
ATOM     15  C   UNL     1       1.781   1.467   0.000  0.00  0.00    +0.000 A 
ATOM     16  C   UNL     1       2.495   1.055   0.000  0.00  0.00    +0.000 A 
ATOM     17  C   UNL     1       2.495   0.230   0.000  0.00  0.00    +0.000 A 
ATOM     18  C   UNL     1       1.781  -0.183   0.000  0.00  0.00    +0.000 A 
ATOM     19  C   UNL     1       1.066   0.230   0.000  0.00  0.00    +0.000 A 
ATOM     20  C   UNL     1       1.066   1.055   0.000  0.00  0.00    +0.000 A 
ENDBRANCH  14  15
BRANCH  14  21
ATOM     21  C   UNL     1       2.495   2.705   0.000  0.00  0.00    +0.000 C 
ATOM     22  O   UNL     1       3.210   2.292   0.000  0.00  0.00    +0.000 OA
ENDBRANCH  14  21
ENDBRANCH  12  14
ENDBRANCH   1  12
TORSDOF 5
