REMARK  Name = 
REMARK  12 active torsions:
REMARK  status: ('A' for Active; 'I' for Inactive)
REMARK    1  A    between atoms: C_2  and  C_22
REMARK    2  A    between atoms: C_3  and  C_7
REMARK    3  A    between atoms: C_4  and  C_14
REMARK    4  A    between atoms: C_11  and  N_13
REMARK    5  A    between atoms: C_14  and  O_16
REMARK    6  A    between atoms: O_16  and  C_17
REMARK    7  A    between atoms: C_17  and  C_18
REMARK    8  A    between atoms: C_19  and  C_30
REMARK    9  A    between atoms: C_22  and  O_23
REMARK   10  A    between atoms: O_23  and  C_25
REMARK   11  A    between atoms: C_25  and  C_26
REMARK   12  A    between atoms: C_26  and  O_27
REMARK                            x       y       z     vdW  Elec       q    Type
REMARK                         _______ _______ _______ _____ _____    ______ ____
ROOT
ATOM      1  C   UNL     1      -1.506   1.864   0.000  0.00  0.00    +0.000 C 
ATOM      2  C   UNL     1      -1.506   1.039   0.000  0.00  0.00    +0.000 C 
ATOM      3  C   UNL     1      -0.790   0.627   0.000  0.00  0.00    +0.000 C 
ATOM      4  C   UNL     1      -0.078   1.039   0.000  0.00  0.00    +0.000 C 
ATOM      5  C   UNL     1      -0.078   1.864   0.000  0.00  0.00    +0.000 C 
ATOM      6  N   UNL     1      -0.790   2.277   0.000  0.00  0.00    +0.000 NA
ATOM      7  C   UNL     1       0.636   2.276   0.000  0.00  0.00    +0.000 C 
ATOM      8  C   UNL     1      -2.221   2.277   0.000  0.00  0.00    +0.000 C 
ENDROOT
BRANCH   3   9
ATOM      9  C   UNL     1      -0.789  -0.198   0.000  0.00  0.00    +0.000 A 
ATOM     10  C   UNL     1      -1.500  -0.609   0.000  0.00  0.00    +0.000 A 
ATOM     11  C   UNL     1      -1.498  -1.433   0.000  0.00  0.00    +0.000 A 
ATOM     12  C   UNL     1      -0.784  -1.845   0.000  0.00  0.00    +0.000 A 
ATOM     13  C   UNL     1      -0.070  -1.432   0.000  0.00  0.00    +0.000 A 
ATOM     14  C   UNL     1      -0.071  -0.607   0.000  0.00  0.00    +0.000 A 
BRANCH  13  15
ATOM     15  N   UNL     1       0.645  -1.843   0.000  0.00  0.00    +0.000 N 
ATOM     16  O   UNL     1       1.524  -1.265   0.000  0.00  0.00    +0.000 OA
ATOM     17  O   UNL     1       0.646  -2.668   0.000  0.00  0.00    +0.000 OA
ENDBRANCH  13  15
ENDBRANCH   3   9
BRANCH   2  18
ATOM     18  C   UNL     1      -2.221   0.626   0.000  0.00  0.00    +0.000 C 
ATOM     19  O   UNL     1      -2.220  -0.198   0.000  0.00  0.00    +0.000 OA
BRANCH  18  20
ATOM     20  O   UNL     1      -2.935   1.039   0.000  0.00  0.00    +0.000 OA
BRANCH  20  21
ATOM     21  C   UNL     1      -3.650   0.626   0.000  0.00  0.00    +0.000 C 
BRANCH  21  22
ATOM     22  C   UNL     1      -4.364   1.038   0.000  0.00  0.00    +0.000 C 
BRANCH  22  23
ATOM     23  O   UNL     1      -5.078   0.625   0.000  0.00  0.00    +0.000 OA
ATOM     24  C   UNL     1      -5.793   1.037   0.000  0.00  0.00    +0.000 C 
ENDBRANCH  22  23
ENDBRANCH  21  22
ENDBRANCH  20  21
ENDBRANCH  18  20
ENDBRANCH   2  18
BRANCH   4  25
ATOM     25  C   UNL     1       0.636   0.627   0.000  0.00  0.00    +0.000 C 
ATOM     26  O   UNL     1       0.637  -0.198   0.000  0.00  0.00    +0.000 OA
BRANCH  25  27
ATOM     27  O   UNL     1       1.350   1.040   0.000  0.00  0.00    +0.000 OA
BRANCH  27  28
ATOM     28  C   UNL     1       2.065   0.628   0.000  0.00  0.00    +0.000 C 
BRANCH  28  29
ATOM     29  C   UNL     1       2.779   1.042   0.000  0.00  0.00    +0.000 C 
ATOM     30  C   UNL     1       3.602   1.044   0.000  0.00  0.00    +0.000 C 
BRANCH  30  31
ATOM     31  C   UNL     1       4.314   1.460   0.000  0.00  0.00    +0.000 A 
ATOM     32  C   UNL     1       4.351   2.285   0.000  0.00  0.00    +0.000 A 
ATOM     33  C   UNL     1       5.014   1.013   0.000  0.00  0.00    +0.000 A 
ATOM     34  C   UNL     1       5.793   1.396   0.000  0.00  0.00    +0.000 A 
ATOM     35  C   UNL     1       5.788   2.221   0.000  0.00  0.00    +0.000 A 
ATOM     36  C   UNL     1       5.088   2.668   0.000  0.00  0.00    +0.000 A 
ENDBRANCH  30  31
ENDBRANCH  28  29
ENDBRANCH  27  28
ENDBRANCH  25  27
ENDBRANCH   4  25
TORSDOF 12
