REMARK  Name = 
REMARK  6 active torsions:
REMARK  status: ('A' for Active; 'I' for Inactive)
REMARK    1  A    between atoms: C_4  and  C_25
REMARK    2  A    between atoms: C_6  and  P_8
REMARK    3  A    between atoms: P_8  and  C_10
REMARK    4  A    between atoms: P_8  and  O_23
REMARK    5  A    between atoms: C_18  and  C_19
REMARK    6  A    between atoms: C_26  and  C_27
REMARK                            x       y       z     vdW  Elec       q    Type
REMARK                         _______ _______ _______ _____ _____    ______ ____
ROOT
ATOM      1  P   UNL     1       0.884   0.754   0.000  0.00  0.00    +0.000 P 
ATOM      2  O   UNL     1       0.099   0.499   0.000  0.00  0.00    +0.000 OA
ENDROOT
BRANCH   1   3
ATOM      3  C   UNL     1       1.139  -0.030   0.000  0.00  0.00    +0.000 A 
ATOM      4  C   UNL     1       1.923  -0.285   0.000  0.00  0.00    +0.000 A 
ATOM      5  C   UNL     1       2.638   0.127   0.000  0.00  0.00    +0.000 A 
ATOM      6  C   UNL     1       3.352  -0.285   0.000  0.00  0.00    +0.000 A 
ATOM      7  C   UNL     1       3.352  -1.110   0.000  0.00  0.00    +0.000 A 
ATOM      8  C   UNL     1       2.638  -1.523   0.000  0.00  0.00    +0.000 A 
ATOM      9  C   UNL     1       1.923  -1.110   0.000  0.00  0.00    +0.000 A 
ATOM     10  N   UNL     1       1.139  -1.365   0.000  0.00  0.00    +0.000 NA
ATOM     11  C   UNL     1       0.654  -0.698   0.000  0.00  0.00    +0.000 A 
ATOM     12 CL   UNL     1       4.067   0.127   0.000  0.00  0.00    +0.000 Cl
BRANCH  11  13
ATOM     13  C   UNL     1      -0.171  -0.698   0.000  0.00  0.00    +0.000 C 
ATOM     14  O   UNL     1      -0.584   0.017   0.000  0.00  0.00    +0.000 OA
ATOM     15  N   UNL     1      -0.584  -1.412   0.000  0.00  0.00    +0.000 NA
ENDBRANCH  11  13
ENDBRANCH   1   3
BRANCH   1  21
ATOM     16  C   UNL     1      -1.240   2.666   0.000  0.00  0.00    +0.000 C 
ATOM     17  C   UNL     1      -0.433   2.495   0.000  0.00  0.00    +0.000 A 
ATOM     18  C   UNL     1       0.119   3.108   0.000  0.00  0.00    +0.000 A 
ATOM     19  C   UNL     1       0.926   2.937   0.000  0.00  0.00    +0.000 A 
ATOM     20  C   UNL     1       1.181   2.152   0.000  0.00  0.00    +0.000 A 
ATOM     21  C   UNL     1       0.629   1.539   0.000  0.00  0.00    +0.000 A 
ATOM     22  C   UNL     1      -0.178   1.710   0.000  0.00  0.00    +0.000 A 
BRANCH  19  23
ATOM     23  C   UNL     1       1.478   3.550   0.000  0.00  0.00    +0.000 C 
ATOM     24  C   UNL     1       2.285   3.378   0.000  0.00  0.00    +0.000 C 
BRANCH  24  25
ATOM     25  C   UNL     1       2.837   3.991   0.000  0.00  0.00    +0.000 C 
ATOM     26  N   UNL     1       3.389   4.604   0.000  0.00  0.00    +0.000 NA
ENDBRANCH  24  25
ENDBRANCH  19  23
ENDBRANCH   1  21
BRANCH   1  27
ATOM     27  O   UNL     1       1.668   1.009   0.000  0.00  0.00    +0.000 OA
ATOM     28  C   UNL     1       1.840   1.816   0.000  0.00  0.00    +0.000 C 
ENDBRANCH   1  27
TORSDOF 6
