REMARK  Name = 
REMARK  8 active torsions:
REMARK  status: ('A' for Active; 'I' for Inactive)
REMARK    1  A    between atoms: C_2  and  C_3
REMARK    2  A    between atoms: C_2  and  N_34
REMARK    3  A    between atoms: N_5  and  C_6
REMARK    4  A    between atoms: C_6  and  C_7
REMARK    5  A    between atoms: C_6  and  C_13
REMARK    6  A    between atoms: C_19  and  C_20
REMARK    7  A    between atoms: C_22  and  C_25
REMARK    8  A    between atoms: C_25  and  C_27
REMARK                            x       y       z     vdW  Elec       q    Type
REMARK                         _______ _______ _______ _____ _____    ______ ____
ROOT
ATOM      1  C   UNL     1       4.148  -2.858   0.000  0.00  0.00    +0.000 C 
ATOM      2  O   UNL     1       4.148  -2.033   0.000  0.00  0.00    +0.000 OA
ATOM      3  N   UNL     1       3.433  -3.270   0.000  0.00  0.00    +0.000 N 
ATOM      4  C   UNL     1       3.347  -4.091   0.000  0.00  0.00    +0.000 C 
ATOM      5  C   UNL     1       2.540  -4.262   0.000  0.00  0.00    +0.000 C 
ATOM      6  C   UNL     1       2.128  -3.548   0.000  0.00  0.00    +0.000 C 
ATOM      7  C   UNL     1       2.680  -2.935   0.000  0.00  0.00    +0.000 C 
ENDROOT
BRANCH   7   8
ATOM      8  C   UNL     1       2.508  -2.128   0.000  0.00  0.00    +0.000 A 
ATOM      9  N   UNL     1       1.755  -1.792   0.000  0.00  0.00    +0.000 NA
ATOM     10  C   UNL     1       1.841  -0.972   0.000  0.00  0.00    +0.000 A 
ATOM     11  C   UNL     1       2.648  -0.800   0.000  0.00  0.00    +0.000 A 
ATOM     12  S   UNL     1       3.060  -1.514   0.000  0.00  0.00    +0.000 S 
BRANCH  10  13
ATOM     13  C   UNL     1       1.228  -0.419   0.000  0.00  0.00    +0.000 C 
ATOM     14  O   UNL     1       0.443  -0.674   0.000  0.00  0.00    +0.000 OA
BRANCH  13  15
ATOM     15  C   UNL     1       1.399   0.388   0.000  0.00  0.00    +0.000 A 
ATOM     16  C   UNL     1       0.786   0.940   0.000  0.00  0.00    +0.000 A 
ATOM     17  C   UNL     1       0.958   1.746   0.000  0.00  0.00    +0.000 A 
ATOM     18  C   UNL     1       1.742   2.001   0.000  0.00  0.00    +0.000 A 
ATOM     19  C   UNL     1       2.355   1.449   0.000  0.00  0.00    +0.000 A 
ATOM     20  C   UNL     1       2.184   0.642   0.000  0.00  0.00    +0.000 A 
ATOM     21  F   UNL     1       1.914   2.808   0.000  0.00  0.00    +0.000 F 
ENDBRANCH  13  15
ENDBRANCH  10  13
ENDBRANCH   7   8
BRANCH   1  22
ATOM     22  C   UNL     1       4.862  -3.270   0.000  0.00  0.00    +0.000 C 
BRANCH  22  23
ATOM     23  C   UNL     1       4.862  -4.095   0.000  0.00  0.00    +0.000 C 
ATOM     24  C   UNL     1       5.577  -4.508   0.000  0.00  0.00    +0.000 C 
ATOM     25  C   UNL     1       5.577  -5.333   0.000  0.00  0.00    +0.000 C 
ATOM     26  C   UNL     1       4.862  -5.745   0.000  0.00  0.00    +0.000 C 
ATOM     27  C   UNL     1       4.148  -5.333   0.000  0.00  0.00    +0.000 C 
ATOM     28  C   UNL     1       4.148  -4.508   0.000  0.00  0.00    +0.000 C 
ENDBRANCH  22  23
BRANCH  22  31
ATOM     29  C   UNL     1       6.291  -3.270   0.000  0.00  0.00    +0.000 C 
ATOM     30  O   UNL     1       6.291  -4.095   0.000  0.00  0.00    +0.000 OA
ATOM     31  N   UNL     1       5.577  -2.858   0.000  0.00  0.00    +0.000 NA
BRANCH  29  33
ATOM     32  C   UNL     1       7.006  -2.033   0.000  0.00  0.00    +0.000 C 
ATOM     33  C   UNL     1       7.006  -2.858   0.000  0.00  0.00    +0.000 C 
BRANCH  33  34
ATOM     34  N   UNL     1       7.720  -3.270   0.000  0.00  0.00    +0.000 NA
ATOM     35  C   UNL     1       8.435  -2.858   0.000  0.00  0.00    +0.000 C 
ENDBRANCH  33  34
ENDBRANCH  29  33
ENDBRANCH  22  31
ENDBRANCH   1  22
TORSDOF 8
