REMARK  Name = 
REMARK  6 active torsions:
REMARK  status: ('A' for Active; 'I' for Inactive)
REMARK    1  A    between atoms: C_2  and  C_3
REMARK    2  A    between atoms: C_2  and  N_11
REMARK    3  A    between atoms: C_3  and  C_4
REMARK    4  A    between atoms: N_11  and  C_12
REMARK    5  A    between atoms: C_12  and  C_13
REMARK    6  A    between atoms: C_13  and  N_14
REMARK                            x       y       z     vdW  Elec       q    Type
REMARK                         _______ _______ _______ _____ _____    ______ ____
ROOT
ATOM      1  C   UNL     1      -1.280  -1.264   0.000  0.00  0.00    +0.000 C 
ENDROOT
BRANCH   1   2
ATOM      2  N   UNL     1      -0.566  -1.676   0.000  0.00  0.00    +0.000 N 
ATOM      3  C   UNL     1      -0.479  -2.497   0.000  0.00  0.00    +0.000 A 
ATOM      4  N   UNL     1       0.328  -2.668   0.000  0.00  0.00    +0.000 NA
ATOM      5  C   UNL     1       0.740  -1.954   0.000  0.00  0.00    +0.000 A 
ATOM      6  C   UNL     1       0.188  -1.341   0.000  0.00  0.00    +0.000 A 
ATOM      7  C   UNL     1       0.443  -0.556   0.000  0.00  0.00    +0.000 A 
ATOM      8  O   UNL     1      -0.109   0.057   0.000  0.00  0.00    +0.000 OA
ATOM      9  N   UNL     1       1.250  -0.384   0.000  0.00  0.00    +0.000 N 
ATOM     10  C   UNL     1       1.802  -0.998   0.000  0.00  0.00    +0.000 A 
ATOM     11  O   UNL     1       2.609  -0.826   0.000  0.00  0.00    +0.000 OA
ATOM     12  N   UNL     1       1.547  -1.782   0.000  0.00  0.00    +0.000 N 
ATOM     13  C   UNL     1       2.099  -2.395   0.000  0.00  0.00    +0.000 C 
ATOM     14  C   UNL     1       1.505   0.400   0.000  0.00  0.00    +0.000 C 
ENDBRANCH   1   2
BRANCH   1  15
ATOM     15  C   UNL     1      -1.995  -1.676   0.000  0.00  0.00    +0.000 C 
BRANCH  15  16
ATOM     16  N   UNL     1      -2.709  -1.264   0.000  0.00  0.00    +0.000 NA
BRANCH  16  18
ATOM     17  C   UNL     1      -3.424  -2.501   0.000  0.00  0.00    +0.000 C 
ATOM     18  C   UNL     1      -3.424  -1.676   0.000  0.00  0.00    +0.000 C 
BRANCH  18  19
ATOM     19  C   UNL     1      -4.138  -1.264   0.000  0.00  0.00    +0.000 C 
ATOM     20  O   UNL     1      -4.138  -0.439   0.000  0.00  0.00    +0.000 OA
BRANCH  19  21
ATOM     21  C   UNL     1      -4.853  -1.676   0.000  0.00  0.00    +0.000 A 
ATOM     22  C   UNL     1      -4.853  -2.501   0.000  0.00  0.00    +0.000 A 
ATOM     23  C   UNL     1      -5.567  -2.914   0.000  0.00  0.00    +0.000 A 
ATOM     24  C   UNL     1      -6.282  -2.501   0.000  0.00  0.00    +0.000 A 
ATOM     25  C   UNL     1      -6.282  -1.676   0.000  0.00  0.00    +0.000 A 
ATOM     26  C   UNL     1      -5.567  -1.264   0.000  0.00  0.00    +0.000 A 
ENDBRANCH  19  21
ENDBRANCH  18  19
ENDBRANCH  16  18
ENDBRANCH  15  16
ENDBRANCH   1  15
TORSDOF 6
