REMARK  Name = 
REMARK  6 active torsions:
REMARK  status: ('A' for Active; 'I' for Inactive)
REMARK    1  A    between atoms: C_5  and  C_8
REMARK    2  A    between atoms: C_8  and  C_10
REMARK    3  A    between atoms: C_10  and  C_11
REMARK    4  A    between atoms: C_11  and  C_12
REMARK    5  A    between atoms: C_12  and  N_13
REMARK    6  A    between atoms: N_19  and  C_24
REMARK                            x       y       z     vdW  Elec       q    Type
REMARK                         _______ _______ _______ _____ _____    ______ ____
ROOT
ATOM      1  N   UNL     1       2.920   0.412   0.000  0.00  0.00    +0.000 NA
ATOM      2  C   UNL     1       2.507  -0.302   0.000  0.00  0.00    +0.000 C 
ATOM      3  C   UNL     1       1.682  -0.302   0.000  0.00  0.00    +0.000 C 
ATOM      4  C   UNL     1       1.270   0.412   0.000  0.00  0.00    +0.000 C 
ATOM      5  C   UNL     1       1.682   1.127   0.000  0.00  0.00    +0.000 C 
ATOM      6  C   UNL     1       2.507   1.127   0.000  0.00  0.00    +0.000 C 
ATOM      7  N   UNL     1       0.785  -0.255   0.000  0.00  0.00    +0.000 N 
ATOM      8  C   UNL     1       0.000   0.000   0.000  0.00  0.00    +0.000 C 
ATOM      9  N   UNL     1       0.000   0.825   0.000  0.00  0.00    +0.000 NA
ATOM     10  C   UNL     1       0.785   1.080   0.000  0.00  0.00    +0.000 C 
ATOM     11  O   UNL     1       1.040   1.865   0.000  0.00  0.00    +0.000 OA
ENDROOT
BRANCH   7  12
ATOM     12  C   UNL     1       1.040  -1.040   0.000  0.00  0.00    +0.000 A 
ATOM     13  C   UNL     1       1.847  -1.211   0.000  0.00  0.00    +0.000 A 
ATOM     14  C   UNL     1       2.102  -1.996   0.000  0.00  0.00    +0.000 A 
ATOM     15  C   UNL     1       1.549  -2.609   0.000  0.00  0.00    +0.000 A 
ATOM     16  C   UNL     1       0.743  -2.437   0.000  0.00  0.00    +0.000 A 
ATOM     17  C   UNL     1       0.487  -1.653   0.000  0.00  0.00    +0.000 A 
ENDBRANCH   7  12
BRANCH   1  18
ATOM     18  C   UNL     1       3.744   0.412   0.000  0.00  0.00    +0.000 C 
BRANCH  18  19
ATOM     19  C   UNL     1       4.157   1.127   0.000  0.00  0.00    +0.000 C 
BRANCH  19  20
ATOM     20  C   UNL     1       4.982   1.127   0.000  0.00  0.00    +0.000 C 
BRANCH  20  21
ATOM     21  C   UNL     1       5.394   1.841   0.000  0.00  0.00    +0.000 C 
ATOM     22  O   UNL     1       4.982   2.556   0.000  0.00  0.00    +0.000 OA
BRANCH  21  27
ATOM     23  F   UNL     1       8.694   1.841   0.000  0.00  0.00    +0.000 F 
ATOM     24  C   UNL     1       7.870   1.841   0.000  0.00  0.00    +0.000 A 
ATOM     25  C   UNL     1       7.457   1.127   0.000  0.00  0.00    +0.000 A 
ATOM     26  C   UNL     1       6.632   1.127   0.000  0.00  0.00    +0.000 A 
ATOM     27  C   UNL     1       6.220   1.841   0.000  0.00  0.00    +0.000 A 
ATOM     28  C   UNL     1       6.632   2.556   0.000  0.00  0.00    +0.000 A 
ATOM     29  C   UNL     1       7.457   2.556   0.000  0.00  0.00    +0.000 A 
ENDBRANCH  21  27
ENDBRANCH  20  21
ENDBRANCH  19  20
ENDBRANCH  18  19
ENDBRANCH   1  18
TORSDOF 6
