REMARK  Name = 
REMARK  0 active torsions:
REMARK  status: ('A' for Active; 'I' for Inactive)
REMARK                            x       y       z     vdW  Elec       q    Type
REMARK                         _______ _______ _______ _____ _____    ______ ____
ROOT
ATOM      1  O   HOH     1       0.000   0.000   0.000  0.00  0.00    +0.000 OA
ENDROOT
TORSDOF 0
REMARK  Name = 
REMARK  0 active torsions:
REMARK  status: ('A' for Active; 'I' for Inactive)
REMARK                            x       y       z     vdW  Elec       q    Type
REMARK                         _______ _______ _______ _____ _____    ______ ____
ROOT
ATOM      1  O   UNL     1       4.125   0.825   0.000  0.00  0.00    +0.000 OA
ATOM      2 SI   UNL     1       4.125   0.000   0.000  0.00  0.00    +0.000 Si
ATOM      3  O   UNL     1       4.125  -0.825   0.000  0.00  0.00    +0.000 OA
ATOM      4  O   UNL     1       3.300   0.000   0.000  0.00  0.00    +0.000 OA
ATOM      5  O   UNL     1       4.950   0.000   0.000  0.00  0.00    +0.000 OA
ENDROOT
TORSDOF 0
REMARK  Name = 
REMARK  0 active torsions:
REMARK  status: ('A' for Active; 'I' for Inactive)
REMARK                            x       y       z     vdW  Elec       q    Type
REMARK                         _______ _______ _______ _____ _____    ______ ____
ROOT
ATOM      1  O   UNL     1       0.000  -4.950   0.000  0.00  0.00    +0.000 OA
ATOM      2 SI   UNL     1       0.000  -4.125   0.000  0.00  0.00    +0.000 Si
ATOM      3  O   UNL     1       0.000  -3.300   0.000  0.00  0.00    +0.000 OA
ATOM      4  O   UNL     1       0.825  -4.125   0.000  0.00  0.00    +0.000 OA
ATOM      5  O   UNL     1      -0.825  -4.125   0.000  0.00  0.00    +0.000 OA
ENDROOT
TORSDOF 0
REMARK  Name = 
REMARK  0 active torsions:
REMARK  status: ('A' for Active; 'I' for Inactive)
REMARK                            x       y       z     vdW  Elec       q    Type
REMARK                         _______ _______ _______ _____ _____    ______ ____
ROOT
ATOM      1 MG   UNL     1       4.125   1.650   0.000  0.00  0.00    +0.000 Mg
ENDROOT
TORSDOF 0
REMARK  Name = 
REMARK  0 active torsions:
REMARK  status: ('A' for Active; 'I' for Inactive)
REMARK                            x       y       z     vdW  Elec       q    Type
REMARK                         _______ _______ _______ _____ _____    ______ ____
ROOT
ATOM      1 AL   UNL     1       4.125  -1.650   0.000  0.00  0.00    +0.000 Al
ENDROOT
TORSDOF 0
REMARK  Name = 
REMARK  0 active torsions:
REMARK  status: ('A' for Active; 'I' for Inactive)
REMARK                            x       y       z     vdW  Elec       q    Type
REMARK                         _______ _______ _______ _____ _____    ______ ____
ROOT
ATOM      1 AL   UNL     1       2.475   0.000   0.000  0.00  0.00    +0.000 Al
ENDROOT
TORSDOF 0
