REMARK  Name = 
REMARK  3 active torsions:
REMARK  status: ('A' for Active; 'I' for Inactive)
REMARK    1  A    between atoms: C_1  and  C_2
REMARK    2  A    between atoms: C_2  and  C_3
REMARK    3  A    between atoms: C_2  and  C_12
REMARK                            x       y       z     vdW  Elec       q    Type
REMARK                         _______ _______ _______ _____ _____    ______ ____
ROOT
ATOM      1  C   UNL     1      -0.357  -0.206   0.000  0.00  0.00    +0.000 C 
ENDROOT
BRANCH   1   2
ATOM      2  C   UNL     1      -1.072   0.206   0.000  0.00  0.00    +0.000 A 
ATOM      3  C   UNL     1      -1.786   1.444   0.000  0.00  0.00    +0.000 A 
ATOM      4  C   UNL     1      -2.501   1.031   0.000  0.00  0.00    +0.000 A 
ATOM      5  C   UNL     1      -2.501   0.206   0.000  0.00  0.00    +0.000 A 
ATOM      6  C   UNL     1      -1.786  -0.206   0.000  0.00  0.00    +0.000 A 
ATOM      7  C   UNL     1      -1.072   1.031   0.000  0.00  0.00    +0.000 A 
ENDBRANCH   1   2
BRANCH   1   8
ATOM      8  C   UNL     1       0.357   0.206   0.000  0.00  0.00    +0.000 C 
ATOM      9  N   UNL     1       1.072  -0.206   0.000  0.00  0.00    +0.000 NA
ATOM     10  C   UNL     1       1.786   0.206   0.000  0.00  0.00    +0.000 C 
ATOM     11  N   UNL     1       2.501  -0.206   0.000  0.00  0.00    +0.000 NA
ATOM     12  O   UNL     1       0.357   1.031   0.000  0.00  0.00    +0.000 OA
ATOM     13  O   UNL     1       1.786   1.031   0.000  0.00  0.00    +0.000 OA
ENDBRANCH   1   8
BRANCH   1  14
ATOM     14  C   UNL     1      -0.357  -1.031   0.000  0.00  0.00    +0.000 C 
ATOM     15  C   UNL     1      -1.072  -1.444   0.000  0.00  0.00    +0.000 C 
ENDBRANCH   1  14
TORSDOF 3
