REMARK  Name = 
REMARK  5 active torsions:
REMARK  status: ('A' for Active; 'I' for Inactive)
REMARK    1  A    between atoms: N_3  and  C_21
REMARK    2  A    between atoms: C_6  and  N_7
REMARK    3  A    between atoms: C_14  and  C_16
REMARK    4  A    between atoms: C_21  and  C_22
REMARK    5  A    between atoms: C_22  and  C_23
REMARK                            x       y       z     vdW  Elec       q    Type
REMARK                         _______ _______ _______ _____ _____    ______ ____
ROOT
ATOM      1  C   UNL     1      -2.037  -3.897   0.000  0.00  0.00    +0.000 C 
ATOM      2  C   UNL     1      -2.751  -4.310   0.000  0.00  0.00    +0.000 C 
ATOM      3  N   UNL     1      -3.466  -3.897   0.000  0.00  0.00    +0.000 NA
ATOM      4  C   UNL     1      -3.466  -3.072   0.000  0.00  0.00    +0.000 C 
ATOM      5  C   UNL     1      -2.751  -2.660   0.000  0.00  0.00    +0.000 C 
ATOM      6  C   UNL     1      -2.037  -3.072   0.000  0.00  0.00    +0.000 C 
ENDROOT
BRANCH   6   7
ATOM      7  N   UNL     1      -1.322  -2.660   0.000  0.00  0.00    +0.000 N 
ATOM      8  C   UNL     1      -1.322  -1.835   0.000  0.00  0.00    +0.000 A 
ATOM      9  N   UNL     1      -2.037  -1.422   0.000  0.00  0.00    +0.000 NA
ATOM     10  C   UNL     1      -2.037  -0.597   0.000  0.00  0.00    +0.000 A 
ATOM     11  C   UNL     1      -1.322  -0.185   0.000  0.00  0.00    +0.000 A 
ATOM     12  N   UNL     1      -0.608  -0.597   0.000  0.00  0.00    +0.000 NA
ATOM     13  C   UNL     1      -0.608  -1.422   0.000  0.00  0.00    +0.000 A 
ATOM     14  C   UNL     1      -0.608  -3.072   0.000  0.00  0.00    +0.000 C 
ATOM     15  O   UNL     1       0.107  -2.660   0.000  0.00  0.00    +0.000 OA
BRANCH  14  16
ATOM     16  C   UNL     1      -0.608  -3.897   0.000  0.00  0.00    +0.000 A 
ATOM     17  C   UNL     1       0.060  -4.382   0.000  0.00  0.00    +0.000 A 
ATOM     18  C   UNL     1      -0.195  -5.167   0.000  0.00  0.00    +0.000 A 
ATOM     19  C   UNL     1      -1.020  -5.167   0.000  0.00  0.00    +0.000 A 
ATOM     20  O   UNL     1      -1.275  -4.382   0.000  0.00  0.00    +0.000 OA
ENDBRANCH  14  16
ENDBRANCH   6   7
BRANCH   3  21
ATOM     21  C   UNL     1      -4.180  -4.310   0.000  0.00  0.00    +0.000 C 
BRANCH  21  22
ATOM     22  C   UNL     1      -4.180  -5.135   0.000  0.00  0.00    +0.000 C 
BRANCH  22  23
ATOM     23  C   UNL     1      -4.895  -5.547   0.000  0.00  0.00    +0.000 A 
ATOM     24  C   UNL     1      -4.895  -6.372   0.000  0.00  0.00    +0.000 A 
ATOM     25  C   UNL     1      -5.609  -6.785   0.000  0.00  0.00    +0.000 A 
ATOM     26  C   UNL     1      -6.324  -6.372   0.000  0.00  0.00    +0.000 A 
ATOM     27  C   UNL     1      -6.324  -5.547   0.000  0.00  0.00    +0.000 A 
ATOM     28  C   UNL     1      -5.609  -5.135   0.000  0.00  0.00    +0.000 A 
ENDBRANCH  22  23
ENDBRANCH  21  22
ENDBRANCH   3  21
TORSDOF 5
