REMARK  Name = 
REMARK  28 active torsions:
REMARK  status: ('A' for Active; 'I' for Inactive)
REMARK    1  A    between atoms: S_1  and  C_60
REMARK    2  A    between atoms: S_1  and  C_61
REMARK    3  A    between atoms: P_2  and  O_6
REMARK    4  A    between atoms: P_3  and  O_8
REMARK    5  A    between atoms: P_3  and  O_11
REMARK    6  A    between atoms: P_4  and  O_11
REMARK    7  A    between atoms: P_4  and  O_13
REMARK    8  A    between atoms: O_6  and  C_31
REMARK    9  A    between atoms: O_8  and  C_35
REMARK   10  A    between atoms: O_13  and  C_42
REMARK   11  A    between atoms: N_22  and  C_34
REMARK   12  A    between atoms: N_26  and  C_40
REMARK   13  A    between atoms: N_27  and  C_47
REMARK   14  A    between atoms: N_28  and  C_54
REMARK   15  A    between atoms: N_30  and  C_53
REMARK   16  A    between atoms: C_33  and  C_35
REMARK   17  A    between atoms: C_39  and  C_41
REMARK   18  A    between atoms: C_39  and  C_42
REMARK   19  A    between atoms: C_41  and  C_46
REMARK   20  A    between atoms: C_47  and  C_48
REMARK   21  A    between atoms: C_48  and  C_49
REMARK   22  A    between atoms: C_50  and  C_51
REMARK   23  A    between atoms: C_51  and  C_53
REMARK   24  A    between atoms: C_54  and  C_60
REMARK   25  A    between atoms: C_55  and  C_56
REMARK   26  A    between atoms: C_55  and  C_58
REMARK   27  A    between atoms: C_56  and  C_61
REMARK   28  A    between atoms: C_58  and  C_62
REMARK                            x       y       z     vdW  Elec       q    Type
REMARK                         _______ _______ _______ _____ _____    ______ ____
ROOT
ATOM      1  C   UNL     1      -3.445   1.283   0.000  0.00  0.00    +0.000 C 
ATOM      2  C   UNL     1      -3.108   2.036   0.000  0.00  0.00    +0.000 C 
ATOM      3  C   UNL     1      -3.781   0.530   0.000  0.00  0.00    +0.000 C 
ENDROOT
BRANCH   1   5
ATOM      4  O   UNL     1      -2.607   0.126   0.000  0.00  0.00    +0.000 OA
ATOM      5  C   UNL     1      -2.692   0.947   0.000  0.00  0.00    +0.000 C 
BRANCH   5   8
ATOM      6  O   UNL     1      -2.108   2.251   0.000  0.00  0.00    +0.000 OA
ATOM      7  N   UNL     1      -1.270   1.093   0.000  0.00  0.00    +0.000 N 
ATOM      8  C   UNL     1      -2.023   1.430   0.000  0.00  0.00    +0.000 C 
ATOM      9  H   UNL     1      -1.218   0.585   0.000  0.00  0.00    +0.000 HD
BRANCH   7  10
ATOM     10  C   UNL     1      -0.602   1.577   0.000  0.00  0.00    +0.000 C 
BRANCH  10  11
ATOM     11  C   UNL     1       0.151   1.240   0.000  0.00  0.00    +0.000 C 
BRANCH  11  14
ATOM     12  O   UNL     1       0.735   2.545   0.000  0.00  0.00    +0.000 OA
ATOM     13  N   UNL     1       1.573   1.387   0.000  0.00  0.00    +0.000 N 
ATOM     14  C   UNL     1       0.820   1.724   0.000  0.00  0.00    +0.000 C 
ATOM     15  H   UNL     1       1.625   0.878   0.000  0.00  0.00    +0.000 HD
BRANCH  13  16
ATOM     16  C   UNL     1       2.241   1.871   0.000  0.00  0.00    +0.000 C 
BRANCH  16  17
ATOM     17  C   UNL     1       2.994   1.534   0.000  0.00  0.00    +0.000 C 
BRANCH  17  18
ATOM     18  S   UNL     1       3.662   2.018   0.000  0.00  0.00    +0.000 S 
BRANCH  18  19
ATOM     19  C   UNL     1       4.415   1.681   0.000  0.00  0.00    +0.000 C 
BRANCH  19  20
ATOM     20  C   UNL     1       5.084   2.165   0.000  0.00  0.00    +0.000 C 
BRANCH  20  21
ATOM     21  C   UNL     1       5.837   1.828   0.000  0.00  0.00    +0.000 C 
BRANCH  21  22
ATOM     22  C   UNL     1       6.505   2.312   0.000  0.00  0.00    +0.000 C 
BRANCH  22  25
ATOM     23  O   UNL     1       7.343   1.154   0.000  0.00  0.00    +0.000 OA
ATOM     24  N   UNL     1       7.926   2.459   0.000  0.00  0.00    +0.000 N 
ATOM     25  C   UNL     1       7.258   1.975   0.000  0.00  0.00    +0.000 C 
ATOM     26  H   UNL     1       7.874   2.967   0.000  0.00  0.00    +0.000 HD
BRANCH  24  27
ATOM     27  C   UNL     1       8.680   2.122   0.000  0.00  0.00    +0.000 C 
BRANCH  27  28
ATOM     28  C   UNL     1       9.348   2.606   0.000  0.00  0.00    +0.000 C 
BRANCH  28  30
ATOM     29  N   UNL     1      11.085   1.377   0.000  0.00  0.00    +0.000 N 
ATOM     30  C   UNL     1      10.101   2.269   0.000  0.00  0.00    +0.000 A 
ATOM     31  C   UNL     1      10.812   2.678   0.000  0.00  0.00    +0.000 A 
ATOM     32  C   UNL     1      11.423   2.124   0.000  0.00  0.00    +0.000 A 
ATOM     33  C   UNL     1      10.269   1.466   0.000  0.00  0.00    +0.000 A 
ATOM     34  C   UNL     1      10.986   3.485   0.000  0.00  0.00    +0.000 A 
ATOM     35  C   UNL     1      12.208   2.376   0.000  0.00  0.00    +0.000 A 
ATOM     36  C   UNL     1      11.771   3.737   0.000  0.00  0.00    +0.000 A 
ATOM     37  C   UNL     1      12.383   3.183   0.000  0.00  0.00    +0.000 A 
ATOM     38  H   UNL     1      11.338   0.932   0.000  0.00  0.00    +0.000 HD
ENDBRANCH  28  30
ENDBRANCH  27  28
ENDBRANCH  24  27
ENDBRANCH  22  25
ENDBRANCH  21  22
ENDBRANCH  20  21
ENDBRANCH  19  20
ENDBRANCH  18  19
ENDBRANCH  17  18
ENDBRANCH  16  17
ENDBRANCH  13  16
ENDBRANCH  11  14
ENDBRANCH  10  11
ENDBRANCH   7  10
ENDBRANCH   5   8
ENDBRANCH   1   5
BRANCH   1  39
ATOM     39  C   UNL     1      -4.198   1.620   0.000  0.00  0.00    +0.000 C 
BRANCH  39  40
ATOM     40  O   UNL     1      -4.866   1.136   0.000  0.00  0.00    +0.000 OA
BRANCH  40  41
ATOM     41  P   UNL     1      -5.619   1.473   0.000  0.00  0.00    +0.000 P 
ATOM     42  O   UNL     1      -5.282   2.226   0.000  0.00  0.00    +0.000 OA
ATOM     43  O   UNL     1      -5.956   0.720   0.000  0.00  0.00    +0.000 OA
BRANCH  41  44
ATOM     44  O   UNL     1      -6.372   1.810   0.000  0.00  0.00    +0.000 OA
BRANCH  44  45
ATOM     45  P   UNL     1      -7.040   1.326   0.000  0.00  0.00    +0.000 P 
ATOM     46  O   UNL     1      -6.557   0.658   0.000  0.00  0.00    +0.000 OA
ATOM     47  O   UNL     1      -7.524   1.995   0.000  0.00  0.00    +0.000 OA
BRANCH  45  48
ATOM     48  O   UNL     1      -7.709   0.843   0.000  0.00  0.00    +0.000 OA
BRANCH  48  49
ATOM     49  C   UNL     1      -8.462   1.179   0.000  0.00  0.00    +0.000 C 
BRANCH  49  54
ATOM     50  O   UNL     1      -9.132  -0.129   0.000  0.00  0.00    +0.000 OA
ATOM     51  O   UNL     1     -11.226   0.287   0.000  0.00  0.00    +0.000 OA
ATOM     52  C   UNL     1      -9.914   0.952   0.000  0.00  0.00    +0.000 C 
ATOM     53  C   UNL     1     -10.400   0.285   0.000  0.00  0.00    +0.000 C 
ATOM     54  C   UNL     1      -9.130   0.696   0.000  0.00  0.00    +0.000 C 
ATOM     55  C   UNL     1      -9.917  -0.383   0.000  0.00  0.00    +0.000 C 
BRANCH  55  56
ATOM     56  N   UNL     1     -10.173  -1.167   0.000  0.00  0.00    +0.000 N 
ATOM     57  N   UNL     1     -10.173  -2.495   0.000  0.00  0.00    +0.000 NA
ATOM     58  N   UNL     1     -11.668  -1.006   0.000  0.00  0.00    +0.000 NA
ATOM     59  N   UNL     1     -12.383  -2.243   0.000  0.00  0.00    +0.000 NA
ATOM     60  C   UNL     1     -10.954  -1.418   0.000  0.00  0.00    +0.000 A 
ATOM     61  C   UNL     1      -9.691  -1.831   0.000  0.00  0.00    +0.000 A 
ATOM     62  C   UNL     1     -10.954  -2.243   0.000  0.00  0.00    +0.000 A 
ATOM     63  C   UNL     1     -11.668  -2.656   0.000  0.00  0.00    +0.000 A 
ATOM     64  C   UNL     1     -12.383  -1.418   0.000  0.00  0.00    +0.000 A 
BRANCH  63  65
ATOM     65  N   UNL     1     -11.668  -3.481   0.000  0.00  0.00    +0.000 N 
ATOM     66  H   UNL     1     -11.225  -3.737   0.000  0.00  0.00    +0.000 HD
ATOM     67  H   UNL     1     -12.111  -3.737   0.000  0.00  0.00    +0.000 HD
ENDBRANCH  63  65
ENDBRANCH  55  56
BRANCH  52  68
ATOM     68  O   UNL     1     -10.168   1.737   0.000  0.00  0.00    +0.000 OA
BRANCH  68  69
ATOM     69  P   UNL     1      -9.615   2.349   0.000  0.00  0.00    +0.000 P 
ATOM     70  O   UNL     1      -9.062   2.961   0.000  0.00  0.00    +0.000 OA
ATOM     71  O   UNL     1     -10.227   2.902   0.000  0.00  0.00    +0.000 OA
ATOM     72  O   UNL     1      -9.003   1.796   0.000  0.00  0.00    +0.000 OA
ENDBRANCH  68  69
ENDBRANCH  52  68
ENDBRANCH  49  54
ENDBRANCH  48  49
ENDBRANCH  45  48
ENDBRANCH  44  45
ENDBRANCH  41  44
ENDBRANCH  40  41
ENDBRANCH  39  40
ENDBRANCH   1  39
TORSDOF 28
