REMARK  Name = 
REMARK  10 active torsions:
REMARK  status: ('A' for Active; 'I' for Inactive)
REMARK    1  A    between atoms: C_9  and  C_10
REMARK    2  A    between atoms: C_12  and  O_13
REMARK    3  A    between atoms: C_15  and  O_16
REMARK    4  A    between atoms: O_16  and  C_17
REMARK    5  A    between atoms: C_17  and  O_19
REMARK    6  A    between atoms: O_19  and  C_20
REMARK    7  A    between atoms: C_20  and  C_21
REMARK    8  A    between atoms: C_28  and  O_29
REMARK    9  A    between atoms: C_41  and  O_42
REMARK   10  A    between atoms: O_42  and  C_43
REMARK                            x       y       z     vdW  Elec       q    Type
REMARK                         _______ _______ _______ _____ _____    ______ ____
ROOT
ATOM      1  C   UNL     1      -3.572  -0.412   0.000  0.00  0.00    +0.000 C 
ATOM      2  C   UNL     1      -4.357  -0.158   0.000  0.00  0.00    +0.000 C 
ATOM      3  O   UNL     1      -4.842  -0.825   0.000  0.00  0.00    +0.000 OA
ATOM      4  C   UNL     1      -4.357  -1.492   0.000  0.00  0.00    +0.000 C 
ATOM      5  O   UNL     1      -4.612  -2.277   0.000  0.00  0.00    +0.000 OA
ATOM      6  C   UNL     1      -3.572  -1.238   0.000  0.00  0.00    +0.000 C 
ATOM      7  C   UNL     1      -2.858  -1.650   0.000  0.00  0.00    +0.000 C 
ATOM      8  C   UNL     1      -2.143  -1.238   0.000  0.00  0.00    +0.000 A 
ATOM      9  C   UNL     1      -2.143  -0.412   0.000  0.00  0.00    +0.000 A 
ATOM     10  C   UNL     1      -1.429   0.000   0.000  0.00  0.00    +0.000 A 
ATOM     11  C   UNL     1      -0.715  -0.412   0.000  0.00  0.00    +0.000 A 
ATOM     12  O   UNL     1       0.070  -0.158   0.000  0.00  0.00    +0.000 OA
ATOM     13  C   UNL     1       0.555  -0.825   0.000  0.00  0.00    +0.000 C 
ATOM     14  O   UNL     1       0.070  -1.492   0.000  0.00  0.00    +0.000 OA
ATOM     15  C   UNL     1      -0.715  -1.238   0.000  0.00  0.00    +0.000 A 
ATOM     16  C   UNL     1      -1.429  -1.650   0.000  0.00  0.00    +0.000 A 
ATOM     17  C   UNL     1      -2.858   0.000   0.000  0.00  0.00    +0.000 C 
ENDROOT
BRANCH   7  18
ATOM     18  C   UNL     1      -2.858  -2.475   0.000  0.00  0.00    +0.000 A 
ATOM     19  C   UNL     1      -2.143  -2.888   0.000  0.00  0.00    +0.000 A 
ATOM     20  C   UNL     1      -2.143  -3.712   0.000  0.00  0.00    +0.000 A 
ATOM     21  C   UNL     1      -2.858  -4.125   0.000  0.00  0.00    +0.000 A 
ATOM     22  C   UNL     1      -3.572  -3.712   0.000  0.00  0.00    +0.000 A 
ATOM     23  C   UNL     1      -3.572  -2.888   0.000  0.00  0.00    +0.000 A 
BRANCH  20  24
ATOM     24  O   UNL     1      -1.429  -4.125   0.000  0.00  0.00    +0.000 OA
ATOM     25  C   UNL     1      -1.429  -4.950   0.000  0.00  0.00    +0.000 C 
ENDBRANCH  20  24
BRANCH  22  26
ATOM     26  O   UNL     1      -4.287  -4.125   0.000  0.00  0.00    +0.000 OA
ATOM     27  C   UNL     1      -5.001  -3.712   0.000  0.00  0.00    +0.000 C 
ENDBRANCH  22  26
BRANCH  21  28
ATOM     28  O   UNL     1      -2.858  -4.950   0.000  0.00  0.00    +0.000 OA
BRANCH  28  29
ATOM     29  C   UNL     1      -3.572  -5.362   0.000  0.00  0.00    +0.000 C 
ATOM     30  O   UNL     1      -4.287  -4.950   0.000  0.00  0.00    +0.000 OA
BRANCH  29  31
ATOM     31  O   UNL     1      -3.572  -6.188   0.000  0.00  0.00    +0.000 OA
BRANCH  31  32
ATOM     32  C   UNL     1      -4.287  -6.600   0.000  0.00  0.00    +0.000 C 
BRANCH  32  33
ATOM     33  C   UNL     1      -4.287  -7.425   0.000  0.00  0.00    +0.000 C 
ATOM     34  C   UNL     1      -3.619  -7.910   0.000  0.00  0.00    +0.000 C 
ATOM     35  O   UNL     1      -3.874  -8.694   0.000  0.00  0.00    +0.000 OA
ATOM     36  C   UNL     1      -4.699  -8.694   0.000  0.00  0.00    +0.000 C 
ATOM     37  C   UNL     1      -4.613  -9.515   0.000  0.00  0.00    +0.000 C 
ATOM     38  C   UNL     1      -5.506  -8.866   0.000  0.00  0.00    +0.000 C 
ATOM     39  O   UNL     1      -4.954  -7.910   0.000  0.00  0.00    +0.000 OA
ENDBRANCH  32  33
ENDBRANCH  31  32
ENDBRANCH  29  31
ENDBRANCH  28  29
ENDBRANCH  21  28
ENDBRANCH   7  18
BRANCH  17  40
ATOM     40  O   UNL     1      -2.858   0.825   0.000  0.00  0.00    +0.000 OA
BRANCH  40  41
ATOM     41  C   UNL     1      -2.143   1.238   0.000  0.00  0.00    +0.000 C 
ATOM     42  O   UNL     1      -1.429   0.825   0.000  0.00  0.00    +0.000 OA
ATOM     43  C   UNL     1      -0.715   1.238   0.000  0.00  0.00    +0.000 C 
ATOM     44  C   UNL     1       0.000   0.825   0.000  0.00  0.00    +0.000 C 
ATOM     45  O   UNL     1       0.715   1.238   0.000  0.00  0.00    +0.000 OA
ATOM     46  C   UNL     1       0.715   2.062   0.000  0.00  0.00    +0.000 C 
ATOM     47  C   UNL     1       1.429   2.475   0.000  0.00  0.00    +0.000 C 
ATOM     48  O   UNL     1       0.000   2.475   0.000  0.00  0.00    +0.000 OA
ATOM     49  C   UNL     1      -0.715   2.062   0.000  0.00  0.00    +0.000 C 
ATOM     50  C   UNL     1      -1.429   2.475   0.000  0.00  0.00    +0.000 C 
ATOM     51  O   UNL     1      -1.429   3.300   0.000  0.00  0.00    +0.000 OA
ATOM     52  C   UNL     1      -2.143   2.062   0.000  0.00  0.00    +0.000 C 
ATOM     53  O   UNL     1      -2.858   2.475   0.000  0.00  0.00    +0.000 OA
ENDBRANCH  40  41
ENDBRANCH  17  40
TORSDOF 10
