REMARK  Name = 
REMARK  1 active torsions:
REMARK  status: ('A' for Active; 'I' for Inactive)
REMARK    1  A    between atoms: RU_1  and  N_28
REMARK                            x       y       z     vdW  Elec       q    Type
REMARK                         _______ _______ _______ _____ _____    ______ ____
ROOT
ATOM      1 RU   UNL     1       0.000  -0.204   0.000  0.00  0.00    +0.000 Ru
ATOM      2  N   UNL     1       0.785  -0.459   0.000  0.00  0.00    +0.000 N 
ATOM      3  C   UNL     1       1.120  -1.213   0.000  0.00  0.00    +0.000 C 
ATOM      4  C   UNL     1       1.941  -1.299   0.000  0.00  0.00    +0.000 C 
ATOM      5  C   UNL     1       2.426  -0.631   0.000  0.00  0.00    +0.000 C 
ATOM      6  C   UNL     1       2.090   0.122   0.000  0.00  0.00    +0.000 C 
ATOM      7  C   UNL     1       1.270   0.208   0.000  0.00  0.00    +0.000 C 
ATOM      8  C   UNL     1       0.785   0.876   0.000  0.00  0.00    +0.000 C 
ATOM      9  C   UNL     1       0.956   1.683   0.000  0.00  0.00    +0.000 C 
ATOM     10  C   UNL     1       0.245   2.299   0.000  0.00  0.00    +0.000 C 
ATOM     11  C   UNL     1      -0.505   1.882   0.000  0.00  0.00    +0.000 C 
ATOM     12  C   UNL     1      -0.613   1.173   0.000  0.00  0.00    +0.000 C 
ATOM     13  N   UNL     1      -0.191   0.328   0.000  0.00  0.00    +0.000 N 
ATOM     14  N   UNL     1       0.000   0.621   0.000  0.00  0.00    +0.000 N 
ATOM     15  C   UNL     1       0.613   1.173   0.000  0.00  0.00    +0.000 C 
ATOM     16  C   UNL     1       0.442   1.980   0.000  0.00  0.00    +0.000 C 
ATOM     17  C   UNL     1      -0.343   2.235   0.000  0.00  0.00    +0.000 C 
ATOM     18  C   UNL     1      -0.956   1.683   0.000  0.00  0.00    +0.000 C 
ATOM     19  C   UNL     1      -0.785   0.876   0.000  0.00  0.00    +0.000 C 
ATOM     20  C   UNL     1      -1.270   0.208   0.000  0.00  0.00    +0.000 C 
ATOM     21  C   UNL     1      -2.090   0.122   0.000  0.00  0.00    +0.000 C 
ATOM     22  C   UNL     1      -2.426  -0.631   0.000  0.00  0.00    +0.000 C 
ATOM     23  C   UNL     1      -1.941  -1.299   0.000  0.00  0.00    +0.000 C 
ATOM     24  C   UNL     1      -1.120  -1.213   0.000  0.00  0.00    +0.000 C 
ATOM     25  N   UNL     1      -0.785  -0.459   0.000  0.00  0.00    +0.000 N 
ENDROOT
BRANCH   1  28
ATOM     26  C   UNL     1       0.667  -1.514   0.000  0.00  0.00    +0.000 A 
ATOM     27  C   UNL     1       0.412  -2.299   0.000  0.00  0.00    +0.000 A 
ATOM     28  N   UNL     1       0.000  -1.029   0.000  0.00  0.00    +0.000 N 
ATOM     29  C   UNL     1      -0.667  -1.514   0.000  0.00  0.00    +0.000 A 
ATOM     30  N   UNL     1      -0.412  -2.299   0.000  0.00  0.00    +0.000 NA
ENDBRANCH   1  28
TORSDOF 1
