REMARK  Name = 
REMARK  2 active torsions:
REMARK  status: ('A' for Active; 'I' for Inactive)
REMARK    1  A    between atoms: C_4  and  C_16
REMARK    2  A    between atoms: C_16  and  C_26
REMARK                            x       y       z     vdW  Elec       q    Type
REMARK                         _______ _______ _______ _____ _____    ______ ____
ROOT
ATOM      1  C   UNL     1       1.060   0.494   0.000  0.00  0.00    +0.000 C 
ATOM      2  C   UNL     1       1.060  -0.326   0.000  0.00  0.00    +0.000 C 
ATOM      3  C   UNL     1      -1.075  -0.720   0.000  0.00  0.00    +0.000 C 
ATOM      4  C   UNL     1       1.795   0.734   0.000  0.00  0.00    +0.000 C 
ATOM      5  C   UNL     1       0.369  -0.720   0.000  0.00  0.00    +0.000 C 
ATOM      6  C   UNL     1      -0.350  -0.326   0.000  0.00  0.00    +0.000 C 
ATOM      7  C   UNL     1      -1.075  -1.540   0.000  0.00  0.00    +0.000 C 
ATOM      8  C   UNL     1       0.369   0.892   0.000  0.00  0.00    +0.000 C 
ATOM      9  C   UNL     1      -0.350   0.509   0.000  0.00  0.00    +0.000 C 
ATOM     10  C   UNL     1       2.270   0.077   0.000  0.00  0.00    +0.000 C 
ATOM     11  C   UNL     1      -1.780  -0.297   0.000  0.00  0.00    +0.000 C 
ATOM     12  C   UNL     1       1.838  -0.547   0.000  0.00  0.00    +0.000 C 
ATOM     13  C   UNL     1      -1.819  -1.924   0.000  0.00  0.00    +0.000 C 
ATOM     14  C   UNL     1       0.369  -1.555   0.000  0.00  0.00    +0.000 C 
ATOM     15  C   UNL     1      -2.510  -0.720   0.000  0.00  0.00    +0.000 C 
ATOM     16  C   UNL     1      -2.510  -1.507   0.000  0.00  0.00    +0.000 C 
ATOM     17  C   UNL     1      -0.350  -1.972   0.000  0.00  0.00    +0.000 C 
ATOM     18  O   UNL     1      -3.244  -1.871   0.000  0.00  0.00    +0.000 OA
ATOM     19  C   UNL     1       1.060   1.324   0.000  0.00  0.00    +0.000 C 
ATOM     20  O   UNL     1      -1.060   0.941   0.000  0.00  0.00    +0.000 OA
ATOM     21  C   UNL     1      -1.075   0.115   0.000  0.00  0.00    +0.000 C 
ATOM     22  C   UNL     1       2.529   1.113   0.000  0.00  0.00    +0.000 C 
ATOM     23  C   UNL     1       3.100   0.086   0.000  0.00  0.00    +0.000 C 
ENDROOT
BRANCH   4  24
ATOM     24  C   UNL     1       1.795   1.560   0.000  0.00  0.00    +0.000 C 
ATOM     25  O   UNL     1       1.060   1.963   0.000  0.00  0.00    +0.000 OA
BRANCH  24  26
ATOM     26  C   UNL     1       2.510   1.972   0.000  0.00  0.00    +0.000 C 
ATOM     27  C   UNL     1       3.244   1.574   0.000  0.00  0.00    +0.000 C 
ENDBRANCH  24  26
ENDBRANCH   4  24
TORSDOF 2
