REMARK  Name = 
REMARK  33 active torsions:
REMARK  status: ('A' for Active; 'I' for Inactive)
REMARK    1  A    between atoms: N_3  and  C_4
REMARK    2  A    between atoms: C_4  and  C_5
REMARK    3  A    between atoms: C_4  and  C_10
REMARK    4  A    between atoms: C_5  and  C_6
REMARK    5  A    between atoms: C_6  and  C_7
REMARK    6  A    between atoms: C_10  and  N_11
REMARK    7  A    between atoms: N_11  and  C_12
REMARK    8  A    between atoms: C_12  and  C_13
REMARK    9  A    between atoms: C_12  and  C_55
REMARK   10  A    between atoms: N_15  and  C_16
REMARK   11  A    between atoms: C_16  and  C_17
REMARK   12  A    between atoms: C_16  and  C_51
REMARK   13  A    between atoms: N_19  and  C_20
REMARK   14  A    between atoms: C_20  and  C_21
REMARK   15  A    between atoms: C_20  and  C_26
REMARK   16  A    between atoms: C_21  and  C_22
REMARK   17  A    between atoms: C_22  and  C_23
REMARK   18  A    between atoms: N_28  and  C_29
REMARK   19  A    between atoms: C_29  and  C_30
REMARK   20  A    between atoms: C_29  and  C_44
REMARK   21  A    between atoms: N_31  and  C_32
REMARK   22  A    between atoms: C_32  and  C_33
REMARK   23  A    between atoms: C_32  and  C_36
REMARK   24  A    between atoms: C_36  and  C_37
REMARK   25  A    between atoms: C_37  and  C_38
REMARK   26  A    between atoms: C_38  and  N_39
REMARK   27  A    between atoms: C_44  and  C_45
REMARK   28  A    between atoms: C_45  and  C_46
REMARK   29  A    between atoms: C_46  and  N_47
REMARK   30  A    between atoms: C_51  and  C_52
REMARK   31  A    between atoms: C_52  and  S_53
REMARK   32  A    between atoms: C_55  and  C_56
REMARK   33  A    between atoms: C_56  and  C_57
REMARK                            x       y       z     vdW  Elec       q    Type
REMARK                         _______ _______ _______ _____ _____    ______ ____
ROOT
ATOM      1  C   UNL     1       1.070   0.206   0.000  0.00  0.00    +0.000 C 
ENDROOT
BRANCH   1   2
ATOM      2  C   UNL     1       1.785  -0.206   0.000  0.00  0.00    +0.000 C 
ATOM      3  O   UNL     1       1.785  -1.030   0.000  0.00  0.00    +0.000 OA
ATOM      4  N   UNL     1       2.500   0.206   0.000  0.00  0.00    +0.000 NA
BRANCH   4   5
ATOM      5  C   UNL     1       3.215  -0.206   0.000  0.00  0.00    +0.000 C 
BRANCH   5   6
ATOM      6  C   UNL     1       3.929   0.206   0.000  0.00  0.00    +0.000 C 
ATOM      7  N   UNL     1       4.644  -0.206   0.000  0.00  0.00    +0.000 NA
ATOM      8  O   UNL     1       3.929   1.030   0.000  0.00  0.00    +0.000 OA
BRANCH   7   9
ATOM      9  C   UNL     1       5.355   0.206   0.000  0.00  0.00    +0.000 C 
BRANCH   9  10
ATOM     10  C   UNL     1       6.069  -0.206   0.000  0.00  0.00    +0.000 C 
ATOM     11  O   UNL     1       6.069  -1.030   0.000  0.00  0.00    +0.000 OA
ATOM     12  N   UNL     1       6.784   0.206   0.000  0.00  0.00    +0.000 NA
ENDBRANCH   9  10
BRANCH   9  13
ATOM     13  C   UNL     1       5.355   1.030   0.000  0.00  0.00    +0.000 C 
BRANCH  13  14
ATOM     14  C   UNL     1       6.069   1.442   0.000  0.00  0.00    +0.000 C 
BRANCH  14  15
ATOM     15  C   UNL     1       6.069   2.270   0.000  0.00  0.00    +0.000 C 
BRANCH  15  16
ATOM     16  N   UNL     1       6.784   2.682   0.000  0.00  0.00    +0.000 NA
ATOM     17  C   UNL     1       6.784   3.506   0.000  0.00  0.00    +0.000 C 
ATOM     18  N   UNL     1       7.499   3.917   0.000  0.00  0.00    +0.000 NA
ATOM     19  N   UNL     1       6.069   3.917   0.000  0.00  0.00    +0.000 NA
ENDBRANCH  15  16
ENDBRANCH  14  15
ENDBRANCH  13  14
ENDBRANCH   9  13
ENDBRANCH   7   9
ENDBRANCH   5   6
BRANCH   5  20
ATOM     20  C   UNL     1       3.215  -1.030   0.000  0.00  0.00    +0.000 C 
BRANCH  20  21
ATOM     21  C   UNL     1       3.929  -1.442   0.000  0.00  0.00    +0.000 C 
BRANCH  21  22
ATOM     22  C   UNL     1       3.929  -2.270   0.000  0.00  0.00    +0.000 C 
BRANCH  22  23
ATOM     23  N   UNL     1       4.644  -2.682   0.000  0.00  0.00    +0.000 NA
ATOM     24  C   UNL     1       4.644  -3.506   0.000  0.00  0.00    +0.000 C 
ATOM     25  N   UNL     1       5.355  -3.917   0.000  0.00  0.00    +0.000 NA
ATOM     26  N   UNL     1       3.929  -3.917   0.000  0.00  0.00    +0.000 NA
ENDBRANCH  22  23
ENDBRANCH  21  22
ENDBRANCH  20  21
ENDBRANCH   5  20
ENDBRANCH   4   5
ENDBRANCH   1   2
BRANCH   1  29
ATOM     27  C   UNL     1      -0.355   0.206   0.000  0.00  0.00    +0.000 C 
ATOM     28  O   UNL     1      -0.355   1.030   0.000  0.00  0.00    +0.000 OA
ATOM     29  N   UNL     1       0.360  -0.206   0.000  0.00  0.00    +0.000 NA
BRANCH  27  30
ATOM     30  C   UNL     1      -1.070  -0.206   0.000  0.00  0.00    +0.000 C 
BRANCH  30  33
ATOM     31  C   UNL     1      -2.500  -0.206   0.000  0.00  0.00    +0.000 C 
ATOM     32  O   UNL     1      -2.500  -1.030   0.000  0.00  0.00    +0.000 OA
ATOM     33  N   UNL     1      -1.785   0.206   0.000  0.00  0.00    +0.000 NA
BRANCH  31  34
ATOM     34  C   UNL     1      -3.215   0.206   0.000  0.00  0.00    +0.000 C 
BRANCH  34  35
ATOM     35  N   UNL     1      -3.929  -0.206   0.000  0.00  0.00    +0.000 NA
BRANCH  35  36
ATOM     36  C   UNL     1      -4.644   0.206   0.000  0.00  0.00    +0.000 C 
ATOM     37  C   UNL     1      -4.644   1.030   0.000  0.00  0.00    +0.000 C 
BRANCH  36  38
ATOM     38  C   UNL     1      -5.355  -0.206   0.000  0.00  0.00    +0.000 C 
BRANCH  38  41
ATOM     39  C   UNL     1      -6.784  -0.206   0.000  0.00  0.00    +0.000 C 
ATOM     40  O   UNL     1      -6.784  -1.030   0.000  0.00  0.00    +0.000 OA
ATOM     41  N   UNL     1      -6.069   0.206   0.000  0.00  0.00    +0.000 NA
ATOM     42  C   UNL     1      -7.499   0.206   0.000  0.00  0.00    +0.000 C 
ENDBRANCH  38  41
BRANCH  38  43
ATOM     43  C   UNL     1      -5.355  -1.030   0.000  0.00  0.00    +0.000 C 
BRANCH  43  44
ATOM     44  C   UNL     1      -6.076  -1.442   0.000  0.00  0.00    +0.000 C 
BRANCH  44  45
ATOM     45  C   UNL     1      -6.076  -2.265   0.000  0.00  0.00    +0.000 C 
ATOM     46  O   UNL     1      -5.365  -2.683   0.000  0.00  0.00    +0.000 OA
ATOM     47  O   UNL     1      -6.795  -2.671   0.000  0.00  0.00    +0.000 OA
ENDBRANCH  44  45
ENDBRANCH  43  44
ENDBRANCH  38  43
ENDBRANCH  36  38
ENDBRANCH  35  36
ENDBRANCH  34  35
BRANCH  34  48
ATOM     48  C   UNL     1      -3.215   1.030   0.000  0.00  0.00    +0.000 C 
BRANCH  48  49
ATOM     49  C   UNL     1      -2.508   1.442   0.000  0.00  0.00    +0.000 C 
BRANCH  49  50
ATOM     50  C   UNL     1      -2.508   2.274   0.000  0.00  0.00    +0.000 C 
ATOM     51  O   UNL     1      -3.227   2.679   0.000  0.00  0.00    +0.000 OA
ATOM     52  O   UNL     1      -1.798   2.689   0.000  0.00  0.00    +0.000 OA
ENDBRANCH  49  50
ENDBRANCH  48  49
ENDBRANCH  34  48
ENDBRANCH  31  34
ENDBRANCH  30  33
BRANCH  30  53
ATOM     53  C   UNL     1      -1.070  -1.030   0.000  0.00  0.00    +0.000 C 
BRANCH  53  54
ATOM     54  C   UNL     1      -0.355  -1.442   0.000  0.00  0.00    +0.000 C 
BRANCH  54  55
ATOM     55  S   UNL     1      -0.355  -2.270   0.000  0.00  0.00    +0.000 S 
ATOM     56  C   UNL     1      -0.355  -3.089   0.000  0.00  0.00    +0.000 C 
ENDBRANCH  54  55
ENDBRANCH  53  54
ENDBRANCH  30  53
ENDBRANCH  27  30
ENDBRANCH   1  29
BRANCH   1  57
ATOM     57  C   UNL     1       1.070   1.030   0.000  0.00  0.00    +0.000 C 
BRANCH  57  58
ATOM     58  C   UNL     1       1.785   1.442   0.000  0.00  0.00    +0.000 C 
BRANCH  58  59
ATOM     59  C   UNL     1       1.785   2.270   0.000  0.00  0.00    +0.000 C 
ATOM     60  O   UNL     1       1.069   2.686   0.000  0.00  0.00    +0.000 OA
ATOM     61  N   UNL     1       2.500   2.681   0.000  0.00  0.00    +0.000 NA
ENDBRANCH  58  59
ENDBRANCH  57  58
ENDBRANCH   1  57
TORSDOF 33
