REMARK  Name = 
REMARK  1 active torsions:
REMARK  status: ('A' for Active; 'I' for Inactive)
REMARK    1  A    between atoms: C_14  and  C_19
REMARK                            x       y       z     vdW  Elec       q    Type
REMARK                         _______ _______ _______ _____ _____    ______ ____
ROOT
ATOM      1  C   UNL     1      -1.476  -0.462   0.000  0.00  0.00    +0.000 C 
ATOM      2  C   UNL     1      -2.191  -0.049   0.000  0.00  0.00    +0.000 C 
ATOM      3  C   UNL     1      -2.191   0.766   0.000  0.00  0.00    +0.000 C 
ATOM      4  C   UNL     1      -1.476   1.178   0.000  0.00  0.00    +0.000 C 
ATOM      5  C   UNL     1       1.364   1.178   0.000  0.00  0.00    +0.000 C 
ATOM      6  C   UNL     1       2.079   0.766   0.000  0.00  0.00    +0.000 C 
ATOM      7  C   UNL     1       2.079  -0.049   0.000  0.00  0.00    +0.000 C 
ATOM      8  C   UNL     1       1.914  -0.874   0.000  0.00  0.00    +0.000 C 
ATOM      9  C   UNL     1       0.814  -0.874   0.000  0.00  0.00    +0.000 C 
ATOM     10  C   UNL     1      -0.771   0.766   0.000  0.00  0.00    +0.000 C 
ATOM     11  C   UNL     1       1.364  -0.462   0.000  0.00  0.00    +0.000 C 
ATOM     12  C   UNL     1      -0.771  -0.049   0.000  0.00  0.00    +0.000 C 
ATOM     13  C   UNL     1       0.649   0.766   0.000  0.00  0.00    +0.000 C 
ATOM     14  C   UNL     1      -0.056  -0.462   0.000  0.00  0.00    +0.000 C 
ATOM     15  C   UNL     1       0.649  -0.049   0.000  0.00  0.00    +0.000 C 
ATOM     16  O   UNL     1      -2.891  -0.453   0.000  0.00  0.00    +0.000 OA
ATOM     17  C   UNL     1      -1.466  -1.206   0.000  0.00  0.00    +0.000 C 
ATOM     18  C   UNL     1       2.515  -1.478   0.000  0.00  0.00    +0.000 C 
ATOM     19  O   UNL     1       2.891  -0.053   0.000  0.00  0.00    +0.000 OA
ATOM     20  O   UNL     1      -0.769   1.725   0.000  0.00  0.00    +0.000 OA
ATOM     21  C   UNL     1      -1.722   0.371   0.000  0.00  0.00    +0.000 C 
ATOM     22  O   UNL     1      -1.065   0.251   0.000  0.00  0.00    +0.000 OA
ENDROOT
BRANCH  14  23
ATOM     23  C   UNL     1      -0.054  -1.302   0.000  0.00  0.00    +0.000 C 
ATOM     24  O   UNL     1       0.676  -1.721   0.000  0.00  0.00    +0.000 OA
ATOM     25  O   UNL     1      -0.781  -1.725   0.000  0.00  0.00    +0.000 OA
ENDBRANCH  14  23
TORSDOF 1
