REMARK  Name = 
REMARK  5 active torsions:
REMARK  status: ('A' for Active; 'I' for Inactive)
REMARK    1  A    between atoms: S_1  and  S_2
REMARK    2  A    between atoms: S_1  and  C_6
REMARK    3  A    between atoms: S_2  and  C_3
REMARK    4  A    between atoms: C_3  and  N_4
REMARK    5  A    between atoms: C_6  and  N_7
REMARK                            x       y       z     vdW  Elec       q    Type
REMARK                         _______ _______ _______ _____ _____    ______ ____
ROOT
ATOM      1  S   UNL     1      -0.355  -0.204   0.000  0.00  0.00    +0.000 S 
ENDROOT
BRANCH   1   2
ATOM      2  C   UNL     1      -1.070   0.206   0.000  0.00  0.00    +0.000 C 
ATOM      3  S   UNL     1      -1.070   1.031   0.000  0.00  0.00    +0.000 S 
BRANCH   2   4
ATOM      4  N   UNL     1      -1.785  -0.204   0.000  0.00  0.00    +0.000 N 
ATOM      5  C   UNL     1      -2.498   0.212   0.000  0.00  0.00    +0.000 C 
ATOM      6  C   UNL     1      -3.211  -0.195   0.000  0.00  0.00    +0.000 C 
ATOM      7  C   UNL     1      -3.217  -1.020   0.000  0.00  0.00    +0.000 C 
ATOM      8  C   UNL     1      -2.504  -1.436   0.000  0.00  0.00    +0.000 C 
ATOM      9  C   UNL     1      -1.785  -1.028   0.000  0.00  0.00    +0.000 C 
ENDBRANCH   2   4
ENDBRANCH   1   2
BRANCH   1  10
ATOM     10  S   UNL     1       0.356   0.206   0.000  0.00  0.00    +0.000 S 
BRANCH  10  11
ATOM     11  C   UNL     1       1.071  -0.204   0.000  0.00  0.00    +0.000 C 
ATOM     12  S   UNL     1       1.071  -1.030   0.000  0.00  0.00    +0.000 S 
BRANCH  11  13
ATOM     13  N   UNL     1       1.786   0.206   0.000  0.00  0.00    +0.000 N 
ATOM     14  C   UNL     1       2.498  -0.212   0.000  0.00  0.00    +0.000 C 
ATOM     15  C   UNL     1       3.211   0.195   0.000  0.00  0.00    +0.000 C 
ATOM     16  C   UNL     1       3.217   1.020   0.000  0.00  0.00    +0.000 C 
ATOM     17  C   UNL     1       2.504   1.436   0.000  0.00  0.00    +0.000 C 
ATOM     18  C   UNL     1       1.785   1.027   0.000  0.00  0.00    +0.000 C 
ENDBRANCH  11  13
ENDBRANCH  10  11
ENDBRANCH   1  10
TORSDOF 5
