REMARK  Name = 
REMARK  10 active torsions:
REMARK  status: ('A' for Active; 'I' for Inactive)
REMARK    1  A    between atoms: C_4  and  C_11
REMARK    2  A    between atoms: C_4  and  C_12
REMARK    3  A    between atoms: C_11  and  O_24
REMARK    4  A    between atoms: C_12  and  O_25
REMARK    5  A    between atoms: C_14  and  C_17
REMARK    6  A    between atoms: C_16  and  O_26
REMARK    7  A    between atoms: C_17  and  O_24
REMARK    8  A    between atoms: C_18  and  C_19
REMARK    9  A    between atoms: C_18  and  O_25
REMARK   10  A    between atoms: C_19  and  O_26
REMARK                            x       y       z     vdW  Elec       q    Type
REMARK                         _______ _______ _______ _____ _____    ______ ____
ROOT
ATOM      1  C   UNL     1      12.146   0.412   0.000  0.00  0.00    +0.000 C 
ATOM      2  O   UNL     1      12.146  -0.412   0.000  0.00  0.00    +0.000 OA
ENDROOT
BRANCH   1   5
ATOM      3  C   UNL     1      13.273   0.111   0.000  0.00  0.00    +0.000 C 
ATOM      4  C   UNL     1      12.448   1.540   0.000  0.00  0.00    +0.000 C 
ATOM      5  C   UNL     1      12.861   0.825   0.000  0.00  0.00    +0.000 C 
BRANCH   5   6
ATOM      6  O   UNL     1      13.575   1.238   0.000  0.00  0.00    +0.000 OA
BRANCH   6  12
ATOM      7  C   UNL     1      15.718   0.825   0.000  0.00  0.00    +0.000 A 
ATOM      8  C   UNL     1      15.004  -0.412   0.000  0.00  0.00    +0.000 A 
ATOM      9  C   UNL     1      15.004   1.238   0.000  0.00  0.00    +0.000 A 
ATOM     10  C   UNL     1      14.289   0.000   0.000  0.00  0.00    +0.000 A 
ATOM     11  C   UNL     1      15.718   0.000   0.000  0.00  0.00    +0.000 A 
ATOM     12  C   UNL     1      14.289   0.825   0.000  0.00  0.00    +0.000 A 
ATOM     13 CL   UNL     1      16.433  -0.412   0.000  0.00  0.00    +0.000 Cl
ENDBRANCH   6  12
ENDBRANCH   5   6
ENDBRANCH   1   5
BRANCH   1  14
ATOM     14  O   UNL     1      11.431   0.825   0.000  0.00  0.00    +0.000 OA
BRANCH  14  15
ATOM     15  C   UNL     1      10.717   0.412   0.000  0.00  0.00    +0.000 C 
BRANCH  15  16
ATOM     16  C   UNL     1      10.003   0.825   0.000  0.00  0.00    +0.000 C 
BRANCH  16  17
ATOM     17  C   UNL     1       9.288   0.412   0.000  0.00  0.00    +0.000 C 
BRANCH  17  18
ATOM     18  O   UNL     1       8.574   0.825   0.000  0.00  0.00    +0.000 OA
BRANCH  18  19
ATOM     19  C   UNL     1       7.859   0.412   0.000  0.00  0.00    +0.000 C 
ATOM     20  O   UNL     1       7.859  -0.412   0.000  0.00  0.00    +0.000 OA
BRANCH  19  25
ATOM     21  C   UNL     1       5.716   0.825   0.000  0.00  0.00    +0.000 A 
ATOM     22  C   UNL     1       6.430   0.412   0.000  0.00  0.00    +0.000 A 
ATOM     23  C   UNL     1       5.716   1.650   0.000  0.00  0.00    +0.000 A 
ATOM     24  C   UNL     1       7.145   1.650   0.000  0.00  0.00    +0.000 A 
ATOM     25  C   UNL     1       7.145   0.825   0.000  0.00  0.00    +0.000 A 
ATOM     26  N   UNL     1       6.430   2.062   0.000  0.00  0.00    +0.000 NA
ENDBRANCH  19  25
ENDBRANCH  18  19
ENDBRANCH  17  18
ENDBRANCH  16  17
ENDBRANCH  15  16
ENDBRANCH  14  15
ENDBRANCH   1  14
TORSDOF 10
