REMARK  Name = 
REMARK  5 active torsions:
REMARK  status: ('A' for Active; 'I' for Inactive)
REMARK    1  A    between atoms: O_1  and  C_2
REMARK    2  A    between atoms: O_1  and  C_21
REMARK    3  A    between atoms: C_9  and  C_14
REMARK    4  A    between atoms: N_15  and  CA_16
REMARK    5  A    between atoms: CA_16  and  C_17
REMARK                            x       y       z     vdW  Elec       q    Type
REMARK                         _______ _______ _______ _____ _____    ______ ____
ROOT
ATOM      1  C   UNK A   1      -2.501   0.412   0.000  0.00  0.00    +0.000 A 
ATOM      2  C   UNK A   1      -2.501   1.237   0.000  0.00  0.00    +0.000 A 
ATOM      3  C   UNK A   1      -1.786   1.650   0.000  0.00  0.00    +0.000 A 
ATOM      4  C   UNK A   1      -1.072   1.237   0.000  0.00  0.00    +0.000 A 
ATOM      5  C   UNK A   1      -1.072   0.412   0.000  0.00  0.00    +0.000 A 
ATOM      6  C   UNK A   1      -1.786   0.000   0.000  0.00  0.00    +0.000 A 
ATOM      7  C   UNK A   1      -0.357   1.650   0.000  0.00  0.00    +0.000 A 
ATOM      8  C   UNK A   1       0.357   1.237   0.000  0.00  0.00    +0.000 A 
ATOM      9  N   UNK A   1       0.357   0.412   0.000  0.00  0.00    +0.000 NA
ATOM     10  C   UNK A   1      -0.357   0.000   0.000  0.00  0.00    +0.000 A 
ATOM     11  C   UNK A   1      -0.357  -0.825   0.000  0.00  0.00    +0.000 C 
ATOM     12  O   UNK A   1      -0.357   2.475   0.000  0.00  0.00    +0.000 OA
ENDROOT
BRANCH   8  13
ATOM     13  C   UNK A   1       1.072   1.650   0.000  0.00  0.00    +0.000 C 
ATOM     14  N   GLY A   2       1.786   1.237   0.000  0.00  0.00    +0.000 NA
ATOM     15  O   UNK A   1       1.072   2.475   0.000  0.00  0.00    +0.000 OA
BRANCH  14  16
ATOM     16  CA  GLY A   2       2.501   1.650   0.000  0.00  0.00    +0.000 C 
BRANCH  16  17
ATOM     17  C   GLY A   2       3.215   1.237   0.000  0.00  0.00    +0.000 C 
ATOM     18  O   GLY A   2       3.930   1.650   0.000  0.00  0.00    +0.000 OA
ATOM     19  OXT GLY A   2       3.215   0.412   0.000  0.00  0.00    +0.000 OA
ENDBRANCH  16  17
ENDBRANCH  14  16
ENDBRANCH   8  13
BRANCH   1  20
ATOM     20  O   UNK A   1      -3.215   0.000   0.000  0.00  0.00    +0.000 OA
BRANCH  20  21
ATOM     21  C   UNK A   1      -3.215  -0.825   0.000  0.00  0.00    +0.000 A 
ATOM     22  C   UNK A   1      -2.501  -1.238   0.000  0.00  0.00    +0.000 A 
ATOM     23  C   UNK A   1      -3.930  -1.238   0.000  0.00  0.00    +0.000 A 
ATOM     24  C   UNK A   1      -2.501  -2.062   0.000  0.00  0.00    +0.000 A 
ATOM     25  C   UNK A   1      -3.930  -2.062   0.000  0.00  0.00    +0.000 A 
ATOM     26  C   UNK A   1      -3.215  -2.475   0.000  0.00  0.00    +0.000 A 
ENDBRANCH  20  21
ENDBRANCH   1  20
TORSDOF 5
