REMARK  Name = 
REMARK  9 active torsions:
REMARK  status: ('A' for Active; 'I' for Inactive)
REMARK    1  A    between atoms: C_5  and  C_27
REMARK    2  A    between atoms: C_9  and  N_20
REMARK    3  A    between atoms: C_14  and  C_16
REMARK    4  A    between atoms: C_16  and  C_17
REMARK    5  A    between atoms: C_21  and  C_23
REMARK    6  A    between atoms: C_23  and  N_25
REMARK    7  A    between atoms: N_29  and  C_30
REMARK    8  A    between atoms: C_30  and  C_31
REMARK    9  A    between atoms: C_30  and  C_37
REMARK                            x       y       z     vdW  Elec       q    Type
REMARK                         _______ _______ _______ _____ _____    ______ ____
ROOT
ATOM      1  C   UNL     1       0.458  -1.106   0.000  0.00  0.00    +0.000 C 
ATOM      2  C   UNL     1      -0.327  -1.361   0.000  0.00  0.00    +0.000 C 
ATOM      3  C   UNL     1      -0.812  -0.693   0.000  0.00  0.00    +0.000 C 
ATOM      4  C   UNL     1      -0.327  -0.026   0.000  0.00  0.00    +0.000 C 
ATOM      5  N   UNL     1       0.458  -0.281   0.000  0.00  0.00    +0.000 N 
ATOM      6  C   UNL     1       1.041   0.303   0.000  0.00  0.00    +0.000 C 
ATOM      7  O   UNL     1       0.726   1.065   0.000  0.00  0.00    +0.000 OA
ATOM      8  C   UNL     1       1.866   0.303   0.000  0.00  0.00    +0.000 C 
ATOM      9  C   UNL     1       2.450  -0.281   0.000  0.00  0.00    +0.000 C 
ATOM     10  N   UNL     1       2.450  -1.106   0.000  0.00  0.00    +0.000 N 
ATOM     11  C   UNL     1       1.866  -1.689   0.000  0.00  0.00    +0.000 C 
ATOM     12  C   UNL     1       1.041  -1.689   0.000  0.00  0.00    +0.000 C 
ATOM     13  C   UNL     1       3.212  -1.421   0.000  0.00  0.00    +0.000 C 
ATOM     14  O   UNL     1       3.866  -0.919   0.000  0.00  0.00    +0.000 OA
ENDROOT
BRANCH   8  15
ATOM     15  N   UNL     1       2.182   1.065   0.000  0.00  0.00    +0.000 NA
ATOM     16  C   UNL     1       1.680   1.719   0.000  0.00  0.00    +0.000 C 
ATOM     17  O   UNL     1       0.862   1.612   0.000  0.00  0.00    +0.000 OA
BRANCH  16  18
ATOM     18  C   UNL     1       1.996   2.482   0.000  0.00  0.00    +0.000 C 
ATOM     19  C   UNL     1       2.813   2.589   0.000  0.00  0.00    +0.000 C 
BRANCH  18  20
ATOM     20  N   UNL     1       1.493   3.136   0.000  0.00  0.00    +0.000 NA
ATOM     21  C   UNL     1       0.675   3.029   0.000  0.00  0.00    +0.000 C 
ENDBRANCH  18  20
ENDBRANCH  16  18
ENDBRANCH   8  15
BRANCH   4  22
ATOM     22  C   UNL     1      -0.582   0.759   0.000  0.00  0.00    +0.000 C 
ATOM     23  O   UNL     1      -0.030   1.372   0.000  0.00  0.00    +0.000 OA
ATOM     24  N   UNL     1      -1.389   0.930   0.000  0.00  0.00    +0.000 NA
BRANCH  24  25
ATOM     25  C   UNL     1      -1.643   1.715   0.000  0.00  0.00    +0.000 C 
BRANCH  25  26
ATOM     26  C   UNL     1      -1.091   2.328   0.000  0.00  0.00    +0.000 A 
ATOM     27  C   UNL     1      -1.346   3.113   0.000  0.00  0.00    +0.000 A 
ATOM     28  C   UNL     1      -0.794   3.726   0.000  0.00  0.00    +0.000 A 
ATOM     29  C   UNL     1       0.013   3.554   0.000  0.00  0.00    +0.000 A 
ATOM     30  C   UNL     1       0.268   2.770   0.000  0.00  0.00    +0.000 A 
ATOM     31  C   UNL     1      -0.284   2.157   0.000  0.00  0.00    +0.000 A 
ENDBRANCH  25  26
BRANCH  25  32
ATOM     32  C   UNL     1      -2.450   1.887   0.000  0.00  0.00    +0.000 A 
ATOM     33  C   UNL     1      -3.002   1.274   0.000  0.00  0.00    +0.000 A 
ATOM     34  C   UNL     1      -3.809   1.445   0.000  0.00  0.00    +0.000 A 
ATOM     35  C   UNL     1      -4.064   2.230   0.000  0.00  0.00    +0.000 A 
ATOM     36  C   UNL     1      -3.512   2.843   0.000  0.00  0.00    +0.000 A 
ATOM     37  C   UNL     1      -2.705   2.671   0.000  0.00  0.00    +0.000 A 
ENDBRANCH  25  32
ENDBRANCH  24  25
ENDBRANCH   4  22
BRANCH  13  38
ATOM     38  C   UNL     1       3.320  -2.239   0.000  0.00  0.00    +0.000 C 
BRANCH  38  39
ATOM     39  C   UNL     1       4.082  -2.555   0.000  0.00  0.00    +0.000 C 
ATOM     40  C   UNL     1       4.189  -3.373   0.000  0.00  0.00    +0.000 C 
ATOM     41  C   UNL     1       4.736  -2.053   0.000  0.00  0.00    +0.000 C 
ENDBRANCH  38  39
ENDBRANCH  13  38
TORSDOF 9
