REMARK  Name = 
REMARK  2 active torsions:
REMARK  status: ('A' for Active; 'I' for Inactive)
REMARK    1  A    between atoms: C_8  and  S_17
REMARK    2  A    between atoms: C_12  and  S_17
REMARK                            x       y       z     vdW  Elec       q    Type
REMARK                         _______ _______ _______ _____ _____    ______ ____
ROOT
ATOM      1  C   UNL     1       1.429   4.950   0.000  0.00  0.00    +0.000 A 
ATOM      2  C   UNL     1       0.000   5.775   0.000  0.00  0.00    +0.000 A 
ATOM      3  C   UNL     1       1.429   5.775   0.000  0.00  0.00    +0.000 A 
ATOM      4  C   UNL     1       0.715   6.188   0.000  0.00  0.00    +0.000 A 
ATOM      5  C   UNL     1       0.715   4.537   0.000  0.00  0.00    +0.000 A 
ATOM      6  C   UNL     1       0.000   4.950   0.000  0.00  0.00    +0.000 A 
ATOM      7 CL   UNL     1       2.143   6.188   0.000  0.00  0.00    +0.000 Cl
ATOM      8 CL   UNL     1       0.715   7.013   0.000  0.00  0.00    +0.000 Cl
ATOM      9 CL   UNL     1       0.715   3.712   0.000  0.00  0.00    +0.000 Cl
ENDROOT
BRANCH   6  10
ATOM     10  S   UNL     1      -0.715   4.537   0.000  0.00  0.00    +0.000 S 
BRANCH  10  16
ATOM     11  C   UNL     1       0.000   2.475   0.000  0.00  0.00    +0.000 A 
ATOM     12  C   UNL     1      -1.429   2.475   0.000  0.00  0.00    +0.000 A 
ATOM     13  C   UNL     1       0.000   3.300   0.000  0.00  0.00    +0.000 A 
ATOM     14  C   UNL     1      -1.429   3.300   0.000  0.00  0.00    +0.000 A 
ATOM     15  C   UNL     1      -0.715   2.062   0.000  0.00  0.00    +0.000 A 
ATOM     16  C   UNL     1      -0.715   3.712   0.000  0.00  0.00    +0.000 A 
ATOM     17 CL   UNL     1      -0.715   1.238   0.000  0.00  0.00    +0.000 Cl
ENDBRANCH  10  16
ENDBRANCH   6  10
TORSDOF 2
