REMARK  Name = 
REMARK  7 active torsions:
REMARK  status: ('A' for Active; 'I' for Inactive)
REMARK    1  A    between atoms: C_2  and  C_11
REMARK    2  A    between atoms: C_2  and  O_13
REMARK    3  A    between atoms: C_11  and  O_21
REMARK    4  A    between atoms: O_13  and  C_14
REMARK    5  A    between atoms: C_14  and  O_28
REMARK    6  A    between atoms: O_21  and  C_26
REMARK    7  A    between atoms: O_28  and  C_31
REMARK                            x       y       z     vdW  Elec       q    Type
REMARK                         _______ _______ _______ _____ _____    ______ ____
ROOT
ATOM      1  C   UNL     1      -0.015   0.427   0.000  0.00  0.00    +0.000 C 
ATOM      2  C   UNL     1       0.733   0.684   0.000  0.00  0.00    +0.000 C 
ATOM      3  C   UNL     1      -2.179  -0.781   0.000  0.00  0.00    +0.000 C 
ATOM      4  C   UNL     1      -0.713  -0.786   0.000  0.00  0.00    +0.000 C 
ATOM      5  C   UNL     1      -0.015  -0.374   0.000  0.00  0.00    +0.000 C 
ATOM      6  C   UNL     1      -1.436  -0.393   0.000  0.00  0.00    +0.000 C 
ATOM      7  C   UNL     1      -2.179  -1.611   0.000  0.00  0.00    +0.000 C 
ATOM      8  C   UNL     1      -0.713   0.844   0.000  0.00  0.00    +0.000 C 
ATOM      9  C   UNL     1      -1.436   0.427   0.000  0.00  0.00    +0.000 C 
ATOM     10  C   UNL     1      -2.892  -0.349   0.000  0.00  0.00    +0.000 C 
ATOM     11  C   UNL     1      -2.907  -2.009   0.000  0.00  0.00    +0.000 C 
ATOM     12  C   UNL     1       1.194   0.015   0.000  0.00  0.00    +0.000 C 
ATOM     13  C   UNL     1       0.762  -0.611   0.000  0.00  0.00    +0.000 C 
ATOM     14  C   UNL     1      -0.713  -1.616   0.000  0.00  0.00    +0.000 C 
ATOM     15  C   UNL     1      -3.635  -0.781   0.000  0.00  0.00    +0.000 C 
ATOM     16  C   UNL     1      -3.635  -1.567   0.000  0.00  0.00    +0.000 C 
ATOM     17  C   UNL     1      -1.451  -2.038   0.000  0.00  0.00    +0.000 C 
ATOM     18  O   UNL     1      -4.353  -1.951   0.000  0.00  0.00    +0.000 OA
ATOM     19  C   UNL     1      -0.015   1.252   0.000  0.00  0.00    +0.000 C 
ATOM     20  O   UNL     1      -2.155   0.844   0.000  0.00  0.00    +0.000 OA
ATOM     21  C   UNL     1      -2.179   0.005   0.000  0.00  0.00    +0.000 C 
ENDROOT
BRANCH   2  22
ATOM     22  C   UNL     1       0.733   1.616   0.000  0.00  0.00    +0.000 C 
ATOM     23  O   UNL     1       0.034   2.038   0.000  0.00  0.00    +0.000 OA
BRANCH  22  24
ATOM     24  O   UNL     1       1.446   2.038   0.000  0.00  0.00    +0.000 OA
BRANCH  24  25
ATOM     25  C   UNL     1       2.160   1.616   0.000  0.00  0.00    +0.000 C 
ATOM     26 CL   UNL     1       2.829   2.038   0.000  0.00  0.00    +0.000 Cl
ENDBRANCH  24  25
ENDBRANCH  22  24
ENDBRANCH   2  22
BRANCH   2  27
ATOM     27  O   UNL     1       1.500   1.034   0.000  0.00  0.00    +0.000 OA
BRANCH  27  28
ATOM     28  C   UNL     1       2.203   0.611   0.000  0.00  0.00    +0.000 C 
ATOM     29  O   UNL     1       2.203  -0.204   0.000  0.00  0.00    +0.000 OA
BRANCH  28  30
ATOM     30  O   UNL     1       2.902   1.034   0.000  0.00  0.00    +0.000 OA
BRANCH  30  31
ATOM     31  C   UNL     1       3.654   0.611   0.000  0.00  0.00    +0.000 C 
ATOM     32  C   UNL     1       4.353   1.034   0.000  0.00  0.00    +0.000 C 
ENDBRANCH  30  31
ENDBRANCH  28  30
ENDBRANCH  27  28
ENDBRANCH   2  27
TORSDOF 7
