REMARK  Name = 
REMARK  6 active torsions:
REMARK  status: ('A' for Active; 'I' for Inactive)
REMARK    1  A    between atoms: C_3  and  C_11
REMARK    2  A    between atoms: C_11  and  C_20
REMARK    3  A    between atoms: C_18  and  O_22
REMARK    4  A    between atoms: C_18  and  C_26
REMARK    5  A    between atoms: C_20  and  O_22
REMARK    6  A    between atoms: C_26  and  C_27
REMARK                            x       y       z     vdW  Elec       q    Type
REMARK                         _______ _______ _______ _____ _____    ______ ____
ROOT
ATOM      1  C   UNL     1      -0.391   0.066   0.000  0.00  0.00    +0.000 C 
ATOM      2  C   UNL     1      -2.538  -1.159   0.000  0.00  0.00    +0.000 C 
ATOM      3  C   UNL     1       0.396   0.313   0.000  0.00  0.00    +0.000 C 
ATOM      4  C   UNL     1      -1.110  -1.159   0.000  0.00  0.00    +0.000 C 
ATOM      5  C   UNL     1      -0.396  -0.751   0.000  0.00  0.00    +0.000 C 
ATOM      6  C   UNL     1      -1.824  -0.746   0.000  0.00  0.00    +0.000 C 
ATOM      7  C   UNL     1      -2.538  -1.985   0.000  0.00  0.00    +0.000 C 
ATOM      8  C   UNL     1      -1.105   0.488   0.000  0.00  0.00    +0.000 C 
ATOM      9  C   UNL     1      -1.819   0.080   0.000  0.00  0.00    +0.000 C 
ATOM     10  C   UNL     1      -3.253  -0.746   0.000  0.00  0.00    +0.000 C 
ATOM     11  C   UNL     1      -3.253  -2.398   0.000  0.00  0.00    +0.000 C 
ATOM     12  C   UNL     1       0.877  -0.357   0.000  0.00  0.00    +0.000 C 
ATOM     13  C   UNL     1       0.381  -1.023   0.000  0.00  0.00    +0.000 C 
ATOM     14  C   UNL     1      -1.120  -1.990   0.000  0.00  0.00    +0.000 C 
ATOM     15  C   UNL     1      -3.962  -1.159   0.000  0.00  0.00    +0.000 C 
ATOM     16  C   UNL     1      -3.962  -1.985   0.000  0.00  0.00    +0.000 C 
ATOM     17  C   UNL     1      -1.834  -2.398   0.000  0.00  0.00    +0.000 C 
ATOM     18  O   UNL     1      -4.681  -2.393   0.000  0.00  0.00    +0.000 OA
ATOM     19  O   UNL     1       1.110   0.736   0.000  0.00  0.00    +0.000 OA
ATOM     20  C   UNL     1      -0.391   0.896   0.000  0.00  0.00    +0.000 C 
ATOM     21  O   UNL     1      -2.534   0.503   0.000  0.00  0.00    +0.000 OA
ATOM     22  C   UNL     1      -2.548  -0.328   0.000  0.00  0.00    +0.000 C 
ENDROOT
BRANCH   3  23
ATOM     23  C   UNL     1       0.396   1.144   0.000  0.00  0.00    +0.000 C 
ATOM     24  O   UNL     1      -0.323   1.552   0.000  0.00  0.00    +0.000 OA
BRANCH  23  25
ATOM     25  C   UNL     1       1.105   1.567   0.000  0.00  0.00    +0.000 C 
BRANCH  25  26
ATOM     26  O   UNL     1       1.824   1.159   0.000  0.00  0.00    +0.000 OA
BRANCH  26  27
ATOM     27  C   UNL     1       2.538   1.572   0.000  0.00  0.00    +0.000 C 
ATOM     28  O   UNL     1       2.524   2.398   0.000  0.00  0.00    +0.000 OA
BRANCH  27  29
ATOM     29  C   UNL     1       3.253   1.164   0.000  0.00  0.00    +0.000 C 
BRANCH  29  30
ATOM     30  C   UNL     1       3.967   1.581   0.000  0.00  0.00    +0.000 C 
ATOM     31  C   UNL     1       3.554   2.296   0.000  0.00  0.00    +0.000 C 
ATOM     32  C   UNL     1       4.375   2.296   0.000  0.00  0.00    +0.000 C 
ATOM     33  C   UNL     1       4.681   1.173   0.000  0.00  0.00    +0.000 C 
ENDBRANCH  29  30
ENDBRANCH  27  29
ENDBRANCH  26  27
ENDBRANCH  25  26
ENDBRANCH  23  25
ENDBRANCH   3  23
TORSDOF 6
