REMARK  Name = 
REMARK  3 active torsions:
REMARK  status: ('A' for Active; 'I' for Inactive)
REMARK    1  A    between atoms: C_2  and  C_4
REMARK    2  A    between atoms: C_3  and  C_4
REMARK    3  A    between atoms: C_9  and  C_13
REMARK                            x       y       z     vdW  Elec       q    Type
REMARK                         _______ _______ _______ _____ _____    ______ ____
ROOT
ATOM      1  C   UNL     1       0.749   0.628   0.000  0.00  0.00    +0.000 C 
ATOM      2  O   UNL     1       1.474   0.258   0.000  0.00  0.00    +0.000 OA
ENDROOT
BRANCH   1   3
ATOM      3  C   UNL     1       0.705   1.452   0.000  0.00  0.00    +0.000 A 
ATOM      4  C   UNL     1      -0.021   1.841   0.000  0.00  0.00    +0.000 A 
ATOM      5  N   UNL     1       0.674   3.076   0.000  0.00  0.00    +0.000 NA
ATOM      6  C   UNL     1      -0.037   2.653   0.000  0.00  0.00    +0.000 A 
ATOM      7  C   UNL     1       1.396   2.679   0.000  0.00  0.00    +0.000 A 
ATOM      8  C   UNL     1       1.412   1.863   0.000  0.00  0.00    +0.000 A 
ATOM      9  C   UNL     1      -0.736   1.417   0.000  0.00  0.00    +0.000 A 
ATOM     10  C   UNL     1      -0.768   3.045   0.000  0.00  0.00    +0.000 A 
ATOM     11  C   UNL     1      -1.458   1.805   0.000  0.00  0.00    +0.000 A 
ATOM     12  C   UNL     1      -1.474   2.622   0.000  0.00  0.00    +0.000 A 
ENDBRANCH   1   3
BRANCH   1  14
ATOM     13  N   UNL     1       0.660  -0.735   0.000  0.00  0.00    +0.000 NA
ATOM     14  C   UNL     1       0.182  -0.001   0.000  0.00  0.00    +0.000 C 
ATOM     15  C   UNL     1      -0.695  -0.047   0.000  0.00  0.00    +0.000 C 
ATOM     16  C   UNL     1       0.262  -1.516   0.000  0.00  0.00    +0.000 C 
ATOM     17  C   UNL     1      -1.094  -0.827   0.000  0.00  0.00    +0.000 C 
ATOM     18  C   UNL     1      -0.616  -1.562   0.000  0.00  0.00    +0.000 C 
ATOM     19  C   UNL     1      -0.085  -0.588   0.000  0.00  0.00    +0.000 C 
ATOM     20  C   UNL     1      -0.393  -1.066   0.000  0.00  0.00    +0.000 C 
BRANCH  18  21
ATOM     21  C   UNL     1      -1.014  -2.342   0.000  0.00  0.00    +0.000 C 
ATOM     22  C   UNL     1      -0.536  -3.076   0.000  0.00  0.00    +0.000 C 
ENDBRANCH  18  21
ENDBRANCH   1  14
TORSDOF 3
