REMARK  Name = 
REMARK  12 active torsions:
REMARK  status: ('A' for Active; 'I' for Inactive)
REMARK    1  A    between atoms: O_1  and  C_2
REMARK    2  A    between atoms: O_1  and  C_17
REMARK    3  A    between atoms: C_2  and  C_4
REMARK    4  A    between atoms: C_7  and  C_8
REMARK    5  A    between atoms: C_12  and  O_30
REMARK    6  A    between atoms: C_13  and  C_14
REMARK    7  A    between atoms: C_14  and  C_15
REMARK    8  A    between atoms: C_15  and  C_16
REMARK    9  A    between atoms: C_16  and  C_17
REMARK   10  A    between atoms: C_20  and  C_21
REMARK   11  A    between atoms: C_26  and  C_28
REMARK   12  A    between atoms: C_27  and  C_33
REMARK                            x       y       z     vdW  Elec       q    Type
REMARK                         _______ _______ _______ _____ _____    ______ ____
ROOT
ATOM      1  C   UNL     1      -0.667   1.029   0.000  0.00  0.00    +0.000 A 
ATOM      2  C   UNL     1      -0.437   1.812   0.000  0.00  0.00    +0.000 A 
ATOM      3  S   UNL     1       0.380   1.848   0.000  0.00  0.00    +0.000 S 
ATOM      4  N   UNL     1      -0.016   0.572   0.000  0.00  0.00    +0.000 NA
ATOM      5  C   UNL     1       2.177   1.022   0.000  0.00  0.00    +0.000 C 
ATOM      6  N   UNL     1       1.369   0.660   0.000  0.00  0.00    +0.000 NA
ATOM      7  O   UNL     1       2.213   1.862   0.000  0.00  0.00    +0.000 OA
ATOM      8  C   UNL     1       0.662   1.052   0.000  0.00  0.00    +0.000 A 
ENDROOT
BRANCH   5  11
ATOM      9  C   UNL     1       2.815  -0.198   0.000  0.00  0.00    +0.000 A 
ATOM     10  C   UNL     1       3.523  -0.585   0.000  0.00  0.00    +0.000 A 
ATOM     11  C   UNL     1       2.804   0.638   0.000  0.00  0.00    +0.000 A 
ATOM     12  C   UNL     1       3.520   1.056   0.000  0.00  0.00    +0.000 A 
ATOM     13  C   UNL     1       4.239   0.630   0.000  0.00  0.00    +0.000 A 
ATOM     14  C   UNL     1       4.239  -0.178   0.000  0.00  0.00    +0.000 A 
ATOM     15 CL   UNL     1       4.955   1.039   0.000  0.00  0.00    +0.000 Cl
ATOM     16 CL   UNL     1       3.530  -1.410   0.000  0.00  0.00    +0.000 Cl
BRANCH  14  18
ATOM     17  C   UNL     1       5.655  -0.188   0.000  0.00  0.00    +0.000 C 
ATOM     18  C   UNL     1       4.941  -0.598   0.000  0.00  0.00    +0.000 C 
ATOM     19  C   UNL     1       5.656   0.637   0.000  0.00  0.00    +0.000 C 
BRANCH  17  20
ATOM     20  C   UNL     1       6.368  -0.602   0.000  0.00  0.00    +0.000 C 
ATOM     21  O   UNL     1       7.083  -0.190   0.000  0.00  0.00    +0.000 OA
ATOM     22  O   UNL     1       6.368  -1.427   0.000  0.00  0.00    +0.000 OA
ENDBRANCH  17  20
ENDBRANCH  14  18
ENDBRANCH   5  11
BRANCH   1  27
ATOM     23  C   UNL     1      -2.818  -0.212   0.000  0.00  0.00    +0.000 A 
ATOM     24  C   UNL     1      -2.094  -0.618   0.000  0.00  0.00    +0.000 A 
ATOM     25  C   UNL     1      -2.817   0.622   0.000  0.00  0.00    +0.000 A 
ATOM     26  C   UNL     1      -2.097   1.034   0.000  0.00  0.00    +0.000 A 
ATOM     27  C   UNL     1      -1.383   0.622   0.000  0.00  0.00    +0.000 A 
ATOM     28  C   UNL     1      -1.394  -0.222   0.000  0.00  0.00    +0.000 A 
BRANCH  24  29
ATOM     29  C   UNL     1      -2.036  -1.441   0.000  0.00  0.00    +0.000 C 
ATOM     30  C   UNL     1      -1.317  -1.847   0.000  0.00  0.00    +0.000 C 
BRANCH  29  31
ATOM     31  O   UNL     1      -2.831  -1.847   0.000  0.00  0.00    +0.000 OA
BRANCH  31  32
ATOM     32  C   UNL     1      -3.517  -1.437   0.000  0.00  0.00    +0.000 C 
BRANCH  32  33
ATOM     33  C   UNL     1      -4.230  -1.862   0.000  0.00  0.00    +0.000 C 
BRANCH  33  34
ATOM     34  C   UNL     1      -4.939  -1.455   0.000  0.00  0.00    +0.000 C 
BRANCH  34  35
ATOM     35  C   UNL     1      -5.666  -1.852   0.000  0.00  0.00    +0.000 C 
BRANCH  35  36
ATOM     36  C   UNL     1      -6.369  -1.437   0.000  0.00  0.00    +0.000 C 
ATOM     37  C   UNL     1      -7.083  -1.850   0.000  0.00  0.00    +0.000 C 
ENDBRANCH  35  36
ENDBRANCH  34  35
ENDBRANCH  33  34
ENDBRANCH  32  33
ENDBRANCH  31  32
ENDBRANCH  29  31
ENDBRANCH  24  29
BRANCH  28  38
ATOM     38  O   UNL     1      -0.684  -0.642   0.000  0.00  0.00    +0.000 OA
ATOM     39  C   UNL     1       0.030  -0.230   0.000  0.00  0.00    +0.000 C 
ENDBRANCH  28  38
ENDBRANCH   1  27
TORSDOF 12
