REMARK  Name = 
REMARK  6 active torsions:
REMARK  status: ('A' for Active; 'I' for Inactive)
REMARK    1  A    between atoms: C_11  and  C_12
REMARK    2  A    between atoms: C_11  and  C_21
REMARK    3  A    between atoms: C_12  and  N_24
REMARK    4  A    between atoms: C_15  and  N_23
REMARK    5  A    between atoms: C_16  and  S_29
REMARK    6  A    between atoms: N_23  and  S_29
REMARK                            x       y       z     vdW  Elec       q    Type
REMARK                         _______ _______ _______ _____ _____    ______ ____
ROOT
ATOM      1  C   UNL     1       3.705   1.026   0.000  0.00  0.00    +0.000 A 
ATOM      2  C   UNL     1       3.960   0.241   0.000  0.00  0.00    +0.000 A 
ATOM      3  C   UNL     1       2.898   1.197   0.000  0.00  0.00    +0.000 A 
ATOM      4  C   UNL     1       3.408  -0.372   0.000  0.00  0.00    +0.000 A 
ATOM      5  C   UNL     1      -0.092   0.241   0.000  0.00  0.00    +0.000 C 
ATOM      6  C   UNL     1       0.460  -0.372   0.000  0.00  0.00    +0.000 C 
ATOM      7  C   UNL     1       0.969   1.197   0.000  0.00  0.00    +0.000 C 
ATOM      8  C   UNL     1       0.162   1.026   0.000  0.00  0.00    +0.000 C 
ATOM      9  C   UNL     1       2.346   0.584   0.000  0.00  0.00    +0.000 A 
ATOM     10  C   UNL     1       1.521   0.584   0.000  0.00  0.00    +0.000 A 
ATOM     11  C   UNL     1       2.601  -0.201   0.000  0.00  0.00    +0.000 A 
ATOM     12  C   UNL     1       1.266  -0.201   0.000  0.00  0.00    +0.000 A 
ATOM     13  N   UNL     1       1.934  -0.685   0.000  0.00  0.00    +0.000 N 
ENDROOT
BRANCH   8  14
ATOM     14  N   UNL     1      -0.390   1.639   0.000  0.00  0.00    +0.000 NA
BRANCH  14  17
ATOM     15  O   UNL     1      -0.919   2.678   0.000  0.00  0.00    +0.000 OA
ATOM     16  O   UNL     1       0.650   2.168   0.000  0.00  0.00    +0.000 OA
ATOM     17  S   UNL     1      -0.135   2.423   0.000  0.00  0.00    +0.000 S 
BRANCH  17  23
ATOM     18  C   UNL     1      -0.177   4.606   0.000  0.00  0.00    +0.000 A 
ATOM     19  C   UNL     1       1.182   4.164   0.000  0.00  0.00    +0.000 A 
ATOM     20  C   UNL     1      -0.432   3.821   0.000  0.00  0.00    +0.000 A 
ATOM     21  C   UNL     1       0.927   3.380   0.000  0.00  0.00    +0.000 A 
ATOM     22  C   UNL     1       0.630   4.777   0.000  0.00  0.00    +0.000 A 
ATOM     23  C   UNL     1       0.120   3.208   0.000  0.00  0.00    +0.000 A 
ATOM     24  F   UNL     1       0.885   5.562   0.000  0.00  0.00    +0.000 F 
ENDBRANCH  17  23
ENDBRANCH  14  17
ENDBRANCH   8  14
BRANCH  13  25
ATOM     25  C   UNL     1       1.934  -1.510   0.000  0.00  0.00    +0.000 C 
BRANCH  25  26
ATOM     26  C   UNL     1       2.648  -1.923   0.000  0.00  0.00    +0.000 C 
BRANCH  26  27
ATOM     27  C   UNL     1       2.648  -2.748   0.000  0.00  0.00    +0.000 C 
ATOM     28  O   UNL     1       3.363  -3.160   0.000  0.00  0.00    +0.000 OA
ATOM     29  O   UNL     1       1.934  -3.160   0.000  0.00  0.00    +0.000 OA
ENDBRANCH  26  27
ENDBRANCH  25  26
ENDBRANCH  13  25
TORSDOF 6
