REMARK  Name = 
REMARK  4 active torsions:
REMARK  status: ('A' for Active; 'I' for Inactive)
REMARK    1  A    between atoms: C_7  and  N_8
REMARK    2  A    between atoms: N_8  and  S_9
REMARK    3  A    between atoms: S_9  and  C_12
REMARK    4  A    between atoms: C_18  and  C_20
REMARK                            x       y       z     vdW  Elec       q    Type
REMARK                         _______ _______ _______ _____ _____    ______ ____
ROOT
ATOM      1  C   UNL     1       3.352   4.410   0.000  0.00  0.00    +0.000 A 
ATOM      2  C   UNL     1       4.067   4.823   0.000  0.00  0.00    +0.000 A 
ATOM      3  F   UNL     1       4.067   5.648   0.000  0.00  0.00    +0.000 F 
ATOM      4  C   UNL     1       4.781   4.410   0.000  0.00  0.00    +0.000 A 
ATOM      5  C   UNL     1       4.781   3.585   0.000  0.00  0.00    +0.000 A 
ATOM      6 CL   UNL     1       5.496   3.173   0.000  0.00  0.00    +0.000 Cl
ATOM      7  C   UNL     1       4.067   3.173   0.000  0.00  0.00    +0.000 A 
ATOM      8  C   UNL     1       3.352   3.585   0.000  0.00  0.00    +0.000 A 
ENDROOT
BRANCH   7   9
ATOM      9  C   UNL     1       4.067   2.348   0.000  0.00  0.00    +0.000 C 
ATOM     10  O   UNL     1       4.781   1.935   0.000  0.00  0.00    +0.000 OA
ATOM     11  N   UNL     1       3.352   1.935   0.000  0.00  0.00    +0.000 N 
ATOM     12  C   UNL     1       3.352   1.110   0.000  0.00  0.00    +0.000 C 
ATOM     13  C   UNL     1       2.638   0.698   0.000  0.00  0.00    +0.000 C 
ATOM     14  N   UNL     1       1.923   1.110   0.000  0.00  0.00    +0.000 NA
ATOM     15  C   UNL     1       1.139   0.856   0.000  0.00  0.00    +0.000 C 
ATOM     16  C   UNL     1       0.654   1.523   0.000  0.00  0.00    +0.000 C 
ATOM     17  C   UNL     1       1.139   2.190   0.000  0.00  0.00    +0.000 C 
ATOM     18  C   UNL     1       1.923   1.935   0.000  0.00  0.00    +0.000 C 
ATOM     19  C   UNL     1       2.638   2.348   0.000  0.00  0.00    +0.000 C 
ENDBRANCH   7   9
BRANCH   1  20
ATOM     20  S   UNL     1       2.638   4.823   0.000  0.00  0.00    +0.000 S 
ATOM     21  O   UNL     1       2.225   4.109   0.000  0.00  0.00    +0.000 OA
ATOM     22  O   UNL     1       3.050   5.537   0.000  0.00  0.00    +0.000 OA
BRANCH  20  23
ATOM     23  N   UNL     1       1.923   5.235   0.000  0.00  0.00    +0.000 NA
BRANCH  23  30
ATOM     24  F   UNL     1       0.494   6.060   0.000  0.00  0.00    +0.000 F 
ATOM     25  C   UNL     1       1.209   6.473   0.000  0.00  0.00    +0.000 A 
ATOM     26  C   UNL     1       1.209   7.298   0.000  0.00  0.00    +0.000 A 
ATOM     27  C   UNL     1       1.923   7.710   0.000  0.00  0.00    +0.000 A 
ATOM     28  C   UNL     1       2.638   7.298   0.000  0.00  0.00    +0.000 A 
ATOM     29  C   UNL     1       2.638   6.473   0.000  0.00  0.00    +0.000 A 
ATOM     30  C   UNL     1       1.923   6.060   0.000  0.00  0.00    +0.000 A 
ENDBRANCH  23  30
ENDBRANCH  20  23
ENDBRANCH   1  20
TORSDOF 4
