REMARK  Name = 
REMARK  9 active torsions:
REMARK  status: ('A' for Active; 'I' for Inactive)
REMARK    1  A    between atoms: N_1  and  C1*_4
REMARK    2  A    between atoms: C4*_11  and  C5*_15
REMARK    3  A    between atoms: C_17  and  O_19
REMARK    4  A    between atoms: O_19  and  C_20
REMARK    5  A    between atoms: C_20  and  C_21
REMARK    6  A    between atoms: C_21  and  C_22
REMARK    7  A    between atoms: C_22  and  C_23
REMARK    8  A    between atoms: C_23  and  C_24
REMARK    9  A    between atoms: C_24  and  C_25
REMARK                            x       y       z     vdW  Elec       q    Type
REMARK                         _______ _______ _______ _____ _____    ______ ____
ROOT
ATOM      1  N   UNL     1      -1.736  -0.620   0.000  0.00  0.00    +0.000 N 
ATOM      2  C   UNL     1      -1.013  -0.204   0.000  0.00  0.00    +0.000 C 
ATOM      3  N   UNL     1      -1.013   0.624   0.000  0.00  0.00    +0.000 NA
ATOM      4  C   UNL     1      -2.439  -0.204   0.000  0.00  0.00    +0.000 C 
ATOM      5  N   UNL     1      -2.439   0.624   0.000  0.00  0.00    +0.000 NA
ATOM      6  C   UNL     1      -1.728   1.035   0.000  0.00  0.00    +0.000 C 
ATOM      7  O   UNL     1      -0.301  -0.620   0.000  0.00  0.00    +0.000 OA
ATOM      8  N   UNL     1      -1.728   1.859   0.000  0.00  0.00    +0.000 NA
ATOM      9  C   UNL     1      -1.010   2.269   0.000  0.00  0.00    +0.000 C 
ATOM     10  O   UNL     1      -1.010   3.094   0.000  0.00  0.00    +0.000 OA
ENDROOT
BRANCH   1  11
ATOM     11  C1* UNL     1      -1.736  -1.792   0.000  0.00  0.00    +0.000 C 
ATOM     12  O4* UNL     1      -2.522  -1.347   0.000  0.00  0.00    +0.000 OA
ATOM     13  C2* UNL     1      -2.040  -2.395   0.000  0.00  0.00    +0.000 C 
ATOM     14  C3* UNL     1      -3.021  -2.395   0.000  0.00  0.00    +0.000 C 
ATOM     15  C4* UNL     1      -3.312  -1.796   0.000  0.00  0.00    +0.000 C 
ATOM     16  O3* UNL     1      -3.459  -3.094   0.000  0.00  0.00    +0.000 OA
BRANCH  15  17
ATOM     17  C5* UNL     1      -4.100  -1.552   0.000  0.00  0.00    +0.000 C 
ATOM     18  O5* UNL     1      -4.706  -2.112   0.000  0.00  0.00    +0.000 OA
ENDBRANCH  15  17
ENDBRANCH   1  11
BRANCH   9  19
ATOM     19  O   UNL     1      -0.296   1.857   0.000  0.00  0.00    +0.000 OA
BRANCH  19  20
ATOM     20  C   UNL     1       0.419   2.269   0.000  0.00  0.00    +0.000 C 
BRANCH  20  21
ATOM     21  C   UNL     1       1.133   1.857   0.000  0.00  0.00    +0.000 C 
BRANCH  21  22
ATOM     22  C   UNL     1       1.848   2.269   0.000  0.00  0.00    +0.000 C 
BRANCH  22  23
ATOM     23  C   UNL     1       2.562   1.857   0.000  0.00  0.00    +0.000 C 
BRANCH  23  24
ATOM     24  C   UNL     1       3.277   2.269   0.000  0.00  0.00    +0.000 C 
BRANCH  24  25
ATOM     25  C   UNL     1       3.991   1.857   0.000  0.00  0.00    +0.000 C 
ATOM     26  C   UNL     1       4.706   2.269   0.000  0.00  0.00    +0.000 C 
ENDBRANCH  24  25
ENDBRANCH  23  24
ENDBRANCH  22  23
ENDBRANCH  21  22
ENDBRANCH  20  21
ENDBRANCH  19  20
ENDBRANCH   9  19
TORSDOF 9
