REMARK  Name = 
REMARK  5 active torsions:
REMARK  status: ('A' for Active; 'I' for Inactive)
REMARK    1  A    between atoms: C_6  and  C_11
REMARK    2  A    between atoms: C_16  and  O_17
REMARK    3  A    between atoms: O_17  and  C_18
REMARK    4  A    between atoms: N_21  and  C_29
REMARK    5  A    between atoms: C_23  and  C_26
REMARK                            x       y       z     vdW  Elec       q    Type
REMARK                         _______ _______ _______ _____ _____    ______ ____
ROOT
ATOM      1  C   UNL     1      -0.715  -0.412   0.000  0.00  0.00    +0.000 A 
ATOM      2  C   UNL     1      -0.715  -1.238   0.000  0.00  0.00    +0.000 A 
ATOM      3  C   UNL     1       0.000  -1.650   0.000  0.00  0.00    +0.000 A 
ATOM      4  C   UNL     1       0.715  -1.238   0.000  0.00  0.00    +0.000 A 
ATOM      5  C   UNL     1       0.715  -0.412   0.000  0.00  0.00    +0.000 A 
ATOM      6  C   UNL     1       0.000   0.000   0.000  0.00  0.00    +0.000 A 
ATOM      7  N   UNL     1       1.429   0.000   0.000  0.00  0.00    +0.000 N 
ATOM      8  C   UNL     1       2.143  -0.412   0.000  0.00  0.00    +0.000 A 
ATOM      9  C   UNL     1       2.143  -1.238   0.000  0.00  0.00    +0.000 A 
ATOM     10  C   UNL     1       1.429  -1.650   0.000  0.00  0.00    +0.000 A 
ATOM     11  O   UNL     1       1.429  -2.475   0.000  0.00  0.00    +0.000 OA
ENDROOT
BRANCH   1  17
ATOM     12  C   UNL     1      -3.897   1.865   0.000  0.00  0.00    +0.000 C 
ATOM     13  C   UNL     1      -3.643   1.080   0.000  0.00  0.00    +0.000 C 
ATOM     14  C   UNL     1      -2.858   0.825   0.000  0.00  0.00    +0.000 A 
ATOM     15  C   UNL     1      -2.143   1.238   0.000  0.00  0.00    +0.000 A 
ATOM     16  C   UNL     1      -1.429   0.825   0.000  0.00  0.00    +0.000 A 
ATOM     17  C   UNL     1      -1.429   0.000   0.000  0.00  0.00    +0.000 A 
ATOM     18  C   UNL     1      -2.143  -0.412   0.000  0.00  0.00    +0.000 A 
ATOM     19  C   UNL     1      -2.858   0.000   0.000  0.00  0.00    +0.000 A 
ATOM     20  C   UNL     1      -3.643  -0.255   0.000  0.00  0.00    +0.000 C 
ATOM     21  N   UNL     1      -4.127   0.412   0.000  0.00  0.00    +0.000 NA
ENDBRANCH   1  17
BRANCH   9  22
ATOM     22  C   UNL     1       2.858  -1.650   0.000  0.00  0.00    +0.000 C 
ATOM     23  O   UNL     1       3.572  -1.238   0.000  0.00  0.00    +0.000 OA
ATOM     24  O   UNL     1       2.858  -2.475   0.000  0.00  0.00    +0.000 OA
ENDBRANCH   9  22
BRANCH   7  25
ATOM     25  C   UNL     1       1.429   0.825   0.000  0.00  0.00    +0.000 C 
ATOM     26  C   UNL     1       1.016   1.540   0.000  0.00  0.00    +0.000 C 
ATOM     27  C   UNL     1       1.841   1.540   0.000  0.00  0.00    +0.000 C 
ENDBRANCH   7  25
BRANCH   6  28
ATOM     28  O   UNL     1       0.000   0.825   0.000  0.00  0.00    +0.000 OA
BRANCH  28  29
ATOM     29  C   UNL     1      -0.715   1.238   0.000  0.00  0.00    +0.000 C 
ATOM     30  F   UNL     1      -1.535   1.324   0.000  0.00  0.00    +0.000 F 
ATOM     31  F   UNL     1      -0.715   2.062   0.000  0.00  0.00    +0.000 F 
ENDBRANCH  28  29
ENDBRANCH   6  28
TORSDOF 5
