REMARK  Name = 
REMARK  5 active torsions:
REMARK  status: ('A' for Active; 'I' for Inactive)
REMARK    1  A    between atoms: C_1  and  C_3
REMARK    2  A    between atoms: C_3  and  C_5
REMARK    3  A    between atoms: C_5  and  C_6
REMARK    4  A    between atoms: C_6  and  C_7
REMARK    5  A    between atoms: C_7  and  N_8
REMARK                            x       y       z     vdW  Elec       q    Type
REMARK                         _______ _______ _______ _____ _____    ______ ____
ROOT
ATOM      1  C   UNL     1       0.709   0.211   0.000  0.00  0.00    +0.000 C 
ENDROOT
BRANCH   1   2
ATOM      2  C   UNL     1       1.418  -0.211   0.000  0.00  0.00    +0.000 C 
ATOM      3  N   UNL     1       1.418  -1.035   0.000  0.00  0.00    +0.000 NA
BRANCH   2   4
ATOM      4  C   UNL     1       2.146   0.211   0.000  0.00  0.00    +0.000 C 
ATOM      5  O   UNL     1       2.146   1.035   0.000  0.00  0.00    +0.000 OA
ATOM      6  N   UNL     1       2.875  -0.211   0.000  0.00  0.00    +0.000 NA
ENDBRANCH   2   4
ENDBRANCH   1   2
BRANCH   1   7
ATOM      7  C   UNL     1      -0.019  -0.211   0.000  0.00  0.00    +0.000 C 
BRANCH   7   8
ATOM      8  C   UNL     1      -0.728   0.211   0.000  0.00  0.00    +0.000 C 
BRANCH   8   9
ATOM      9  N   UNL     1      -1.437  -0.211   0.000  0.00  0.00    +0.000 NA
ATOM     10  C   UNL     1      -2.166   0.192   0.000  0.00  0.00    +0.000 C 
ATOM     11  N   UNL     1      -2.875  -0.230   0.000  0.00  0.00    +0.000 NA
ATOM     12  N   UNL     1      -2.166   1.035   0.000  0.00  0.00    +0.000 NA
ENDBRANCH   8   9
ENDBRANCH   7   8
ENDBRANCH   1   7
TORSDOF 5
