REMARK  Name = 
REMARK  8 active torsions:
REMARK  status: ('A' for Active; 'I' for Inactive)
REMARK    1  A    between atoms: S_2  and  C_3
REMARK    2  A    between atoms: C_3  and  C_5
REMARK    3  A    between atoms: C_6  and  C_7
REMARK    4  A    between atoms: C_7  and  C_8
REMARK    5  A    between atoms: C_11  and  C_12
REMARK    6  A    between atoms: C_12  and  S_14
REMARK    7  A    between atoms: C_16  and  C_23
REMARK    8  A    between atoms: C_18  and  C_19
REMARK                            x       y       z     vdW  Elec       q    Type
REMARK                         _______ _______ _______ _____ _____    ______ ____
ROOT
ATOM      1  C   UNL     1       0.715   1.238   0.000  0.00  0.00    +0.000 A 
ATOM      2  C   UNL     1       1.429   0.825   0.000  0.00  0.00    +0.000 A 
ATOM      3  C   UNL     1       1.429   0.000   0.000  0.00  0.00    +0.000 A 
ATOM      4  C   UNL     1       0.715  -0.412   0.000  0.00  0.00    +0.000 A 
ATOM      5  N   UNL     1       0.000   0.000   0.000  0.00  0.00    +0.000 NA
ATOM      6  C   UNL     1       0.000   0.825   0.000  0.00  0.00    +0.000 A 
ENDROOT
BRANCH   6   7
ATOM      7  C   UNL     1      -0.715   1.238   0.000  0.00  0.00    +0.000 C 
ATOM      8  F   UNL     1      -1.429   1.650   0.000  0.00  0.00    +0.000 F 
ATOM      9  F   UNL     1      -0.302   1.952   0.000  0.00  0.00    +0.000 F 
ATOM     10  F   UNL     1      -1.127   0.523   0.000  0.00  0.00    +0.000 F 
ENDBRANCH   6   7
BRANCH   4  11
ATOM     11  C   UNL     1       0.715  -1.238   0.000  0.00  0.00    +0.000 C 
ATOM     12  F   UNL     1       0.000  -1.650   0.000  0.00  0.00    +0.000 F 
ATOM     13  F   UNL     1       1.429  -1.650   0.000  0.00  0.00    +0.000 F 
ENDBRANCH   4  11
BRANCH   1  14
ATOM     14  C   UNL     1       0.715   2.062   0.000  0.00  0.00    +0.000 C 
ATOM     15  O   UNL     1       0.000   2.475   0.000  0.00  0.00    +0.000 OA
BRANCH  14  17
ATOM     16  C   UNL     1       1.429   3.300   0.000  0.00  0.00    +0.000 C 
ATOM     17  S   UNL     1       1.429   2.475   0.000  0.00  0.00    +0.000 S 
ENDBRANCH  14  17
ENDBRANCH   1  14
BRANCH   3  18
ATOM     18  C   UNL     1       2.143  -0.412   0.000  0.00  0.00    +0.000 C 
ATOM     19  O   UNL     1       2.143  -1.238   0.000  0.00  0.00    +0.000 OA
BRANCH  18  20
ATOM     20  S   UNL     1       2.858   0.000   0.000  0.00  0.00    +0.000 S 
ATOM     21  C   UNL     1       3.572  -0.412   0.000  0.00  0.00    +0.000 C 
ENDBRANCH  18  20
ENDBRANCH   3  18
BRANCH   2  22
ATOM     22  C   UNL     1       2.143   1.238   0.000  0.00  0.00    +0.000 C 
BRANCH  22  23
ATOM     23  C   UNL     1       2.858   0.825   0.000  0.00  0.00    +0.000 C 
ATOM     24  C   UNL     1       3.572   1.238   0.000  0.00  0.00    +0.000 C 
ATOM     25  C   UNL     1       3.343   0.158   0.000  0.00  0.00    +0.000 C 
ENDBRANCH  22  23
ENDBRANCH   2  22
TORSDOF 8
