REMARK  Name = 
REMARK  8 active torsions:
REMARK  status: ('A' for Active; 'I' for Inactive)
REMARK    1  A    between atoms: C_2  and  C_3
REMARK    2  A    between atoms: C_3  and  N_4
REMARK    3  A    between atoms: N_9  and  C_12
REMARK    4  A    between atoms: C_12  and  C_13
REMARK    5  A    between atoms: C_16  and  C_18
REMARK    6  A    between atoms: C_21  and  C_26
REMARK    7  A    between atoms: C_26  and  C_27
REMARK    8  A    between atoms: C_27  and  C_28
REMARK                            x       y       z     vdW  Elec       q    Type
REMARK                         _______ _______ _______ _____ _____    ______ ____
ROOT
ATOM      1  N   UNL     1      -3.552  -3.414   0.000  0.00  0.00    +0.000 N 
ATOM      2  C   UNL     1      -3.140  -2.699   0.000  0.00  0.00    +0.000 A 
ATOM      3  C   UNL     1      -2.315  -2.699   0.000  0.00  0.00    +0.000 A 
ATOM      4  C   UNL     1      -1.902  -3.414   0.000  0.00  0.00    +0.000 A 
ATOM      5  O   UNL     1      -1.077  -3.414   0.000  0.00  0.00    +0.000 OA
ATOM      6  N   UNL     1      -2.315  -4.128   0.000  0.00  0.00    +0.000 N 
ATOM      7  C   UNL     1      -3.140  -4.128   0.000  0.00  0.00    +0.000 A 
ATOM      8  O   UNL     1      -3.552  -4.843   0.000  0.00  0.00    +0.000 OA
ATOM      9  N   UNL     1      -2.060  -1.915   0.000  0.00  0.00    +0.000 NA
ATOM     10  C   UNL     1      -2.727  -1.430   0.000  0.00  0.00    +0.000 A 
ATOM     11  N   UNL     1      -3.395  -1.915   0.000  0.00  0.00    +0.000 NA
ENDROOT
BRANCH  10  12
ATOM     12  C   UNL     1      -2.727  -0.605   0.000  0.00  0.00    +0.000 C 
ATOM     13  C   UNL     1      -3.442  -0.192   0.000  0.00  0.00    +0.000 C 
ATOM     14  C   UNL     1      -3.442   0.633   0.000  0.00  0.00    +0.000 C 
ATOM     15  C   UNL     1      -2.727   1.045   0.000  0.00  0.00    +0.000 C 
ATOM     16  C   UNL     1      -2.013   0.633   0.000  0.00  0.00    +0.000 C 
ATOM     17  C   UNL     1      -2.013  -0.192   0.000  0.00  0.00    +0.000 C 
ATOM     18  C   UNL     1      -2.590   0.495   0.000  0.00  0.00    +0.000 C 
ATOM     19  C   UNL     1      -2.590  -0.055   0.000  0.00  0.00    +0.000 C 
BRANCH  15  20
ATOM     20  C   UNL     1      -2.727   1.870   0.000  0.00  0.00    +0.000 C 
BRANCH  20  21
ATOM     21  C   UNL     1      -3.442   2.283   0.000  0.00  0.00    +0.000 C 
BRANCH  21  22
ATOM     22  C   UNL     1      -3.442   3.108   0.000  0.00  0.00    +0.000 C 
ATOM     23  O   UNL     1      -4.156   3.520   0.000  0.00  0.00    +0.000 OA
ATOM     24  O   UNL     1      -2.727   3.520   0.000  0.00  0.00    +0.000 OA
ENDBRANCH  21  22
ENDBRANCH  20  21
ENDBRANCH  15  20
ENDBRANCH  10  12
BRANCH   6  25
ATOM     25  C   UNL     1      -1.902  -4.843   0.000  0.00  0.00    +0.000 C 
BRANCH  25  26
ATOM     26  C   UNL     1      -2.315  -5.557   0.000  0.00  0.00    +0.000 C 
ATOM     27  C   UNL     1      -1.902  -6.272   0.000  0.00  0.00    +0.000 C 
ENDBRANCH  25  26
ENDBRANCH   6  25
BRANCH   1  28
ATOM     28  C   UNL     1      -4.377  -3.414   0.000  0.00  0.00    +0.000 C 
BRANCH  28  30
ATOM     29  C   UNL     1      -5.615  -4.128   0.000  0.00  0.00    +0.000 C 
ATOM     30  C   UNL     1      -4.790  -4.128   0.000  0.00  0.00    +0.000 C 
ENDBRANCH  28  30
ENDBRANCH   1  28
TORSDOF 8
