REMARK  Name = 
REMARK  17 active torsions:
REMARK  status: ('A' for Active; 'I' for Inactive)
REMARK    1  A    between atoms: C_2  and  C_4
REMARK    2  A    between atoms: C_4  and  N_5
REMARK    3  A    between atoms: N_5  and  C_6
REMARK    4  A    between atoms: N_5  and  S_35
REMARK    5  A    between atoms: C_6  and  C_7
REMARK    6  A    between atoms: C_6  and  C_33
REMARK    7  A    between atoms: C_7  and  C_8
REMARK    8  A    between atoms: C_8  and  C_9
REMARK    9  A    between atoms: C_9  and  C_10
REMARK   10  A    between atoms: C_10  and  N_11
REMARK   11  A    between atoms: C_12  and  C_14
REMARK   12  A    between atoms: C_14  and  C_15
REMARK   13  A    between atoms: C_14  and  N_28
REMARK   14  A    between atoms: C_15  and  C_16
REMARK   15  A    between atoms: C_15  and  C_22
REMARK   16  A    between atoms: C_29  and  O_31
REMARK   17  A    between atoms: S_35  and  C_38
REMARK                            x       y       z     vdW  Elec       q    Type
REMARK                         _______ _______ _______ _____ _____    ______ ____
ROOT
ATOM      1  C   UNL     1      -0.680  -1.731   0.000  0.00  0.00    +0.000 C 
ENDROOT
BRANCH   1   2
ATOM      2  N   UNL     1       0.130  -1.575   0.000  0.00  0.00    +0.000 NA
ATOM      3  C   UNL     1       0.400  -0.795   0.000  0.00  0.00    +0.000 C 
ATOM      4  O   UNL     1      -0.140  -0.172   0.000  0.00  0.00    +0.000 OA
BRANCH   3   5
ATOM      5  C   UNL     1       1.210  -0.640   0.000  0.00  0.00    +0.000 C 
BRANCH   5   6
ATOM      6  N   UNL     1       1.750  -1.263   0.000  0.00  0.00    +0.000 NA
ATOM      7  C   UNL     1       1.480  -2.043   0.000  0.00  0.00    +0.000 C 
ATOM      8  O   UNL     1       0.670  -2.199   0.000  0.00  0.00    +0.000 OA
BRANCH   7   9
ATOM      9  O   UNL     1       2.020  -2.666   0.000  0.00  0.00    +0.000 OA
ATOM     10  C   UNL     1       1.750  -3.446   0.000  0.00  0.00    +0.000 C 
ENDBRANCH   7   9
ENDBRANCH   5   6
BRANCH   5  11
ATOM     11  C   UNL     1       1.480   0.140   0.000  0.00  0.00    +0.000 C 
BRANCH  11  12
ATOM     12  C   UNL     1       0.940   0.764   0.000  0.00  0.00    +0.000 A 
ATOM     13  C   UNL     1       0.130   0.608   0.000  0.00  0.00    +0.000 A 
ATOM     14  C   UNL     1      -0.410   1.231   0.000  0.00  0.00    +0.000 A 
ATOM     15  C   UNL     1      -0.140   2.011   0.000  0.00  0.00    +0.000 A 
ATOM     16  C   UNL     1       0.670   2.167   0.000  0.00  0.00    +0.000 A 
ATOM     17  C   UNL     1       1.210   1.543   0.000  0.00  0.00    +0.000 A 
ENDBRANCH  11  12
BRANCH  11  18
ATOM     18  C   UNL     1       2.290   0.296   0.000  0.00  0.00    +0.000 A 
ATOM     19  C   UNL     1       2.560   1.075   0.000  0.00  0.00    +0.000 A 
ATOM     20  C   UNL     1       3.370   1.231   0.000  0.00  0.00    +0.000 A 
ATOM     21  C   UNL     1       3.910   0.608   0.000  0.00  0.00    +0.000 A 
ATOM     22  C   UNL     1       3.640  -0.172   0.000  0.00  0.00    +0.000 A 
ATOM     23  C   UNL     1       2.830  -0.328   0.000  0.00  0.00    +0.000 A 
ENDBRANCH  11  18
ENDBRANCH   5  11
ENDBRANCH   3   5
ENDBRANCH   1   2
BRANCH   1  24
ATOM     24  C   UNL     1      -0.950  -2.510   0.000  0.00  0.00    +0.000 C 
BRANCH  24  25
ATOM     25  C   UNL     1      -1.760  -2.666   0.000  0.00  0.00    +0.000 C 
BRANCH  25  26
ATOM     26  C   UNL     1      -2.031  -3.446   0.000  0.00  0.00    +0.000 C 
BRANCH  26  27
ATOM     27  C   UNL     1      -2.841  -3.602   0.000  0.00  0.00    +0.000 C 
BRANCH  27  28
ATOM     28  C   UNL     1      -3.381  -2.978   0.000  0.00  0.00    +0.000 C 
ATOM     29  O   UNL     1      -3.111  -2.199   0.000  0.00  0.00    +0.000 OA
ENDBRANCH  27  28
BRANCH  27  30
ATOM     30  N   UNL     1      -3.111  -4.381   0.000  0.00  0.00    +0.000 NA
BRANCH  30  31
ATOM     31  S   UNL     1      -3.921  -4.537   0.000  0.00  0.00    +0.000 S 
ATOM     32  O   UNL     1      -4.731  -4.693   0.000  0.00  0.00    +0.000 OA
ATOM     33  O   UNL     1      -4.077  -3.727   0.000  0.00  0.00    +0.000 OA
BRANCH  31  34
ATOM     34  C   UNL     1      -3.765  -5.348   0.000  0.00  0.00    +0.000 A 
ATOM     35  C   UNL     1      -2.985  -5.617   0.000  0.00  0.00    +0.000 A 
ATOM     36  C   UNL     1      -2.829  -6.428   0.000  0.00  0.00    +0.000 A 
ATOM     37  C   UNL     1      -3.453  -6.968   0.000  0.00  0.00    +0.000 A 
ATOM     38  C   UNL     1      -4.233  -6.698   0.000  0.00  0.00    +0.000 A 
ATOM     39  C   UNL     1      -4.389  -5.888   0.000  0.00  0.00    +0.000 A 
ATOM     40  N   UNL     1      -3.297  -7.778   0.000  0.00  0.00    +0.000 NA
ENDBRANCH  31  34
ENDBRANCH  30  31
BRANCH  30  41
ATOM     41  C   UNL     1      -2.571  -5.005   0.000  0.00  0.00    +0.000 C 
BRANCH  41  43
ATOM     42  C   UNL     1      -1.490  -4.070   0.000  0.00  0.00    +0.000 C 
ATOM     43  C   UNL     1      -1.760  -4.849   0.000  0.00  0.00    +0.000 C 
ATOM     44  C   UNL     1      -1.220  -5.473   0.000  0.00  0.00    +0.000 C 
ENDBRANCH  41  43
ENDBRANCH  30  41
ENDBRANCH  27  30
ENDBRANCH  26  27
ENDBRANCH  25  26
ENDBRANCH  24  25
ENDBRANCH   1  24
TORSDOF 17
