REMARK  Name = 
REMARK  13 active torsions:
REMARK  status: ('A' for Active; 'I' for Inactive)
REMARK    1  A    between atoms: C_2  and  C_3
REMARK    2  A    between atoms: C_3  and  C_4
REMARK    3  A    between atoms: C_4  and  C_5
REMARK    4  A    between atoms: C_5  and  C_6
REMARK    5  A    between atoms: C_6  and  C_7
REMARK    6  A    between atoms: C_8  and  C_9
REMARK    7  A    between atoms: C_14  and  C_15
REMARK    8  A    between atoms: C_16  and  C_17
REMARK    9  A    between atoms: C_17  and  C_18
REMARK   10  A    between atoms: C_18  and  C_19
REMARK   11  A    between atoms: C_19  and  C_20
REMARK   12  A    between atoms: C_20  and  C_21
REMARK   13  A    between atoms: C_21  and  C_22
REMARK                            x       y       z     vdW  Elec       q    Type
REMARK                         _______ _______ _______ _____ _____    ______ ____
ROOT
ATOM      1  C   UNL     1       2.858   1.650   0.000  0.00  0.00    +0.000 A 
ATOM      2  C   UNL     1       2.858   2.475   0.000  0.00  0.00    +0.000 A 
ATOM      3  C   UNL     1       3.572   2.888   0.000  0.00  0.00    +0.000 A 
ATOM      4  C   UNL     1       4.287   2.475   0.000  0.00  0.00    +0.000 A 
ATOM      5  C   UNL     1       4.287   1.650   0.000  0.00  0.00    +0.000 A 
ATOM      6  C   UNL     1       3.572   1.238   0.000  0.00  0.00    +0.000 A 
ENDROOT
BRANCH   1   8
ATOM      7  C   UNL     1       1.429   1.650   0.000  0.00  0.00    +0.000 C 
ATOM      8  C   UNL     1       2.143   1.238   0.000  0.00  0.00    +0.000 C 
BRANCH   7   9
ATOM      9  C   UNL     1       0.715   1.238   0.000  0.00  0.00    +0.000 C 
ATOM     10  O   UNL     1       0.715   0.412   0.000  0.00  0.00    +0.000 OA
BRANCH   9  11
ATOM     11  C   UNL     1       0.000   1.650   0.000  0.00  0.00    +0.000 C 
BRANCH  11  12
ATOM     12  C   UNL     1      -0.715   1.238   0.000  0.00  0.00    +0.000 C 
BRANCH  12  13
ATOM     13  C   UNL     1      -1.429   1.650   0.000  0.00  0.00    +0.000 C 
BRANCH  13  15
ATOM     14  C   UNL     1      -2.858   1.650   0.000  0.00  0.00    +0.000 C 
ATOM     15  C   UNL     1      -2.143   1.238   0.000  0.00  0.00    +0.000 C 
ENDBRANCH  13  15
ENDBRANCH  12  13
ENDBRANCH  11  12
ENDBRANCH   9  11
ENDBRANCH   7   9
ENDBRANCH   1   8
BRANCH   6  16
ATOM     16  C   UNL     1       3.572   0.412   0.000  0.00  0.00    +0.000 C 
ATOM     17  C   UNL     1       2.858   0.000   0.000  0.00  0.00    +0.000 C 
BRANCH  17  18
ATOM     18  C   UNL     1       2.858  -0.825   0.000  0.00  0.00    +0.000 C 
ATOM     19  O   UNL     1       2.143  -1.238   0.000  0.00  0.00    +0.000 OA
BRANCH  18  20
ATOM     20  C   UNL     1       3.572  -1.238   0.000  0.00  0.00    +0.000 C 
ATOM     21  O   UNL     1       3.572  -2.062   0.000  0.00  0.00    +0.000 OA
BRANCH  20  22
ATOM     22  C   UNL     1       4.287  -0.825   0.000  0.00  0.00    +0.000 C 
BRANCH  22  23
ATOM     23  C   UNL     1       5.001  -1.238   0.000  0.00  0.00    +0.000 C 
BRANCH  23  24
ATOM     24  C   UNL     1       5.716  -0.825   0.000  0.00  0.00    +0.000 C 
BRANCH  24  25
ATOM     25  C   UNL     1       6.430  -1.238   0.000  0.00  0.00    +0.000 C 
ATOM     26  O   UNL     1       7.145  -0.825   0.000  0.00  0.00    +0.000 OA
ATOM     27  O   UNL     1       6.430  -2.062   0.000  0.00  0.00    +0.000 OA
ENDBRANCH  24  25
ENDBRANCH  23  24
ENDBRANCH  22  23
ENDBRANCH  20  22
ENDBRANCH  18  20
ENDBRANCH  17  18
ENDBRANCH   6  16
TORSDOF 13
