REMARK  Name = 
REMARK  1 active torsions:
REMARK  status: ('A' for Active; 'I' for Inactive)
REMARK    1  A    between atoms: C_5  and  C_11
REMARK                            x       y       z     vdW  Elec       q    Type
REMARK                         _______ _______ _______ _____ _____    ______ ____
ROOT
ATOM      1  C   UNL     1       0.357  -0.412   0.000  0.00  0.00    +0.000 C 
ATOM      2  O   UNL     1       0.357  -1.237   0.000  0.00  0.00    +0.000 OA
ATOM      3  C   UNL     1      -0.357   0.000   0.000  0.00  0.00    +0.000 C 
ATOM      4  O   UNL     1      -1.072  -0.412   0.000  0.00  0.00    +0.000 OA
ATOM      5  C   UNL     1      -0.357   0.825   0.000  0.00  0.00    +0.000 C 
ATOM      6  C   UNL     1       1.072   0.825   0.000  0.00  0.00    +0.000 C 
ATOM      7  O   UNL     1       1.786   1.237   0.000  0.00  0.00    +0.000 OA
ATOM      8  O   UNL     1       1.786  -0.412   0.000  0.00  0.00    +0.000 OA
ATOM      9  O   UNL     1       0.357   1.237   0.000  0.00  0.00    +0.000 OA
ATOM     10  C   UNL     1       1.072   0.000   0.000  0.00  0.00    +0.000 C 
ENDROOT
BRANCH   5  11
ATOM     11  C   UNL     1      -1.072   1.237   0.000  0.00  0.00    +0.000 C 
ATOM     12  O   UNL     1      -1.786   0.825   0.000  0.00  0.00    +0.000 OA
ENDBRANCH   5  11
TORSDOF 1
