REMARK  Name = 
REMARK  0 active torsions:
REMARK  status: ('A' for Active; 'I' for Inactive)
REMARK                            x       y       z     vdW  Elec       q    Type
REMARK                         _______ _______ _______ _____ _____    ______ ____
ROOT
ATOM      1 SI   UNL     1      -1.490   0.568   0.000  0.00  0.00    +0.000 Si
ATOM      2  O   UNL     1      -0.776   0.971   0.000  0.00  0.00    +0.000 OA
ATOM      3  O   UNL     1      -1.490  -0.285   0.000  0.00  0.00    +0.000 OA
ATOM      4  C   UNL     1      -2.308   0.568   0.000  0.00  0.00    +0.000 C 
ATOM      5  C   UNL     1      -1.901   1.282   0.000  0.00  0.00    +0.000 C 
ATOM      6 SI   UNL     1      -0.031   0.992   0.000  0.00  0.00    +0.000 Si
ATOM      7 SI   UNL     1      -0.738  -0.719   0.000  0.00  0.00    +0.000 Si
ATOM      8  O   UNL     1       0.793   0.992   0.000  0.00  0.00    +0.000 OA
ATOM      9  C   UNL     1      -0.031   0.468   0.000  0.00  0.00    +0.000 C 
ATOM     10  C   UNL     1      -0.031   1.634   0.000  0.00  0.00    +0.000 C 
ATOM     11  O   UNL     1       0.000  -0.730   0.000  0.00  0.00    +0.000 OA
ATOM     12  C   UNL     1      -0.776  -1.606   0.000  0.00  0.00    +0.000 C 
ATOM     13  C   UNL     1      -1.532  -1.195   0.000  0.00  0.00    +0.000 C 
ATOM     14 SI   UNL     1       1.473   0.568   0.000  0.00  0.00    +0.000 Si
ATOM     15 SI   UNL     1       0.738  -0.719   0.000  0.00  0.00    +0.000 Si
ATOM     16  O   UNL     1       1.473  -0.285   0.000  0.00  0.00    +0.000 OA
ATOM     17  C   UNL     1       1.887   1.282   0.000  0.00  0.00    +0.000 C 
ATOM     18  C   UNL     1       2.308   0.568   0.000  0.00  0.00    +0.000 C 
ATOM     19  C   UNL     1       1.749  -1.230   0.000  0.00  0.00    +0.000 C 
ATOM     20  C   UNL     1       0.745  -1.634   0.000  0.00  0.00    +0.000 C 
ENDROOT
TORSDOF 0
