REMARK  Name = 
REMARK  11 active torsions:
REMARK  status: ('A' for Active; 'I' for Inactive)
REMARK    1  A    between atoms: N_7  and  C_15
REMARK    2  A    between atoms: N_8  and  C_26
REMARK    3  A    between atoms: N_10  and  C_33
REMARK    4  A    between atoms: C_21  and  C_22
REMARK    5  A    between atoms: C_21  and  C_23
REMARK    6  A    between atoms: C_21  and  C_29
REMARK    7  A    between atoms: C_23  and  C_24
REMARK    8  A    between atoms: C_24  and  C_26
REMARK    9  A    between atoms: C_25  and  C_31
REMARK   10  A    between atoms: C_29  and  C_32
REMARK   11  A    between atoms: C_34  and  C_37
REMARK                            x       y       z     vdW  Elec       q    Type
REMARK                         _______ _______ _______ _____ _____    ______ ____
ROOT
ATOM      1  O   UNL     1      -1.429   3.110   0.000  0.00  0.00    +0.000 OA
ATOM      2  N   UNL     1      -0.714   0.222   0.000  0.00  0.00    +0.000 NA
ATOM      3  N   UNL     1      -0.714   1.872   0.000  0.00  0.00    +0.000 N 
ATOM      4  C   UNL     1      -1.429   0.635   0.000  0.00  0.00    +0.000 C 
ATOM      5  C   UNL     1       0.000   0.635   0.000  0.00  0.00    +0.000 C 
ATOM      6  C   UNL     1      -1.429   1.460   0.000  0.00  0.00    +0.000 C 
ATOM      7  C   UNL     1       0.000   1.460   0.000  0.00  0.00    +0.000 C 
ATOM      8  C   UNL     1      -0.714   2.697   0.000  0.00  0.00    +0.000 C 
ENDROOT
BRANCH   8  14
ATOM      9 CL   UNL     1       0.714   5.172   0.000  0.00  0.00    +0.000 Cl
ATOM     10  N   UNL     1       2.143   4.347   0.000  0.00  0.00    +0.000 N 
ATOM     11  N   UNL     1       3.572   5.172   0.000  0.00  0.00    +0.000 NA
ATOM     12  N   UNL     1       0.000   3.935   0.000  0.00  0.00    +0.000 NA
ATOM     13  N   UNL     1       1.429   3.110   0.000  0.00  0.00    +0.000 NA
ATOM     14  C   UNL     1       0.000   3.110   0.000  0.00  0.00    +0.000 A 
ATOM     15  C   UNL     1       2.143   5.172   0.000  0.00  0.00    +0.000 C 
ATOM     16  C   UNL     1       2.858   3.935   0.000  0.00  0.00    +0.000 C 
ATOM     17  C   UNL     1       0.714   2.697   0.000  0.00  0.00    +0.000 A 
ATOM     18  C   UNL     1       2.858   5.585   0.000  0.00  0.00    +0.000 C 
ATOM     19  C   UNL     1       3.572   4.347   0.000  0.00  0.00    +0.000 C 
ATOM     20  C   UNL     1       1.429   3.935   0.000  0.00  0.00    +0.000 A 
ATOM     21  C   UNL     1       0.714   4.347   0.000  0.00  0.00    +0.000 A 
ATOM     22  C   UNL     1       4.287   5.585   0.000  0.00  0.00    +0.000 C 
ENDBRANCH   8  14
BRANCH   4  25
ATOM     23  O   UNL     1      -2.143  -0.603   0.000  0.00  0.00    +0.000 OA
ATOM     24  N   UNL     1      -2.858   0.635   0.000  0.00  0.00    +0.000 N 
ATOM     25  C   UNL     1      -2.143   0.222   0.000  0.00  0.00    +0.000 C 
ATOM     26  H   UNL     1      -2.858   1.146   0.000  0.00  0.00    +0.000 HD
BRANCH  24  27
ATOM     27  C   UNL     1      -3.572   0.222   0.000  0.00  0.00    +0.000 C 
ATOM     28  C   UNL     1      -4.287  -0.190   0.000  0.00  0.00    +0.000 C 
ATOM     29  C   UNL     1      -3.985   0.937   0.000  0.00  0.00    +0.000 C 
ATOM     30  C   UNL     1      -3.160  -0.492   0.000  0.00  0.00    +0.000 C 
ENDBRANCH  24  27
ENDBRANCH   4  25
BRANCH   2  31
ATOM     31  C   UNL     1      -0.714  -0.603   0.000  0.00  0.00    +0.000 C 
BRANCH  31  33
ATOM     32  O   UNL     1       0.714  -0.603   0.000  0.00  0.00    +0.000 OA
ATOM     33  C   UNL     1       0.000  -1.015   0.000  0.00  0.00    +0.000 C 
BRANCH  33  34
ATOM     34  C   UNL     1       0.000  -1.840   0.000  0.00  0.00    +0.000 C 
BRANCH  34  35
ATOM     35  C   UNL     1       0.714  -2.253   0.000  0.00  0.00    +0.000 C 
BRANCH  35  38
ATOM     36  O   UNL     1       1.429  -3.490   0.000  0.00  0.00    +0.000 OA
ATOM     37  N   UNL     1       0.000  -3.490   0.000  0.00  0.00    +0.000 N 
ATOM     38  C   UNL     1       0.714  -3.078   0.000  0.00  0.00    +0.000 C 
ATOM     39  H   UNL     1      -0.443  -3.234   0.000  0.00  0.00    +0.000 HD
BRANCH  37  41
ATOM     40  O   UNL     1      -1.452  -4.545   0.000  0.00  0.00    +0.000 OA
ATOM     41  C   UNL     1       0.000  -4.315   0.000  0.00  0.00    +0.000 C 
ATOM     42  C   UNL     1       0.667  -4.800   0.000  0.00  0.00    +0.000 C 
ATOM     43  C   UNL     1      -0.667  -4.800   0.000  0.00  0.00    +0.000 C 
ATOM     44  C   UNL     1       0.412  -5.585   0.000  0.00  0.00    +0.000 C 
ATOM     45  C   UNL     1      -0.412  -5.585   0.000  0.00  0.00    +0.000 C 
ATOM     46  C   UNL     1       1.452  -4.545   0.000  0.00  0.00    +0.000 C 
ENDBRANCH  37  41
ENDBRANCH  35  38
BRANCH  35  47
ATOM     47  C   UNL     1       1.429  -1.840   0.000  0.00  0.00    +0.000 C 
BRANCH  47  48
ATOM     48  C   UNL     1       2.143  -2.253   0.000  0.00  0.00    +0.000 A 
ATOM     49  C   UNL     1       2.858  -1.840   0.000  0.00  0.00    +0.000 A 
ATOM     50  C   UNL     1       2.143  -3.078   0.000  0.00  0.00    +0.000 A 
ATOM     51  C   UNL     1       3.572  -2.253   0.000  0.00  0.00    +0.000 A 
ATOM     52  C   UNL     1       2.858  -3.490   0.000  0.00  0.00    +0.000 A 
ATOM     53  C   UNL     1       3.572  -3.078   0.000  0.00  0.00    +0.000 A 
ENDBRANCH  47  48
ENDBRANCH  35  47
ENDBRANCH  34  35
ENDBRANCH  33  34
ENDBRANCH  31  33
ENDBRANCH   2  31
TORSDOF 11
