REMARK  Name = 
REMARK  2 active torsions:
REMARK  status: ('A' for Active; 'I' for Inactive)
REMARK    1  A    between atoms: C_2  and  C_8
REMARK    2  A    between atoms: C_4  and  C_6
REMARK                            x       y       z     vdW  Elec       q    Type
REMARK                         _______ _______ _______ _____ _____    ______ ____
ROOT
ATOM      1  C   UNL     1       0.980  -0.155   0.000  0.00  0.00    +0.000 C 
ATOM      2  C   UNL     1       0.155  -0.155   0.000  0.00  0.00    +0.000 C 
ATOM      3  O   UNL     1      -0.100   0.629   0.000  0.00  0.00    +0.000 OA
ATOM      4  C   UNL     1       0.568   1.114   0.000  0.00  0.00    +0.000 C 
ATOM      5  O   UNL     1       1.235   0.629   0.000  0.00  0.00    +0.000 OA
ENDROOT
BRANCH   4   6
ATOM      6  C   UNL     1       0.568   1.939   0.000  0.00  0.00    +0.000 C 
ATOM      7  I   UNL     1       1.282   2.352   0.000  0.00  0.00    +0.000 I 
ENDBRANCH   4   6
BRANCH   2   8
ATOM      8  C   UNL     1      -0.330  -0.823   0.000  0.00  0.00    +0.000 C 
ATOM      9  O   UNL     1       0.006  -1.576   0.000  0.00  0.00    +0.000 OA
ENDBRANCH   2   8
TORSDOF 2
