REMARK  Name = 
REMARK  4 active torsions:
REMARK  status: ('A' for Active; 'I' for Inactive)
REMARK    1  A    between atoms: C_3  and  C_15
REMARK    2  A    between atoms: N_7  and  O_10
REMARK    3  A    between atoms: O_10  and  S_11
REMARK    4  A    between atoms: N_17  and  C_18
REMARK                            x       y       z     vdW  Elec       q    Type
REMARK                         _______ _______ _______ _____ _____    ______ ____
ROOT
ATOM      1  C   UNL     1       2.080   0.172   0.000  0.00  0.00    +0.000 C 
ATOM      2  C   UNL     1       2.438   0.915   0.000  0.00  0.00    +0.000 C 
ATOM      3  C   UNL     1       2.080   1.659   0.000  0.00  0.00    +0.000 C 
ATOM      4  N   UNL     1       1.276   1.842   0.000  0.00  0.00    +0.000 N 
ATOM      5  C   UNL     1       1.044   0.915   0.000  0.00  0.00    +0.000 C 
ATOM      6  C   UNL     1       1.276  -0.011   0.000  0.00  0.00    +0.000 C 
ATOM      7  N   UNL     1       0.631   0.503   0.000  0.00  0.00    +0.000 N 
ATOM      8  C   UNL     1       0.631   1.328   0.000  0.00  0.00    +0.000 C 
ATOM      9  O   UNL     1      -0.113   1.686   0.000  0.00  0.00    +0.000 OA
ENDROOT
BRANCH   3  10
ATOM     10  C   UNL     1       2.594   2.304   0.000  0.00  0.00    +0.000 C 
ATOM     11  O   UNL     1       3.410   2.181   0.000  0.00  0.00    +0.000 OA
ATOM     12  N   UNL     1       2.293   3.072   0.000  0.00  0.00    +0.000 NA
BRANCH  12  13
ATOM     13  C   UNL     1       2.807   3.717   0.000  0.00  0.00    +0.000 C 
ATOM     14  C   UNL     1       2.506   4.485   0.000  0.00  0.00    +0.000 C 
ATOM     15  C   UNL     1       3.020   5.130   0.000  0.00  0.00    +0.000 C 
ATOM     16  N   UNL     1       3.836   5.007   0.000  0.00  0.00    +0.000 NA
ATOM     17  C   UNL     1       4.138   4.239   0.000  0.00  0.00    +0.000 C 
ATOM     18  C   UNL     1       3.623   3.594   0.000  0.00  0.00    +0.000 C 
ENDBRANCH  12  13
ENDBRANCH   3  10
BRANCH   7  19
ATOM     19  O   UNL     1      -0.113   0.145   0.000  0.00  0.00    +0.000 OA
BRANCH  19  20
ATOM     20  S   UNL     1      -0.174  -0.678   0.000  0.00  0.00    +0.000 S 
ATOM     21  O   UNL     1      -0.236  -1.500   0.000  0.00  0.00    +0.000 OA
ATOM     22  O   UNL     1       0.648  -0.739   0.000  0.00  0.00    +0.000 OA
ATOM     23  O   UNL     1      -0.997  -0.616   0.000  0.00  0.00    +0.000 OA
ENDBRANCH  19  20
ENDBRANCH   7  19
TORSDOF 4
