REMARK  Name = 
REMARK  7 active torsions:
REMARK  status: ('A' for Active; 'I' for Inactive)
REMARK    1  A    between atoms: N_1  and  C_2
REMARK    2  A    between atoms: C_2  and  C_5
REMARK    3  A    between atoms: N_8  and  C_11
REMARK    4  A    between atoms: C_11  and  C_12
REMARK    5  A    between atoms: C_12  and  O_13
REMARK    6  A    between atoms: O_13  and  C_14
REMARK    7  A    between atoms: C_14  and  C_15
REMARK                            x       y       z     vdW  Elec       q    Type
REMARK                         _______ _______ _______ _____ _____    ______ ____
ROOT
ATOM      1  C   UNL     1      -1.070   0.490   0.000  0.00  0.00    +0.000 C 
ATOM      2  N   UNL     1      -0.347   0.887   0.000  0.00  0.00    +0.000 NA
ATOM      3  O   UNL     1      -1.070  -0.329   0.000  0.00  0.00    +0.000 OA
ENDROOT
BRANCH   2   4
ATOM      4  C   UNL     1       0.364   0.469   0.000  0.00  0.00    +0.000 C 
BRANCH   4   5
ATOM      5  C   UNL     1       1.093   0.873   0.000  0.00  0.00    +0.000 C 
BRANCH   5   6
ATOM      6  O   UNL     1       1.811   0.467   0.000  0.00  0.00    +0.000 OA
BRANCH   6   7
ATOM      7  C   UNL     1       2.532   0.869   0.000  0.00  0.00    +0.000 C 
ATOM      8  O   UNL     1       2.542   1.698   0.000  0.00  0.00    +0.000 OA
BRANCH   7   9
ATOM      9  C   UNL     1       3.240   0.445   0.000  0.00  0.00    +0.000 C 
ATOM     10  C   UNL     1       3.940   0.881   0.000  0.00  0.00    +0.000 C 
ENDBRANCH   7   9
ENDBRANCH   6   7
ENDBRANCH   5   6
ENDBRANCH   4   5
ENDBRANCH   2   4
BRANCH   1  11
ATOM     11  C   UNL     1      -1.786   0.899   0.000  0.00  0.00    +0.000 C 
BRANCH  11  12
ATOM     12  N   UNL     1      -2.504   0.493   0.000  0.00  0.00    +0.000 N 
ATOM     13  C   UNL     1      -3.222   0.897   0.000  0.00  0.00    +0.000 A 
ATOM     14  C   UNL     1      -2.515  -0.325   0.000  0.00  0.00    +0.000 A 
ATOM     15  C   UNL     1      -3.940   0.521   0.000  0.00  0.00    +0.000 A 
ATOM     16  C   UNL     1      -3.222  -0.729   0.000  0.00  0.00    +0.000 A 
ATOM     17  C   UNL     1      -3.929  -0.304   0.000  0.00  0.00    +0.000 A 
ENDBRANCH  11  12
ENDBRANCH   1  11
TORSDOF 7
REMARK  Name = 
REMARK  7 active torsions:
REMARK  status: ('A' for Active; 'I' for Inactive)
REMARK    1  A    between atoms: N_1  and  C_2
REMARK    2  A    between atoms: C_2  and  C_5
REMARK    3  A    between atoms: N_8  and  C_11
REMARK    4  A    between atoms: C_11  and  C_12
REMARK    5  A    between atoms: C_12  and  O_13
REMARK    6  A    between atoms: O_13  and  C_14
REMARK    7  A    between atoms: C_14  and  C_15
REMARK                            x       y       z     vdW  Elec       q    Type
REMARK                         _______ _______ _______ _____ _____    ______ ____
ROOT
ATOM      1 CL   UNL     1      -1.867  -1.698   0.000  0.00  0.00    +0.000 Cl
ENDROOT
TORSDOF 0
