REMARK  Name = 
REMARK  5 active torsions:
REMARK  status: ('A' for Active; 'I' for Inactive)
REMARK    1  A    between atoms: C_5  and  C_26
REMARK    2  A    between atoms: C_6  and  C_8
REMARK    3  A    between atoms: C_12  and  C_17
REMARK    4  A    between atoms: C_17  and  O_18
REMARK    5  A    between atoms: O_18  and  C_19
REMARK                            x       y       z     vdW  Elec       q    Type
REMARK                         _______ _______ _______ _____ _____    ______ ____
ROOT
ATOM      1  C   UNL     1      -0.715  -2.888   0.000  0.00  0.00    +0.000 C 
ATOM      2  O   UNL     1      -0.715  -3.712   0.000  0.00  0.00    +0.000 OA
ATOM      3  N   UNL     1      -1.429  -2.475   0.000  0.00  0.00    +0.000 N 
ATOM      4  C   UNL     1      -2.143  -2.888   0.000  0.00  0.00    +0.000 C 
ATOM      5  C   UNL     1      -2.858  -2.475   0.000  0.00  0.00    +0.000 C 
ATOM      6  C   UNL     1      -2.858  -1.650   0.000  0.00  0.00    +0.000 C 
ATOM      7  C   UNL     1      -2.143  -1.238   0.000  0.00  0.00    +0.000 C 
ATOM      8  C   UNL     1      -1.429  -1.650   0.000  0.00  0.00    +0.000 C 
ATOM      9  C   UNL     1      -0.715  -1.238   0.000  0.00  0.00    +0.000 C 
ENDROOT
BRANCH   1  15
ATOM     10  C   UNL     1       0.715  -0.412   0.000  0.00  0.00    +0.000 C 
ATOM     11  C   UNL     1       0.715  -1.238   0.000  0.00  0.00    +0.000 A 
ATOM     12  C   UNL     1       1.429  -1.650   0.000  0.00  0.00    +0.000 A 
ATOM     13  C   UNL     1       1.429  -2.475   0.000  0.00  0.00    +0.000 A 
ATOM     14  C   UNL     1       0.715  -2.888   0.000  0.00  0.00    +0.000 A 
ATOM     15  C   UNL     1       0.000  -2.475   0.000  0.00  0.00    +0.000 A 
ATOM     16  C   UNL     1       0.000  -1.650   0.000  0.00  0.00    +0.000 A 
BRANCH  14  17
ATOM     17  C   UNL     1       0.715  -3.712   0.000  0.00  0.00    +0.000 A 
ATOM     18  N   UNL     1       1.429  -4.125   0.000  0.00  0.00    +0.000 NA
ATOM     19  C   UNL     1       1.429  -4.950   0.000  0.00  0.00    +0.000 A 
ATOM     20  C   UNL     1       0.715  -5.362   0.000  0.00  0.00    +0.000 A 
ATOM     21  C   UNL     1       0.000  -4.950   0.000  0.00  0.00    +0.000 A 
ATOM     22  N   UNL     1       0.000  -4.125   0.000  0.00  0.00    +0.000 NA
ENDBRANCH  14  17
ENDBRANCH   1  15
BRANCH   5  23
ATOM     23  C   UNL     1      -3.572  -2.888   0.000  0.00  0.00    +0.000 C 
BRANCH  23  24
ATOM     24  O   UNL     1      -4.287  -2.475   0.000  0.00  0.00    +0.000 OA
BRANCH  24  25
ATOM     25  C   UNL     1      -5.001  -2.888   0.000  0.00  0.00    +0.000 A 
ATOM     26  C   UNL     1      -5.001  -3.712   0.000  0.00  0.00    +0.000 A 
ATOM     27  C   UNL     1      -5.716  -4.125   0.000  0.00  0.00    +0.000 A 
ATOM     28  C   UNL     1      -6.430  -3.712   0.000  0.00  0.00    +0.000 A 
ATOM     29  C   UNL     1      -6.430  -2.888   0.000  0.00  0.00    +0.000 A 
ATOM     30  N   UNL     1      -5.716  -2.475   0.000  0.00  0.00    +0.000 NA
ATOM     31  F   UNL     1      -7.145  -4.125   0.000  0.00  0.00    +0.000 F 
ENDBRANCH  24  25
ENDBRANCH  23  24
ENDBRANCH   5  23
TORSDOF 5
