REMARK  Name = 
REMARK  13 active torsions:
REMARK  status: ('A' for Active; 'I' for Inactive)
REMARK    1  A    between atoms: N_1  and  C_30
REMARK    2  A    between atoms: C_2  and  C_3
REMARK    3  A    between atoms: C_3  and  C_4
REMARK    4  A    between atoms: C_3  and  O_11
REMARK    5  A    between atoms: C_4  and  C_5
REMARK    6  A    between atoms: C_5  and  C_6
REMARK    7  A    between atoms: C_6  and  C_7
REMARK    8  A    between atoms: C_6  and  O_16
REMARK    9  A    between atoms: N_8  and  C_9
REMARK   10  A    between atoms: O_11  and  C_12
REMARK   11  A    between atoms: C_12  and  C_13
REMARK   12  A    between atoms: O_16  and  C_17
REMARK   13  A    between atoms: C_17  and  C_18
REMARK                            x       y       z     vdW  Elec       q    Type
REMARK                         _______ _______ _______ _____ _____    ______ ____
ROOT
ATOM      1  C   UNL     1      -0.655   0.153   0.000  0.00  0.00    +0.000 C 
ATOM      2  O   UNL     1      -0.655   0.887   0.000  0.00  0.00    +0.000 OA
ENDROOT
BRANCH   1   3
ATOM      3  C   UNL     1       0.339  -0.311   0.000  0.00  0.00    +0.000 C 
ATOM      4  O   UNL     1       0.339  -1.023   0.000  0.00  0.00    +0.000 OA
BRANCH   3   5
ATOM      5  C   UNL     1       1.232   0.175   0.000  0.00  0.00    +0.000 C 
BRANCH   5   6
ATOM      6  C   UNL     1       2.238  -0.333   0.000  0.00  0.00    +0.000 C 
ATOM      7  N   UNL     1       3.278   0.175   0.000  0.00  0.00    +0.000 NA
ATOM      8  O   UNL     1       2.238  -1.057   0.000  0.00  0.00    +0.000 OA
BRANCH   7   9
ATOM      9  C   UNL     1       4.171   0.051   0.000  0.00  0.00    +0.000 C 
ATOM     10  C   UNL     1       4.837   0.525   0.000  0.00  0.00    +0.000 C 
ATOM     11  C   UNL     1       4.419  -0.729   0.000  0.00  0.00    +0.000 A 
ATOM     12  C   UNL     1       5.493   0.051   0.000  0.00  0.00    +0.000 C 
ATOM     13  C   UNL     1       5.244  -0.729   0.000  0.00  0.00    +0.000 A 
ATOM     14  C   UNL     1       4.419  -2.153   0.000  0.00  0.00    +0.000 A 
ATOM     15  C   UNL     1       5.244  -2.153   0.000  0.00  0.00    +0.000 A 
ATOM     16  C   UNL     1       4.012  -1.441   0.000  0.00  0.00    +0.000 A 
ATOM     17  C   UNL     1       5.651  -1.441   0.000  0.00  0.00    +0.000 A 
ATOM     18  O   UNL     1       4.826   1.260   0.000  0.00  0.00    +0.000 OA
ENDBRANCH   7   9
ENDBRANCH   5   6
BRANCH   5  19
ATOM     19  O   UNL     1       1.232   0.944   0.000  0.00  0.00    +0.000 OA
BRANCH  19  20
ATOM     20  C   UNL     1       2.001   1.373   0.000  0.00  0.00    +0.000 C 
BRANCH  20  21
ATOM     21  C   UNL     1       2.001   2.232   0.000  0.00  0.00    +0.000 A 
ATOM     22  C   UNL     1       2.712   3.464   0.000  0.00  0.00    +0.000 A 
ATOM     23  C   UNL     1       2.712   2.639   0.000  0.00  0.00    +0.000 A 
ATOM     24  C   UNL     1       2.001   3.871   0.000  0.00  0.00    +0.000 A 
ATOM     25  C   UNL     1       1.288   3.464   0.000  0.00  0.00    +0.000 A 
ATOM     26  C   UNL     1       1.288   2.639   0.000  0.00  0.00    +0.000 A 
ATOM     27  F   UNL     1       3.515   2.176   0.000  0.00  0.00    +0.000 F 
ENDBRANCH  20  21
ENDBRANCH  19  20
ENDBRANCH   5  19
ENDBRANCH   3   5
ENDBRANCH   1   3
BRANCH   1  28
ATOM     28  C   UNL     1      -1.548  -0.311   0.000  0.00  0.00    +0.000 C 
BRANCH  28  30
ATOM     29  N   UNL     1      -3.391  -0.311   0.000  0.00  0.00    +0.000 NA
ATOM     30  C   UNL     1      -2.486   0.153   0.000  0.00  0.00    +0.000 C 
ATOM     31  O   UNL     1      -2.486   0.910   0.000  0.00  0.00    +0.000 OA
BRANCH  29  32
ATOM     32  C   UNL     1      -4.159   0.040   0.000  0.00  0.00    +0.000 C 
ATOM     33  C   UNL     1      -5.493   0.040   0.000  0.00  0.00    +0.000 C 
ATOM     34  C   UNL     1      -4.826  -0.446   0.000  0.00  0.00    +0.000 C 
ATOM     35  C   UNL     1      -5.244   0.819   0.000  0.00  0.00    +0.000 A 
ATOM     36  C   UNL     1      -4.419   0.819   0.000  0.00  0.00    +0.000 A 
ATOM     37  C   UNL     1      -5.244   2.243   0.000  0.00  0.00    +0.000 A 
ATOM     38  C   UNL     1      -4.419   2.243   0.000  0.00  0.00    +0.000 A 
ATOM     39  C   UNL     1      -5.651   1.531   0.000  0.00  0.00    +0.000 A 
ATOM     40  C   UNL     1      -4.001   1.531   0.000  0.00  0.00    +0.000 A 
ATOM     41  O   UNL     1      -4.837  -1.339   0.000  0.00  0.00    +0.000 OA
ENDBRANCH  29  32
ENDBRANCH  28  30
BRANCH  28  42
ATOM     42  O   UNL     1      -1.548  -1.057   0.000  0.00  0.00    +0.000 OA
BRANCH  42  43
ATOM     43  C   UNL     1      -2.215  -1.509   0.000  0.00  0.00    +0.000 C 
BRANCH  43  44
ATOM     44  C   UNL     1      -2.215  -2.221   0.000  0.00  0.00    +0.000 A 
ATOM     45  C   UNL     1      -1.503  -2.639   0.000  0.00  0.00    +0.000 A 
ATOM     46  C   UNL     1      -1.503  -3.464   0.000  0.00  0.00    +0.000 A 
ATOM     47  C   UNL     1      -2.215  -3.871   0.000  0.00  0.00    +0.000 A 
ATOM     48  C   UNL     1      -2.927  -2.639   0.000  0.00  0.00    +0.000 A 
ATOM     49  C   UNL     1      -2.927  -3.464   0.000  0.00  0.00    +0.000 A 
ATOM     50  F   UNL     1      -3.786  -2.311   0.000  0.00  0.00    +0.000 F 
ENDBRANCH  43  44
ENDBRANCH  42  43
ENDBRANCH  28  42
ENDBRANCH   1  28
TORSDOF 13
