REMARK  Name = 
REMARK  7 active torsions:
REMARK  status: ('A' for Active; 'I' for Inactive)
REMARK    1  A    between atoms: N_3  and  C_6
REMARK    2  A    between atoms: C_5  and  C_7
REMARK    3  A    between atoms: C_7  and  C_10
REMARK    4  A    between atoms: C_23  and  C_25
REMARK    5  A    between atoms: C_26  and  C_27
REMARK    6  A    between atoms: C_28  and  C_30
REMARK    7  A    between atoms: C_30  and  C_31
REMARK                            x       y       z     vdW  Elec       q    Type
REMARK                         _______ _______ _______ _____ _____    ______ ____
ROOT
ATOM      1  C   UNL     1       2.302   0.131   0.000  0.00  0.00    +0.000 C 
ATOM      2  C   UNL     1       2.770   1.378   0.000  0.00  0.00    +0.000 C 
ATOM      3  N   UNL     1       3.170   0.120   0.000  0.00  0.00    +0.000 N 
ATOM      4  O   UNL     1       1.875  -0.462   0.000  0.00  0.00    +0.000 OA
ATOM      5  C   UNL     1       3.422   0.991   0.000  0.00  0.00    +0.000 C 
ATOM      6  O   UNL     1       2.770   2.203   0.000  0.00  0.00    +0.000 OA
ATOM      7  C   UNL     1       2.105   0.919   0.000  0.00  0.00    +0.000 C 
ATOM      8  C   UNL     1       1.390   1.332   0.000  0.00  0.00    +0.000 C 
ATOM      9  O   UNL     1       1.390   2.157   0.000  0.00  0.00    +0.000 OA
ENDROOT
BRANCH   3  10
ATOM     10  C   UNL     1       3.582  -0.594   0.000  0.00  0.00    +0.000 C 
ATOM     11  O   UNL     1       3.169  -1.309   0.000  0.00  0.00    +0.000 OA
ATOM     12  C   UNL     1       4.399  -0.594   0.000  0.00  0.00    +0.000 C 
ATOM     13  C   UNL     1       3.571  -2.022   0.000  0.00  0.00    +0.000 C 
ATOM     14  C   UNL     1       4.810  -1.308   0.000  0.00  0.00    +0.000 C 
ATOM     15  C   UNL     1       4.398  -2.019   0.000  0.00  0.00    +0.000 C 
ATOM     16  C   UNL     1       3.164  -2.740   0.000  0.00  0.00    +0.000 C 
ATOM     17  O   UNL     1       4.809  -2.732   0.000  0.00  0.00    +0.000 OA
ENDBRANCH   3  10
BRANCH   5  18
ATOM     18  C   UNL     1       4.101   1.465   0.000  0.00  0.00    +0.000 C 
ATOM     19  C   UNL     1       4.828   1.026   0.000  0.00  0.00    +0.000 C 
BRANCH  18  20
ATOM     20  C   UNL     1       4.095   2.115   0.000  0.00  0.00    +0.000 C 
ATOM     21  N   UNL     1       4.903   2.511   0.000  0.00  0.00    +0.000 NA
ATOM     22  O   UNL     1       3.301   2.540   0.000  0.00  0.00    +0.000 OA
ATOM     23  C   UNL     1       5.714   2.108   0.000  0.00  0.00    +0.000 C 
ENDBRANCH  18  20
ENDBRANCH   5  18
BRANCH   8  24
ATOM     24  C   UNL     1       0.675   0.919   0.000  0.00  0.00    +0.000 C 
ATOM     25  C   UNL     1      -0.039   1.332   0.000  0.00  0.00    +0.000 C 
BRANCH  25  26
ATOM     26  C   UNL     1      -0.753   0.919   0.000  0.00  0.00    +0.000 C 
ATOM     27  C   UNL     1      -1.468   1.332   0.000  0.00  0.00    +0.000 C 
ATOM     28  C   UNL     1      -0.753   0.094   0.000  0.00  0.00    +0.000 C 
BRANCH  27  29
ATOM     29  C   UNL     1      -2.182   0.919   0.000  0.00  0.00    +0.000 C 
ATOM     30  C   UNL     1      -2.182   0.094   0.000  0.00  0.00    +0.000 C 
BRANCH  29  31
ATOM     31  C   UNL     1      -2.897   1.332   0.000  0.00  0.00    +0.000 C 
ATOM     32  C   UNL     1      -2.897   2.157   0.000  0.00  0.00    +0.000 C 
ATOM     33  C   UNL     1      -3.480   2.740   0.000  0.00  0.00    +0.000 C 
ATOM     34  C   UNL     1      -4.306   2.740   0.000  0.00  0.00    +0.000 C 
ATOM     35  C   UNL     1      -4.889   2.157   0.000  0.00  0.00    +0.000 C 
ATOM     36  C   UNL     1      -4.306   0.748   0.000  0.00  0.00    +0.000 C 
ATOM     37  O   UNL     1      -3.480   0.748   0.000  0.00  0.00    +0.000 OA
ATOM     38  C   UNL     1      -2.135   2.472   0.000  0.00  0.00    +0.000 C 
ATOM     39  C   UNL     1      -5.301   0.617   0.000  0.00  0.00    +0.000 C 
ATOM     40  O   UNL     1      -5.714   1.332   0.000  0.00  0.00    +0.000 OA
ATOM     41  C   UNL     1      -4.889   1.332   0.000  0.00  0.00    +0.000 C 
ATOM     42  O   UNL     1      -3.601   1.616   0.000  0.00  0.00    +0.000 OA
ATOM     43  C   UNL     1      -4.519  -0.049   0.000  0.00  0.00    +0.000 C 
ENDBRANCH  29  31
ENDBRANCH  27  29
ENDBRANCH  25  26
ENDBRANCH   8  24
TORSDOF 7
