REMARK  Name = 
REMARK  6 active torsions:
REMARK  status: ('A' for Active; 'I' for Inactive)
REMARK    1  A    between atoms: C_1  and  C_10
REMARK    2  A    between atoms: C_1  and  C_11
REMARK    3  A    between atoms: C_10  and  N_34
REMARK    4  A    between atoms: C_11  and  N_35
REMARK    5  A    between atoms: C_28  and  N_36
REMARK    6  A    between atoms: C_29  and  N_37
REMARK                            x       y       z     vdW  Elec       q    Type
REMARK                         _______ _______ _______ _____ _____    ______ ____
ROOT
ATOM      1  C   UNL     1       1.429   0.206   0.000  0.00  0.00    +0.000 C 
ENDROOT
BRANCH   1   2
ATOM      2  C   UNL     1       2.143   0.619   0.000  0.00  0.00    +0.000 C 
BRANCH   2   7
ATOM      3  C   UNL     1       2.858   1.856   0.000  0.00  0.00    +0.000 C 
ATOM      4  C   UNL     1       1.429   1.856   0.000  0.00  0.00    +0.000 C 
ATOM      5  C   UNL     1       2.858   2.681   0.000  0.00  0.00    +0.000 C 
ATOM      6  C   UNL     1       1.429   2.681   0.000  0.00  0.00    +0.000 C 
ATOM      7  N   UNL     1       2.143   1.444   0.000  0.00  0.00    +0.000 NA
ATOM      8  N   UNL     1       2.143   3.094   0.000  0.00  0.00    +0.000 N 
BRANCH   8  17
ATOM      9  C   UNL     1       0.000   4.331   0.000  0.00  0.00    +0.000 A 
ATOM     10  C   UNL     1       0.714   3.919   0.000  0.00  0.00    +0.000 A 
ATOM     11  C   UNL     1       2.858   4.331   0.000  0.00  0.00    +0.000 A 
ATOM     12  C   UNL     1       2.858   5.156   0.000  0.00  0.00    +0.000 A 
ATOM     13  C   UNL     1       0.714   5.569   0.000  0.00  0.00    +0.000 A 
ATOM     14  C   UNL     1       0.000   5.156   0.000  0.00  0.00    +0.000 A 
ATOM     15  C   UNL     1       1.429   4.331   0.000  0.00  0.00    +0.000 A 
ATOM     16  C   UNL     1       1.429   5.156   0.000  0.00  0.00    +0.000 A 
ATOM     17  C   UNL     1       2.143   3.919   0.000  0.00  0.00    +0.000 A 
ATOM     18 CL   UNL     1      -0.714   5.569   0.000  0.00  0.00    +0.000 Cl
ATOM     19  N   UNL     1       2.143   5.569   0.000  0.00  0.00    +0.000 NA
ENDBRANCH   8  17
ENDBRANCH   2   7
ENDBRANCH   1   2
BRANCH   1  20
ATOM     20  C   UNL     1       1.429  -0.619   0.000  0.00  0.00    +0.000 C 
BRANCH  20  25
ATOM     21  C   UNL     1       0.000  -0.619   0.000  0.00  0.00    +0.000 C 
ATOM     22  C   UNL     1       0.714  -1.856   0.000  0.00  0.00    +0.000 C 
ATOM     23  C   UNL     1      -0.714  -1.031   0.000  0.00  0.00    +0.000 C 
ATOM     24  C   UNL     1       0.000  -2.269   0.000  0.00  0.00    +0.000 C 
ATOM     25  N   UNL     1       0.714  -1.031   0.000  0.00  0.00    +0.000 NA
ATOM     26  N   UNL     1      -0.714  -1.856   0.000  0.00  0.00    +0.000 N 
BRANCH  26  35
ATOM     27  C   UNL     1      -0.714  -4.331   0.000  0.00  0.00    +0.000 A 
ATOM     28  C   UNL     1      -0.714  -3.506   0.000  0.00  0.00    +0.000 A 
ATOM     29  C   UNL     1      -2.143  -1.856   0.000  0.00  0.00    +0.000 A 
ATOM     30  C   UNL     1      -2.858  -2.269   0.000  0.00  0.00    +0.000 A 
ATOM     31  C   UNL     1      -2.143  -4.331   0.000  0.00  0.00    +0.000 A 
ATOM     32  C   UNL     1      -1.429  -4.744   0.000  0.00  0.00    +0.000 A 
ATOM     33  C   UNL     1      -1.429  -3.094   0.000  0.00  0.00    +0.000 A 
ATOM     34  C   UNL     1      -2.143  -3.506   0.000  0.00  0.00    +0.000 A 
ATOM     35  C   UNL     1      -1.429  -2.269   0.000  0.00  0.00    +0.000 A 
ATOM     36 CL   UNL     1      -1.429  -5.569   0.000  0.00  0.00    +0.000 Cl
ATOM     37  N   UNL     1      -2.858  -3.094   0.000  0.00  0.00    +0.000 NA
ENDBRANCH  26  35
ENDBRANCH  20  25
ENDBRANCH   1  20
TORSDOF 6
