REMARK  Name = 
REMARK  2 active torsions:
REMARK  status: ('A' for Active; 'I' for Inactive)
REMARK    1  A    between atoms: C_1  and  C_4
REMARK    2  A    between atoms: C_8  and  O_10
REMARK                            x       y       z     vdW  Elec       q    Type
REMARK                         _______ _______ _______ _____ _____    ______ ____
ROOT
ATOM      1  C   UNL     1       0.422  -0.011   0.000  0.00  0.00    +0.000 A 
ATOM      2  C   UNL     1       0.000  -0.715   0.000  0.00  0.00    +0.000 A 
ATOM      3  C   UNL     1      -0.014   0.723   0.000  0.00  0.00    +0.000 A 
ATOM      4  C   UNL     1      -0.813  -0.723   0.000  0.00  0.00    +0.000 A 
ATOM      5  C   UNL     1      -0.827   0.720   0.000  0.00  0.00    +0.000 A 
ATOM      6  C   UNL     1      -1.238  -0.011   0.000  0.00  0.00    +0.000 A 
ENDROOT
BRANCH   1   7
ATOM      7  C   UNL     1       1.259  -0.011   0.000  0.00  0.00    +0.000 C 
ATOM      8  C   UNL     1       1.672  -0.710   0.000  0.00  0.00    +0.000 C 
ATOM      9  C   UNL     1       2.497  -0.710   0.000  0.00  0.00    +0.000 C 
ENDBRANCH   1   7
BRANCH   6  10
ATOM     10  O   UNL     1      -2.077  -0.011   0.000  0.00  0.00    +0.000 OA
ATOM     11  C   UNL     1      -2.497  -0.723   0.000  0.00  0.00    +0.000 C 
ENDBRANCH   6  10
TORSDOF 2
