REMARK  Name = 
REMARK  6 active torsions:
REMARK  status: ('A' for Active; 'I' for Inactive)
REMARK    1  A    between atoms: O_2  and  C_3
REMARK    2  A    between atoms: C_3  and  N_4
REMARK    3  A    between atoms: C_7  and  C_16
REMARK    4  A    between atoms: C_7  and  C_22
REMARK    5  A    between atoms: N_10  and  C_13
REMARK    6  A    between atoms: C_13  and  O_14
REMARK                            x       y       z     vdW  Elec       q    Type
REMARK                         _______ _______ _______ _____ _____    ______ ____
ROOT
ATOM      1  N   UNL     1       0.387  -2.378   0.000  0.00  0.00    +0.000 N 
ATOM      2  C   UNL     1       0.387  -1.553   0.000  0.00  0.00    +0.000 C 
ATOM      3  O   UNL     1      -0.327  -1.141   0.000  0.00  0.00    +0.000 OA
ATOM      4  C   UNL     1       1.102  -1.141   0.000  0.00  0.00    +0.000 C 
ATOM      5  C   UNL     1       1.816  -1.553   0.000  0.00  0.00    +0.000 C 
ATOM      6  O   UNL     1       2.531  -1.141   0.000  0.00  0.00    +0.000 OA
ATOM      7  N   UNL     1       1.816  -2.378   0.000  0.00  0.00    +0.000 N 
ATOM      8  C   UNL     1       1.102  -2.791   0.000  0.00  0.00    +0.000 C 
ATOM      9  O   UNL     1       1.102  -3.616   0.000  0.00  0.00    +0.000 OA
ENDROOT
BRANCH   4  10
ATOM     10  C   UNL     1       1.489  -0.412   0.000  0.00  0.00    +0.000 A 
ATOM     11  C   UNL     1       1.052   0.287   0.000  0.00  0.00    +0.000 A 
ATOM     12  C   UNL     1       1.439   1.016   0.000  0.00  0.00    +0.000 A 
ATOM     13  C   UNL     1       2.264   1.044   0.000  0.00  0.00    +0.000 A 
ATOM     14  C   UNL     1       2.701   0.345   0.000  0.00  0.00    +0.000 A 
ATOM     15  C   UNL     1       2.314  -0.384   0.000  0.00  0.00    +0.000 A 
ENDBRANCH   4  10
BRANCH   4  16
ATOM     16  C   UNL     1       0.508  -0.568   0.000  0.00  0.00    +0.000 A 
ATOM     17  C   UNL     1      -0.285  -0.795   0.000  0.00  0.00    +0.000 A 
ATOM     18  C   UNL     1      -0.878  -0.222   0.000  0.00  0.00    +0.000 A 
ATOM     19  C   UNL     1      -0.679   0.578   0.000  0.00  0.00    +0.000 A 
ATOM     20  C   UNL     1       0.115   0.806   0.000  0.00  0.00    +0.000 A 
ATOM     21  C   UNL     1       0.708   0.233   0.000  0.00  0.00    +0.000 A 
ENDBRANCH   4  16
BRANCH   1  22
ATOM     22  C   UNL     1      -0.327  -2.791   0.000  0.00  0.00    +0.000 C 
BRANCH  22  24
ATOM     23  C   UNL     1      -1.042  -4.028   0.000  0.00  0.00    +0.000 C 
ATOM     24  O   UNL     1      -0.327  -3.616   0.000  0.00  0.00    +0.000 OA
ENDBRANCH  22  24
ENDBRANCH   1  22
BRANCH   7  25
ATOM     25  C   UNL     1       2.531  -2.791   0.000  0.00  0.00    +0.000 C 
BRANCH  25  26
ATOM     26  O   UNL     1       2.531  -3.616   0.000  0.00  0.00    +0.000 OA
ATOM     27  C   UNL     1       1.816  -4.028   0.000  0.00  0.00    +0.000 C 
ENDBRANCH  25  26
ENDBRANCH   7  25
TORSDOF 6
