REMARK  Name = 
REMARK  3 active torsions:
REMARK  status: ('A' for Active; 'I' for Inactive)
REMARK    1  A    between atoms: N_4  and  N_5
REMARK    2  A    between atoms: N_4  and  C_11
REMARK    3  A    between atoms: C_10  and  C_14
REMARK                            x       y       z     vdW  Elec       q    Type
REMARK                         _______ _______ _______ _____ _____    ______ ____
ROOT
ATOM      1  C   UNL     1       1.556   0.144   0.000  0.00  0.00    +0.000 A 
ATOM      2  C   UNL     1       0.842  -0.268   0.000  0.00  0.00    +0.000 A 
ATOM      3  C   UNL     1       2.271  -0.268   0.000  0.00  0.00    +0.000 A 
ATOM      4  C   UNL     1       0.842  -1.093   0.000  0.00  0.00    +0.000 A 
ATOM      5  C   UNL     1       2.271  -1.093   0.000  0.00  0.00    +0.000 A 
ATOM      6  C   UNL     1       1.556  -1.506   0.000  0.00  0.00    +0.000 A 
ENDROOT
BRANCH   1  10
ATOM      7  F   UNL     1       0.731   0.969   0.000  0.00  0.00    +0.000 F 
ATOM      8  F   UNL     1       1.556   1.794   0.000  0.00  0.00    +0.000 F 
ATOM      9  F   UNL     1       2.381   0.969   0.000  0.00  0.00    +0.000 F 
ATOM     10  C   UNL     1       1.556   0.969   0.000  0.00  0.00    +0.000 C 
ENDBRANCH   1  10
BRANCH   2  11
ATOM     11  N   UNL     1       0.127   0.144   0.000  0.00  0.00    +0.000 NA
BRANCH  11  12
ATOM     12  N   UNL     1      -0.587  -0.268   0.000  0.00  0.00    +0.000 NA
ATOM     13  N   UNL     1      -2.195   1.136   0.000  0.00  0.00    +0.000 NA
ATOM     14  N   UNL     1      -2.608   0.422   0.000  0.00  0.00    +0.000 NA
ATOM     15  N   UNL     1      -0.775   1.517   0.000  0.00  0.00    +0.000 NA
ATOM     16  N   UNL     1      -2.227  -0.998   0.000  0.00  0.00    +0.000 NA
ATOM     17  C   UNL     1      -1.302   0.144   0.000  0.00  0.00    +0.000 C 
ATOM     18  C   UNL     1      -1.388   0.965   0.000  0.00  0.00    +0.000 C 
ATOM     19  C   UNL     1      -2.056  -0.191   0.000  0.00  0.00    +0.000 C 
ENDBRANCH  11  12
ENDBRANCH   2  11
TORSDOF 3
