REMARK  Name = 
REMARK  8 active torsions:
REMARK  status: ('A' for Active; 'I' for Inactive)
REMARK    1  A    between atoms: C_2  and  C_4
REMARK    2  A    between atoms: C_7  and  C_8
REMARK    3  A    between atoms: C_8  and  N_9
REMARK    4  A    between atoms: N_15  and  C_16
REMARK    5  A    between atoms: C_16  and  C_17
REMARK    6  A    between atoms: C_20  and  O_21
REMARK    7  A    between atoms: O_21  and  C_22
REMARK    8  A    between atoms: C_25  and  C_28
REMARK                            x       y       z     vdW  Elec       q    Type
REMARK                         _______ _______ _______ _____ _____    ______ ____
ROOT
ATOM      1  C   UNL     1       2.307  -0.696   0.000  0.00  0.00    +0.000 C 
ENDROOT
BRANCH   1   8
ATOM      2  N   UNL     1       0.164   0.542   0.000  0.00  0.00    +0.000 NA
ATOM      3  C   UNL     1       0.164  -0.283   0.000  0.00  0.00    +0.000 C 
ATOM      4  C   UNL     1       0.878  -0.696   0.000  0.00  0.00    +0.000 C 
ATOM      5  C   UNL     1       0.672   0.129   0.000  0.00  0.00    +0.000 C 
ATOM      6  C   UNL     1       0.878   0.954   0.000  0.00  0.00    +0.000 C 
ATOM      7  C   UNL     1       1.593   0.542   0.000  0.00  0.00    +0.000 C 
ATOM      8  N   UNL     1       1.593  -0.283   0.000  0.00  0.00    +0.000 NA
BRANCH   2   9
ATOM      9  C   UNL     1      -0.551   0.954   0.000  0.00  0.00    +0.000 C 
BRANCH   9  13
ATOM     10  C   UNL     1      -0.551   3.429   0.000  0.00  0.00    +0.000 A 
ATOM     11  C   UNL     1       0.164   3.017   0.000  0.00  0.00    +0.000 A 
ATOM     12  C   UNL     1       0.164   2.192   0.000  0.00  0.00    +0.000 A 
ATOM     13  C   UNL     1      -0.551   1.779   0.000  0.00  0.00    +0.000 A 
ATOM     14  C   UNL     1      -1.265   2.192   0.000  0.00  0.00    +0.000 A 
ATOM     15  C   UNL     1      -1.265   3.017   0.000  0.00  0.00    +0.000 A 
BRANCH  10  17
ATOM     16  O   UNL     1      -1.265   4.667   0.000  0.00  0.00    +0.000 OA
ATOM     17  C   UNL     1      -0.551   4.254   0.000  0.00  0.00    +0.000 C 
ATOM     18  O   UNL     1       0.164   4.667   0.000  0.00  0.00    +0.000 OA
ENDBRANCH  10  17
ENDBRANCH   9  13
ENDBRANCH   2   9
ENDBRANCH   1   8
BRANCH   1  19
ATOM     19  C   UNL     1       2.307  -1.521   0.000  0.00  0.00    +0.000 A 
ATOM     20  C   UNL     1       3.021  -1.933   0.000  0.00  0.00    +0.000 A 
ATOM     21  C   UNL     1       3.021  -2.758   0.000  0.00  0.00    +0.000 A 
ATOM     22  C   UNL     1       2.307  -3.171   0.000  0.00  0.00    +0.000 A 
ATOM     23  C   UNL     1       1.593  -2.758   0.000  0.00  0.00    +0.000 A 
ATOM     24  C   UNL     1       1.593  -1.933   0.000  0.00  0.00    +0.000 A 
BRANCH  22  25
ATOM     25  O   UNL     1       2.307  -3.996   0.000  0.00  0.00    +0.000 OA
BRANCH  25  26
ATOM     26  C   UNL     1       1.593  -4.408   0.000  0.00  0.00    +0.000 A 
ATOM     27  C   UNL     1       1.593  -5.233   0.000  0.00  0.00    +0.000 A 
ATOM     28  C   UNL     1       0.878  -5.646   0.000  0.00  0.00    +0.000 A 
ATOM     29  C   UNL     1       0.164  -5.233   0.000  0.00  0.00    +0.000 A 
ATOM     30  C   UNL     1       0.164  -4.408   0.000  0.00  0.00    +0.000 A 
ATOM     31  C   UNL     1       0.878  -3.996   0.000  0.00  0.00    +0.000 A 
BRANCH  29  32
ATOM     32  C   UNL     1      -0.551  -5.646   0.000  0.00  0.00    +0.000 A 
ATOM     33  N   UNL     1      -0.637  -6.466   0.000  0.00  0.00    +0.000 NA
ATOM     34  C   UNL     1      -1.444  -6.638   0.000  0.00  0.00    +0.000 A 
ATOM     35  C   UNL     1      -1.857  -5.923   0.000  0.00  0.00    +0.000 A 
ATOM     36  O   UNL     1      -1.305  -5.310   0.000  0.00  0.00    +0.000 OA
ENDBRANCH  29  32
ENDBRANCH  25  26
ENDBRANCH  22  25
ENDBRANCH   1  19
TORSDOF 8
