REMARK  Name = 
REMARK  8 active torsions:
REMARK  status: ('A' for Active; 'I' for Inactive)
REMARK    1  A    between atoms: C_2  and  C_3
REMARK    2  A    between atoms: C_2  and  C_30
REMARK    3  A    between atoms: C_2  and  C_34
REMARK    4  A    between atoms: C_3  and  N_4
REMARK    5  A    between atoms: C_7  and  C_12
REMARK    6  A    between atoms: N_14  and  C_15
REMARK    7  A    between atoms: C_15  and  C_16
REMARK    8  A    between atoms: C_23  and  C_25
REMARK                            x       y       z     vdW  Elec       q    Type
REMARK                         _______ _______ _______ _____ _____    ______ ____
ROOT
ATOM      1  N   UNL     1       3.466   1.176   0.000  0.00  0.00    +0.000 NA
ATOM      2  C   UNL     1       2.751   0.763   0.000  0.00  0.00    +0.000 A 
ATOM      3  N   UNL     1       2.751  -0.062   0.000  0.00  0.00    +0.000 NA
ATOM      4  C   UNL     1       2.037  -0.474   0.000  0.00  0.00    +0.000 A 
ATOM      5  N   UNL     1       1.322  -0.062   0.000  0.00  0.00    +0.000 NA
ATOM      6  C   UNL     1       1.322   0.763   0.000  0.00  0.00    +0.000 A 
ATOM      7  C   UNL     1       2.037   1.176   0.000  0.00  0.00    +0.000 A 
ATOM      8  F   UNL     1       2.037   2.001   0.000  0.00  0.00    +0.000 F 
ENDROOT
BRANCH   4   9
ATOM      9  C   UNL     1       2.037  -1.299   0.000  0.00  0.00    +0.000 A 
ATOM     10  N   UNL     1       1.369  -1.784   0.000  0.00  0.00    +0.000 NA
ATOM     11  N   UNL     1       1.624  -2.569   0.000  0.00  0.00    +0.000 N 
ATOM     12  C   UNL     1       2.449  -2.569   0.000  0.00  0.00    +0.000 A 
ATOM     13  C   UNL     1       2.704  -1.784   0.000  0.00  0.00    +0.000 A 
BRANCH  12  14
ATOM     14  C   UNL     1       2.934  -3.236   0.000  0.00  0.00    +0.000 A 
ATOM     15  N   UNL     1       2.679  -4.021   0.000  0.00  0.00    +0.000 NA
ATOM     16  O   UNL     1       3.347  -4.506   0.000  0.00  0.00    +0.000 OA
ATOM     17  C   UNL     1       4.014  -4.021   0.000  0.00  0.00    +0.000 A 
ATOM     18  C   UNL     1       3.759  -3.236   0.000  0.00  0.00    +0.000 A 
ENDBRANCH  12  14
BRANCH  11  19
ATOM     19  C   UNL     1       1.139  -3.236   0.000  0.00  0.00    +0.000 C 
BRANCH  19  20
ATOM     20  C   UNL     1       0.319  -3.150   0.000  0.00  0.00    +0.000 A 
ATOM     21  C   UNL     1      -0.166  -3.817   0.000  0.00  0.00    +0.000 A 
ATOM     22  F   UNL     1       0.169  -4.571   0.000  0.00  0.00    +0.000 F 
ATOM     23  C   UNL     1      -0.987  -3.731   0.000  0.00  0.00    +0.000 A 
ATOM     24  C   UNL     1      -1.322  -2.977   0.000  0.00  0.00    +0.000 A 
ATOM     25  C   UNL     1      -0.837  -2.310   0.000  0.00  0.00    +0.000 A 
ATOM     26  C   UNL     1      -0.017  -2.396   0.000  0.00  0.00    +0.000 A 
ENDBRANCH  19  20
ENDBRANCH  11  19
ENDBRANCH   4   9
BRANCH   1  27
ATOM     27  C   UNL     1       4.180   0.763   0.000  0.00  0.00    +0.000 C 
BRANCH  27  29
ATOM     28  O   UNL     1       5.609   1.588   0.000  0.00  0.00    +0.000 OA
ATOM     29  C   UNL     1       4.895   1.176   0.000  0.00  0.00    +0.000 C 
BRANCH  29  30
ATOM     30  C   UNL     1       4.482   1.890   0.000  0.00  0.00    +0.000 C 
ATOM     31  F   UNL     1       4.070   2.605   0.000  0.00  0.00    +0.000 F 
ATOM     32  F   UNL     1       5.197   2.303   0.000  0.00  0.00    +0.000 F 
ATOM     33  F   UNL     1       3.768   1.478   0.000  0.00  0.00    +0.000 F 
ENDBRANCH  29  30
BRANCH  29  34
ATOM     34  C   UNL     1       5.307   0.461   0.000  0.00  0.00    +0.000 C 
ATOM     35  F   UNL     1       5.720  -0.253   0.000  0.00  0.00    +0.000 F 
ATOM     36  F   UNL     1       4.593   0.049   0.000  0.00  0.00    +0.000 F 
ATOM     37  F   UNL     1       6.022   0.874   0.000  0.00  0.00    +0.000 F 
ENDBRANCH  29  34
ENDBRANCH  27  29
ENDBRANCH   1  27
TORSDOF 8
