REMARK  Name = 
REMARK  7 active torsions:
REMARK  status: ('A' for Active; 'I' for Inactive)
REMARK    1  A    between atoms: C_5  and  N_39
REMARK    2  A    between atoms: C_18  and  O_35
REMARK    3  A    between atoms: C_19  and  O_31
REMARK    4  A    between atoms: C_24  and  O_26
REMARK    5  A    between atoms: O_31  and  C_32
REMARK    6  A    between atoms: N_39  and  C_40
REMARK    7  A    between atoms: C_40  and  C_41
REMARK                            x       y       z     vdW  Elec       q    Type
REMARK                         _______ _______ _______ _____ _____    ______ ____
ROOT
ATOM      1  C   UNL     1       2.441   0.545   0.000  0.00  0.00    +0.000 C 
ATOM      2  C   UNL     1       2.096  -0.204   0.000  0.00  0.00    +0.000 C 
ATOM      3  C   UNL     1       1.274  -0.132   0.000  0.00  0.00    +0.000 C 
ATOM      4  C   UNL     1       1.089   0.672   0.000  0.00  0.00    +0.000 A 
ATOM      5  C   UNL     1       0.441   1.184   0.000  0.00  0.00    +0.000 A 
ATOM      6  C   UNL     1       0.561   2.000   0.000  0.00  0.00    +0.000 A 
ATOM      7  C   UNL     1       1.328   2.304   0.000  0.00  0.00    +0.000 A 
ATOM      8  C   UNL     1       2.097   1.948   0.000  0.00  0.00    +0.000 A 
ATOM      9  C   UNL     1       1.796   1.097   0.000  0.00  0.00    +0.000 A 
ATOM     10  O   UNL     1       2.565   0.797   0.000  0.00  0.00    +0.000 OA
ATOM     11  N   UNL     1       2.901   2.133   0.000  0.00  0.00    +0.000 NA
ATOM     12  C   UNL     1       3.143   2.922   0.000  0.00  0.00    +0.000 C 
ATOM     13  O   UNL     1       2.580   3.525   0.000  0.00  0.00    +0.000 OA
ATOM     14  C   UNL     1       3.947   3.107   0.000  0.00  0.00    +0.000 C 
ATOM     15  C   UNL     1       4.188   3.896   0.000  0.00  0.00    +0.000 C 
ATOM     16  C   UNL     1       4.992   4.081   0.000  0.00  0.00    +0.000 C 
ATOM     17  C   UNL     1       5.554   3.478   0.000  0.00  0.00    +0.000 C 
ATOM     18  C   UNL     1       5.313   2.689   0.000  0.00  0.00    +0.000 C 
ATOM     19  C   UNL     1       5.875   2.085   0.000  0.00  0.00    +0.000 C 
ATOM     20  C   UNL     1       5.634   1.296   0.000  0.00  0.00    +0.000 C 
ATOM     21  C   UNL     1       4.830   1.111   0.000  0.00  0.00    +0.000 C 
ATOM     22  C   UNL     1       4.589   0.322   0.000  0.00  0.00    +0.000 C 
ATOM     23  C   UNL     1       3.785   0.137   0.000  0.00  0.00    +0.000 C 
ATOM     24  C   UNL     1       3.543  -0.652   0.000  0.00  0.00    +0.000 C 
ATOM     25  C   UNL     1       2.739  -0.837   0.000  0.00  0.00    +0.000 C 
ATOM     26  O   UNL     1       3.222   0.740   0.000  0.00  0.00    +0.000 OA
ATOM     27  C   UNL     1       5.151  -0.281   0.000  0.00  0.00    +0.000 C 
ATOM     28  C   UNL     1       6.196   0.693   0.000  0.00  0.00    +0.000 C 
ATOM     29  C   UNL     1       4.509   2.503   0.000  0.00  0.00    +0.000 C 
ATOM     30  O   UNL     1      -0.086   2.512   0.000  0.00  0.00    +0.000 OA
ENDROOT
BRANCH  18  31
ATOM     31  O   UNL     1       6.117   2.874   0.000  0.00  0.00    +0.000 OA
ATOM     32  C   UNL     1       6.359   3.663   0.000  0.00  0.00    +0.000 C 
ENDBRANCH  18  31
BRANCH  24  33
ATOM     33  O   UNL     1       4.106  -1.256   0.000  0.00  0.00    +0.000 OA
ATOM     34  C   UNL     1       3.864  -2.045   0.000  0.00  0.00    +0.000 C 
ENDBRANCH  24  33
BRANCH  19  35
ATOM     35  O   UNL     1       6.679   2.270   0.000  0.00  0.00    +0.000 OA
BRANCH  35  36
ATOM     36  C   UNL     1       7.242   1.667   0.000  0.00  0.00    +0.000 C 
ATOM     37  O   UNL     1       7.000   0.878   0.000  0.00  0.00    +0.000 OA
ATOM     38  N   UNL     1       8.046   1.852   0.000  0.00  0.00    +0.000 NA
ENDBRANCH  35  36
ENDBRANCH  19  35
BRANCH   5  39
ATOM     39  N   UNL     1      -0.325   0.879   0.000  0.00  0.00    +0.000 NA
BRANCH  39  40
ATOM     40  C   UNL     1      -0.972   1.391   0.000  0.00  0.00    +0.000 C 
BRANCH  40  41
ATOM     41  C   UNL     1      -0.853   2.207   0.000  0.00  0.00    +0.000 C 
ATOM     42  C   UNL     1      -1.500   2.719   0.000  0.00  0.00    +0.000 C 
ENDBRANCH  40  41
ENDBRANCH  39  40
ENDBRANCH   5  39
TORSDOF 7
