REMARK  Name = 
REMARK  41 active torsions:
REMARK  status: ('A' for Active; 'I' for Inactive)
REMARK    1  A    between atoms: S_1  and  S_2
REMARK    2  A    between atoms: S_1  and  C_39
REMARK    3  A    between atoms: S_2  and  C_40
REMARK    4  A    between atoms: N_13  and  C_27
REMARK    5  A    between atoms: N_13  and  C_29
REMARK    6  A    between atoms: N_14  and  C_28
REMARK    7  A    between atoms: N_14  and  C_30
REMARK    8  A    between atoms: N_15  and  C_33
REMARK    9  A    between atoms: N_16  and  C_34
REMARK   10  A    between atoms: N_17  and  C_37
REMARK   11  A    between atoms: N_18  and  C_38
REMARK   12  A    between atoms: N_19  and  C_53
REMARK   13  A    between atoms: N_20  and  C_54
REMARK   14  A    between atoms: N_21  and  C_45
REMARK   15  A    between atoms: N_22  and  C_46
REMARK   16  A    between atoms: N_23  and  CA_51
REMARK   17  A    between atoms: N_24  and  CA_52
REMARK   18  A    between atoms: C_25  and  C_27
REMARK   19  A    between atoms: C_25  and  C_35
REMARK   20  A    between atoms: C_26  and  C_28
REMARK   21  A    between atoms: C_26  and  C_36
REMARK   22  A    between atoms: C_29  and  C_31
REMARK   23  A    between atoms: C_30  and  C_32
REMARK   24  A    between atoms: C_31  and  C_37
REMARK   25  A    between atoms: C_32  and  C_38
REMARK   26  A    between atoms: C_33  and  C_39
REMARK   27  A    between atoms: C_33  and  C_47
REMARK   28  A    between atoms: C_34  and  C_40
REMARK   29  A    between atoms: C_34  and  C_48
REMARK   30  A    between atoms: C_35  and  C_45
REMARK   31  A    between atoms: C_36  and  C_46
REMARK   32  A    between atoms: C_41  and  C_43
REMARK   33  A    between atoms: C_41  and  C_49
REMARK   34  A    between atoms: C_42  and  C_44
REMARK   35  A    between atoms: C_42  and  C_50
REMARK   36  A    between atoms: C_43  and  CA_51
REMARK   37  A    between atoms: C_44  and  CA_52
REMARK   38  A    between atoms: CA_51  and  C_57
REMARK   39  A    between atoms: CA_52  and  C_58
REMARK   40  A    between atoms: C_53  and  C_55
REMARK   41  A    between atoms: C_54  and  C_56
REMARK                            x       y       z     vdW  Elec       q    Type
REMARK                         _______ _______ _______ _____ _____    ______ ____
ROOT
ATOM      1  S   UNL     1       0.000   0.903   0.000  0.00  0.00    +0.000 S 
ENDROOT
BRANCH   1   2
ATOM      2  S   UNL     1       0.000   1.728   0.000  0.00  0.00    +0.000 S 
BRANCH   2   3
ATOM      3  C   UNL     1       0.714   2.141   0.000  0.00  0.00    +0.000 C 
BRANCH   3   4
ATOM      4  C   UNL     1       0.714   2.966   0.000  0.00  0.00    +0.000 C 
BRANCH   4   7
ATOM      5  O   UNL     1       1.429   4.203   0.000  0.00  0.00    +0.000 OA
ATOM      6  N   UNL     1       2.143   2.966   0.000  0.00  0.00    +0.000 N 
ATOM      7  C   UNL     1       1.429   3.378   0.000  0.00  0.00    +0.000 C 
ATOM      8  H   UNL     1       2.143   2.454   0.000  0.00  0.00    +0.000 HD
BRANCH   6   9
ATOM      9  C   UNL     1       2.858   3.378   0.000  0.00  0.00    +0.000 C 
BRANCH   9  12
ATOM     10  O   UNL     1       3.572   2.141   0.000  0.00  0.00    +0.000 OA
ATOM     11  N   UNL     1       4.287   3.378   0.000  0.00  0.00    +0.000 N 
ATOM     12  C   UNL     1       3.572   2.966   0.000  0.00  0.00    +0.000 C 
ATOM     13  H   UNL     1       4.287   3.890   0.000  0.00  0.00    +0.000 HD
BRANCH  11  14
ATOM     14  C   UNL     1       5.001   2.966   0.000  0.00  0.00    +0.000 C 
BRANCH  14  15
ATOM     15  C   UNL     1       5.716   3.378   0.000  0.00  0.00    +0.000 C 
BRANCH  15  16
ATOM     16  C   UNL     1       6.430   2.966   0.000  0.00  0.00    +0.000 C 
BRANCH  16  17
ATOM     17  N   UNL     1       7.145   3.378   0.000  0.00  0.00    +0.000 NA
ATOM     18  H   UNL     1       7.145   3.890   0.000  0.00  0.00    +0.000 HD
BRANCH  17  19
ATOM     19  C   UNL     1       7.859   2.966   0.000  0.00  0.00    +0.000 C 
BRANCH  19  20
ATOM     20  C   UNL     1       8.574   3.378   0.000  0.00  0.00    +0.000 C 
BRANCH  20  21
ATOM     21  C   UNL     1       9.288   2.966   0.000  0.00  0.00    +0.000 C 
BRANCH  21  22
ATOM     22  C   UNL     1      10.003   3.378   0.000  0.00  0.00    +0.000 C 
BRANCH  22  23
ATOM     23  N   UNL     1      10.717   2.966   0.000  0.00  0.00    +0.000 NA
ATOM     24  H   UNL     1      10.717   2.454   0.000  0.00  0.00    +0.000 HD
ATOM     25  H   UNL     1      11.160   3.222   0.000  0.00  0.00    +0.000 HD
ENDBRANCH  22  23
ENDBRANCH  21  22
ENDBRANCH  20  21
ENDBRANCH  19  20
ENDBRANCH  17  19
ENDBRANCH  16  17
ENDBRANCH  15  16
ENDBRANCH  14  15
ENDBRANCH  11  14
ENDBRANCH   9  12
ENDBRANCH   6   9
ENDBRANCH   4   7
BRANCH   4  27
ATOM     26  O   UNL     1      -0.714   2.141   0.000  0.00  0.00    +0.000 OA
ATOM     27  N   UNL     1       0.000   3.378   0.000  0.00  0.00    +0.000 N 
ATOM     28  C   UNL     1      -0.714   2.966   0.000  0.00  0.00    +0.000 C 
ATOM     29  H   UNL     1       0.000   3.890   0.000  0.00  0.00    +0.000 HD
BRANCH  28  30
ATOM     30  C   UNL     1      -1.429   3.378   0.000  0.00  0.00    +0.000 C 
BRANCH  30  31
ATOM     31  C   UNL     1      -2.143   2.966   0.000  0.00  0.00    +0.000 C 
BRANCH  31  32
ATOM     32  CA  UNL     1      -2.858   3.378   0.000  0.00  0.00    +0.000 C 
BRANCH  32  33
ATOM     33  N   UNL     1      -2.858   4.203   0.000  0.00  0.00    +0.000 NA
ATOM     34  H1  UNL     1      -2.415   4.459   0.000  0.00  0.00    +0.000 HD
ATOM     35  H2  UNL     1      -3.301   4.459   0.000  0.00  0.00    +0.000 HD
ENDBRANCH  32  33
BRANCH  32  38
ATOM     36  O   UNL     1      -4.287   3.378   0.000  0.00  0.00    +0.000 OA
ATOM     37  OXT UNL     1      -3.572   2.141   0.000  0.00  0.00    +0.000 OA
ATOM     38  C   UNL     1      -3.572   2.966   0.000  0.00  0.00    +0.000 C 
ENDBRANCH  32  38
ENDBRANCH  31  32
ENDBRANCH  30  31
ENDBRANCH  28  30
ENDBRANCH   4  27
ENDBRANCH   3   4
ENDBRANCH   2   3
ENDBRANCH   1   2
BRANCH   1  39
ATOM     39  C   UNL     1      -0.714   0.491   0.000  0.00  0.00    +0.000 C 
BRANCH  39  40
ATOM     40  C   UNL     1      -0.714  -0.334   0.000  0.00  0.00    +0.000 C 
BRANCH  40  43
ATOM     41  O   UNL     1      -1.429  -1.572   0.000  0.00  0.00    +0.000 OA
ATOM     42  N   UNL     1      -2.143  -0.334   0.000  0.00  0.00    +0.000 N 
ATOM     43  C   UNL     1      -1.429  -0.747   0.000  0.00  0.00    +0.000 C 
ATOM     44  H   UNL     1      -2.143   0.177   0.000  0.00  0.00    +0.000 HD
BRANCH  42  45
ATOM     45  C   UNL     1      -2.858  -0.747   0.000  0.00  0.00    +0.000 C 
BRANCH  45  48
ATOM     46  O   UNL     1      -3.572   0.491   0.000  0.00  0.00    +0.000 OA
ATOM     47  N   UNL     1      -4.287  -0.747   0.000  0.00  0.00    +0.000 N 
ATOM     48  C   UNL     1      -3.572  -0.334   0.000  0.00  0.00    +0.000 C 
ATOM     49  H   UNL     1      -4.287  -1.258   0.000  0.00  0.00    +0.000 HD
BRANCH  47  50
ATOM     50  C   UNL     1      -5.001  -0.334   0.000  0.00  0.00    +0.000 C 
BRANCH  50  51
ATOM     51  C   UNL     1      -5.716  -0.747   0.000  0.00  0.00    +0.000 C 
BRANCH  51  52
ATOM     52  C   UNL     1      -6.430  -0.334   0.000  0.00  0.00    +0.000 C 
BRANCH  52  53
ATOM     53  N   UNL     1      -7.145  -0.747   0.000  0.00  0.00    +0.000 NA
ATOM     54  H   UNL     1      -7.145  -1.258   0.000  0.00  0.00    +0.000 HD
BRANCH  53  55
ATOM     55  C   UNL     1      -7.859  -0.334   0.000  0.00  0.00    +0.000 C 
BRANCH  55  56
ATOM     56  C   UNL     1      -8.574  -0.747   0.000  0.00  0.00    +0.000 C 
BRANCH  56  57
ATOM     57  C   UNL     1      -9.288  -0.334   0.000  0.00  0.00    +0.000 C 
BRANCH  57  58
ATOM     58  C   UNL     1     -10.002  -0.747   0.000  0.00  0.00    +0.000 C 
BRANCH  58  59
ATOM     59  N   UNL     1     -10.717  -0.334   0.000  0.00  0.00    +0.000 NA
ATOM     60  H   UNL     1     -11.160  -0.590   0.000  0.00  0.00    +0.000 HD
ATOM     61  H   UNL     1     -10.717   0.177   0.000  0.00  0.00    +0.000 HD
ENDBRANCH  58  59
ENDBRANCH  57  58
ENDBRANCH  56  57
ENDBRANCH  55  56
ENDBRANCH  53  55
ENDBRANCH  52  53
ENDBRANCH  51  52
ENDBRANCH  50  51
ENDBRANCH  47  50
ENDBRANCH  45  48
ENDBRANCH  42  45
ENDBRANCH  40  43
BRANCH  40  63
ATOM     62  O   UNL     1      -0.714  -1.984   0.000  0.00  0.00    +0.000 OA
ATOM     63  N   UNL     1       0.000  -0.747   0.000  0.00  0.00    +0.000 N 
ATOM     64  C   UNL     1       0.000  -1.572   0.000  0.00  0.00    +0.000 C 
ATOM     65  H   UNL     1       0.443  -0.491   0.000  0.00  0.00    +0.000 HD
BRANCH  64  66
ATOM     66  C   UNL     1       0.714  -1.984   0.000  0.00  0.00    +0.000 C 
BRANCH  66  67
ATOM     67  C   UNL     1       0.714  -2.809   0.000  0.00  0.00    +0.000 C 
BRANCH  67  68
ATOM     68  CA  UNL     1       1.429  -3.222   0.000  0.00  0.00    +0.000 C 
BRANCH  68  69
ATOM     69  N   UNL     1       2.143  -2.809   0.000  0.00  0.00    +0.000 NA
ATOM     70  H1  UNL     1       2.143  -2.298   0.000  0.00  0.00    +0.000 HD
ATOM     71  H2  UNL     1       2.586  -3.065   0.000  0.00  0.00    +0.000 HD
ENDBRANCH  68  69
BRANCH  68  74
ATOM     72  O   UNL     1       2.143  -4.459   0.000  0.00  0.00    +0.000 OA
ATOM     73  OXT UNL     1       0.714  -4.459   0.000  0.00  0.00    +0.000 OA
ATOM     74  C   UNL     1       1.429  -4.047   0.000  0.00  0.00    +0.000 C 
ENDBRANCH  68  74
ENDBRANCH  67  68
ENDBRANCH  66  67
ENDBRANCH  64  66
ENDBRANCH  40  63
ENDBRANCH  39  40
ENDBRANCH   1  39
TORSDOF 41
