REMARK  Name = 
REMARK  9 active torsions:
REMARK  status: ('A' for Active; 'I' for Inactive)
REMARK    1  A    between atoms: C_4  and  C_8
REMARK    2  A    between atoms: C_8  and  C_9
REMARK    3  A    between atoms: C_8  and  C_16
REMARK    4  A    between atoms: C_16  and  C_17
REMARK    5  A    between atoms: C_17  and  C_18
REMARK    6  A    between atoms: C_18  and  N_23
REMARK    7  A    between atoms: N_24  and  C_25
REMARK    8  A    between atoms: C_25  and  C_26
REMARK    9  A    between atoms: N_28  and  C_29
REMARK                            x       y       z     vdW  Elec       q    Type
REMARK                         _______ _______ _______ _____ _____    ______ ____
ROOT
ATOM      1  C   UNL     1      -0.710  -1.243   0.000  0.00  0.00    +0.000 C 
ENDROOT
BRANCH   1   6
ATOM      2  C   UNL     1       0.710   0.418   0.000  0.00  0.00    +0.000 C 
ATOM      3  C   UNL     1       0.000   0.006   0.000  0.00  0.00    +0.000 C 
ATOM      4  C   UNL     1       0.710  -1.243   0.000  0.00  0.00    +0.000 C 
ATOM      5  C   UNL     1       1.432  -0.831   0.000  0.00  0.00    +0.000 C 
ATOM      6  N   UNL     1       0.000  -0.831   0.000  0.00  0.00    +0.000 NA
ATOM      7  N   UNL     1       1.432   0.006   0.000  0.00  0.00    +0.000 NA
BRANCH   7   8
ATOM      8  C   UNL     1       2.154   0.418   0.000  0.00  0.00    +0.000 C 
BRANCH   8   9
ATOM      9  C   UNL     1       2.864   0.006   0.000  0.00  0.00    +0.000 C 
ATOM     10  O   UNL     1       2.864  -0.831   0.000  0.00  0.00    +0.000 OA
ATOM     11  N   UNL     1       3.586   0.418   0.000  0.00  0.00    +0.000 NA
BRANCH  11  12
ATOM     12  C   UNL     1       4.296   0.006   0.000  0.00  0.00    +0.000 A 
ATOM     13  C   UNL     1       5.018   0.418   0.000  0.00  0.00    +0.000 A 
ATOM     14  C   UNL     1       4.296  -0.831   0.000  0.00  0.00    +0.000 A 
ATOM     15  C   UNL     1       5.018  -1.243   0.000  0.00  0.00    +0.000 A 
ATOM     16  C   UNL     1       5.728  -0.831   0.000  0.00  0.00    +0.000 A 
ATOM     17  C   UNL     1       5.728   0.006   0.000  0.00  0.00    +0.000 A 
ATOM     18  C   UNL     1       5.018   1.243   0.000  0.00  0.00    +0.000 C 
ATOM     19  C   UNL     1       3.586  -1.243   0.000  0.00  0.00    +0.000 C 
ENDBRANCH  11  12
ENDBRANCH   8   9
ENDBRANCH   7   8
ENDBRANCH   1   6
BRANCH   1  20
ATOM     20  C   UNL     1      -1.432  -0.831   0.000  0.00  0.00    +0.000 C 
BRANCH  20  21
ATOM     21  C   UNL     1      -2.142  -1.243   0.000  0.00  0.00    +0.000 C 
BRANCH  21  22
ATOM     22  C   UNL     1      -2.864  -0.831   0.000  0.00  0.00    +0.000 C 
BRANCH  22  26
ATOM     23  C   UNL     1      -2.864   1.655   0.000  0.00  0.00    +0.000 A 
ATOM     24  C   UNL     1      -3.586   1.243   0.000  0.00  0.00    +0.000 A 
ATOM     25  C   UNL     1      -3.586   0.418   0.000  0.00  0.00    +0.000 A 
ATOM     26  C   UNL     1      -2.864   0.006   0.000  0.00  0.00    +0.000 A 
ATOM     27  C   UNL     1      -2.142   0.418   0.000  0.00  0.00    +0.000 A 
ATOM     28  C   UNL     1      -2.142   1.243   0.000  0.00  0.00    +0.000 A 
ATOM     29  F   UNL     1      -2.864   2.480   0.000  0.00  0.00    +0.000 F 
ENDBRANCH  22  26
BRANCH  22  30
ATOM     30  C   UNL     1      -3.586  -1.243   0.000  0.00  0.00    +0.000 A 
ATOM     31  C   UNL     1      -4.296  -0.831   0.000  0.00  0.00    +0.000 A 
ATOM     32  C   UNL     1      -5.007  -1.243   0.000  0.00  0.00    +0.000 A 
ATOM     33  C   UNL     1      -5.007  -2.068   0.000  0.00  0.00    +0.000 A 
ATOM     34  C   UNL     1      -4.296  -2.480   0.000  0.00  0.00    +0.000 A 
ATOM     35  C   UNL     1      -3.586  -2.068   0.000  0.00  0.00    +0.000 A 
ATOM     36  F   UNL     1      -5.728  -2.480   0.000  0.00  0.00    +0.000 F 
ENDBRANCH  22  30
ENDBRANCH  21  22
ENDBRANCH  20  21
ENDBRANCH   1  20
TORSDOF 9
