REMARK  Name = 
REMARK  6 active torsions:
REMARK  status: ('A' for Active; 'I' for Inactive)
REMARK    1  A    between atoms: C_1  and  C_2
REMARK    2  A    between atoms: C_2  and  C_3
REMARK    3  A    between atoms: C_2  and  C_9
REMARK    4  A    between atoms: C_2  and  C_12
REMARK    5  A    between atoms: C_3  and  C_4
REMARK    6  A    between atoms: C_4  and  N_5
REMARK                            x       y       z     vdW  Elec       q    Type
REMARK                         _______ _______ _______ _____ _____    ______ ____
ROOT
ATOM      1  C   UNL     1      -0.206   0.000   0.000  0.00  0.00    +0.000 C 
ENDROOT
BRANCH   1   2
ATOM      2  C   UNL     1      -0.206  -0.825   0.000  0.00  0.00    +0.000 A 
ATOM      3  C   UNL     1       0.508  -1.238   0.000  0.00  0.00    +0.000 A 
ATOM      4  C   UNL     1       0.508  -2.062   0.000  0.00  0.00    +0.000 A 
ATOM      5  C   UNL     1      -0.206  -2.475   0.000  0.00  0.00    +0.000 A 
ATOM      6  C   UNL     1      -0.921  -2.062   0.000  0.00  0.00    +0.000 A 
ATOM      7  C   UNL     1      -0.921  -1.238   0.000  0.00  0.00    +0.000 A 
ENDBRANCH   1   2
BRANCH   1   8
ATOM      8  C   UNL     1      -1.031   0.000   0.000  0.00  0.00    +0.000 C 
ATOM      9  C   UNL     1      -1.444   0.714   0.000  0.00  0.00    +0.000 C 
ATOM     10  C   UNL     1      -1.444  -0.714   0.000  0.00  0.00    +0.000 C 
ENDBRANCH   1   8
BRANCH   1  11
ATOM     11  C   UNL     1       0.619   0.000   0.000  0.00  0.00    +0.000 C 
ATOM     12  N   UNL     1       1.444   0.000   0.000  0.00  0.00    +0.000 NA
ENDBRANCH   1  11
BRANCH   1  13
ATOM     13  C   UNL     1      -0.206   0.825   0.000  0.00  0.00    +0.000 C 
BRANCH  13  14
ATOM     14  C   UNL     1       0.508   1.238   0.000  0.00  0.00    +0.000 C 
ATOM     15  C   UNL     1       1.223   0.825   0.000  0.00  0.00    +0.000 C 
BRANCH  14  16
ATOM     16  N   UNL     1       0.508   2.062   0.000  0.00  0.00    +0.000 NA
ATOM     17  C   UNL     1      -0.206   2.475   0.000  0.00  0.00    +0.000 C 
ATOM     18  C   UNL     1       1.223   2.475   0.000  0.00  0.00    +0.000 C 
ENDBRANCH  14  16
ENDBRANCH  13  14
ENDBRANCH   1  13
TORSDOF 6
