REMARK  Name = 
REMARK  11 active torsions:
REMARK  status: ('A' for Active; 'I' for Inactive)
REMARK    1  A    between atoms: O_2  and  C_3
REMARK    2  A    between atoms: C_4  and  O_5
REMARK    3  A    between atoms: N_10  and  C_11
REMARK    4  A    between atoms: C_11  and  C_12
REMARK    5  A    between atoms: C_12  and  C_13
REMARK    6  A    between atoms: C_13  and  C_14
REMARK    7  A    between atoms: C_14  and  N_15
REMARK    8  A    between atoms: C_16  and  C_18
REMARK    9  A    between atoms: C_19  and  O_20
REMARK   10  A    between atoms: O_20  and  C_21
REMARK   11  A    between atoms: C_21  and  C_22
REMARK                            x       y       z     vdW  Elec       q    Type
REMARK                         _______ _______ _______ _____ _____    ______ ____
ROOT
ATOM      1  C   UNL     1      -1.429   0.825   0.000  0.00  0.00    +0.000 C 
ENDROOT
BRANCH   1   2
ATOM      2  C   UNL     1      -1.016   0.111   0.000  0.00  0.00    +0.000 C 
BRANCH   2   8
ATOM      3  C   UNL     1      -3.491  -2.747   0.000  0.00  0.00    +0.000 A 
ATOM      4  C   UNL     1      -3.904  -2.033   0.000  0.00  0.00    +0.000 A 
ATOM      5  C   UNL     1      -3.491  -1.318   0.000  0.00  0.00    +0.000 A 
ATOM      6  C   UNL     1      -2.666  -1.318   0.000  0.00  0.00    +0.000 A 
ATOM      7  C   UNL     1      -2.254  -0.604   0.000  0.00  0.00    +0.000 C 
ATOM      8  N   UNL     1      -1.429  -0.604   0.000  0.00  0.00    +0.000 NA
ATOM      9  C   UNL     1      -1.016  -1.318   0.000  0.00  0.00    +0.000 C 
ATOM     10  C   UNL     1      -1.429  -2.033   0.000  0.00  0.00    +0.000 C 
ATOM     11  C   UNL     1      -2.254  -2.033   0.000  0.00  0.00    +0.000 A 
ATOM     12  C   UNL     1      -2.666  -2.747   0.000  0.00  0.00    +0.000 A 
BRANCH   3  14
ATOM     13  C   UNL     1      -3.491  -4.176   0.000  0.00  0.00    +0.000 C 
ATOM     14  O   UNL     1      -3.904  -3.462   0.000  0.00  0.00    +0.000 OA
ENDBRANCH   3  14
BRANCH   4  15
ATOM     15  O   UNL     1      -4.729  -2.033   0.000  0.00  0.00    +0.000 OA
ATOM     16  C   UNL     1      -5.141  -1.318   0.000  0.00  0.00    +0.000 C 
ENDBRANCH   4  15
ENDBRANCH   2   8
ENDBRANCH   1   2
BRANCH   1  17
ATOM     17  C   UNL     1      -1.016   1.540   0.000  0.00  0.00    +0.000 C 
BRANCH  17  18
ATOM     18  C   UNL     1      -0.191   1.540   0.000  0.00  0.00    +0.000 C 
BRANCH  18  19
ATOM     19  N   UNL     1       0.221   0.825   0.000  0.00  0.00    +0.000 NA
ATOM     20  C   UNL     1       1.046   0.825   0.000  0.00  0.00    +0.000 C 
ATOM     21  O   UNL     1       1.459   1.540   0.000  0.00  0.00    +0.000 OA
BRANCH  20  22
ATOM     22  C   UNL     1       1.459   0.111   0.000  0.00  0.00    +0.000 A 
ATOM     23  C   UNL     1       2.284   0.111   0.000  0.00  0.00    +0.000 A 
ATOM     24  C   UNL     1       2.696  -0.604   0.000  0.00  0.00    +0.000 A 
ATOM     25  C   UNL     1       2.284  -1.318   0.000  0.00  0.00    +0.000 A 
ATOM     26  C   UNL     1       1.459  -1.318   0.000  0.00  0.00    +0.000 A 
ATOM     27  C   UNL     1       1.046  -2.033   0.000  0.00  0.00    +0.000 C 
ATOM     28  C   UNL     1       1.046  -0.604   0.000  0.00  0.00    +0.000 A 
BRANCH  23  29
ATOM     29  O   UNL     1       2.696   0.825   0.000  0.00  0.00    +0.000 OA
BRANCH  29  30
ATOM     30  C   UNL     1       2.284   1.540   0.000  0.00  0.00    +0.000 C 
BRANCH  30  31
ATOM     31  C   UNL     1       2.696   2.254   0.000  0.00  0.00    +0.000 C 
ATOM     32  F   UNL     1       3.521   2.254   0.000  0.00  0.00    +0.000 F 
ENDBRANCH  30  31
ENDBRANCH  29  30
ENDBRANCH  23  29
ENDBRANCH  20  22
ENDBRANCH  18  19
ENDBRANCH  17  18
ENDBRANCH   1  17
TORSDOF 11
