REMARK  Name = 
REMARK  11 active torsions:
REMARK  status: ('A' for Active; 'I' for Inactive)
REMARK    1  A    between atoms: C_2  and  C_3
REMARK    2  A    between atoms: C_3  and  C_4
REMARK    3  A    between atoms: C_4  and  C_5
REMARK    4  A    between atoms: C_5  and  C_6
REMARK    5  A    between atoms: C_6  and  C_7
REMARK    6  A    between atoms: C_7  and  O_9
REMARK    7  A    between atoms: O_9  and  C_10
REMARK    8  A    between atoms: N_28  and  N_29
REMARK    9  A    between atoms: C_30  and  C_32
REMARK   10  A    between atoms: C_32  and  C_33
REMARK   11  A    between atoms: C_32  and  C_39
REMARK                            x       y       z     vdW  Elec       q    Type
REMARK                         _______ _______ _______ _____ _____    ______ ____
ROOT
ATOM      1  C   UNL     1       2.989   0.431   0.000  0.00  0.00    +0.000 C 
ATOM      2  C   UNL     1       2.278   0.013   0.000  0.00  0.00    +0.000 C 
ATOM      3  C   UNL     1       2.278  -0.825   0.000  0.00  0.00    +0.000 C 
ATOM      4  C   UNL     1       3.712  -0.825   0.000  0.00  0.00    +0.000 C 
ATOM      5  C   UNL     1       3.712   0.000   0.000  0.00  0.00    +0.000 C 
ATOM      6  C   UNL     1       1.555  -1.244   0.000  0.00  0.00    +0.000 C 
ATOM      7  C   UNL     1       1.555  -2.069   0.000  0.00  0.00    +0.000 C 
ATOM      8  C   UNL     1       0.831  -2.488   0.000  0.00  0.00    +0.000 C 
ATOM      9  C   UNL     1       0.108  -2.069   0.000  0.00  0.00    +0.000 C 
ATOM     10  C   UNL     1       0.108  -1.244   0.000  0.00  0.00    +0.000 C 
ATOM     11  C   UNL     1       0.831  -0.825   0.000  0.00  0.00    +0.000 C 
ATOM     12  C   UNL     1       0.831   0.013   0.000  0.00  0.00    +0.000 C 
ATOM     13  C   UNL     1       1.542   0.419   0.000  0.00  0.00    +0.000 C 
ATOM     14  C   UNL     1       0.108  -0.419   0.000  0.00  0.00    +0.000 C 
ATOM     15  C   UNL     1      -0.603  -0.825   0.000  0.00  0.00    +0.000 C 
ATOM     16  C   UNL     1      -1.314  -1.244   0.000  0.00  0.00    +0.000 C 
ATOM     17  C   UNL     1      -1.314  -2.069   0.000  0.00  0.00    +0.000 C 
ATOM     18  N   UNL     1      -2.024  -2.488   0.000  0.00  0.00    +0.000 NA
ATOM     19  C   UNL     1      -0.603  -2.488   0.000  0.00  0.00    +0.000 C 
ATOM     20  C   UNL     1       2.202   0.939   0.000  0.00  0.00    +0.000 C 
ENDROOT
BRANCH  18  21
ATOM     21  N   UNL     1      -2.024  -3.313   0.000  0.00  0.00    +0.000 N 
ATOM     22  C   UNL     1      -2.748  -3.732   0.000  0.00  0.00    +0.000 C 
ATOM     23  O   UNL     1      -3.459  -3.313   0.000  0.00  0.00    +0.000 OA
ATOM     24  H   UNL     1      -1.567  -3.579   0.000  0.00  0.00    +0.000 HD
BRANCH  22  25
ATOM     25  C   UNL     1      -2.748  -4.544   0.000  0.00  0.00    +0.000 C 
ATOM     26  O   UNL     1      -2.748  -5.381   0.000  0.00  0.00    +0.000 OA
BRANCH  25  27
ATOM     27  C   UNL     1      -4.195  -4.544   0.000  0.00  0.00    +0.000 A 
ATOM     28  C   UNL     1      -4.601  -3.846   0.000  0.00  0.00    +0.000 A 
ATOM     29  C   UNL     1      -5.426  -3.846   0.000  0.00  0.00    +0.000 A 
ATOM     30  C   UNL     1      -5.845  -4.556   0.000  0.00  0.00    +0.000 A 
ATOM     31  C   UNL     1      -5.426  -5.267   0.000  0.00  0.00    +0.000 A 
ATOM     32  C   UNL     1      -4.601  -5.267   0.000  0.00  0.00    +0.000 A 
ENDBRANCH  25  27
BRANCH  25  33
ATOM     33  C   UNL     1      -1.301  -4.544   0.000  0.00  0.00    +0.000 A 
ATOM     34  C   UNL     1      -0.882  -5.255   0.000  0.00  0.00    +0.000 A 
ATOM     35  C   UNL     1      -0.057  -5.255   0.000  0.00  0.00    +0.000 A 
ATOM     36  C   UNL     1       0.349  -4.531   0.000  0.00  0.00    +0.000 A 
ATOM     37  C   UNL     1      -0.057  -3.833   0.000  0.00  0.00    +0.000 A 
ATOM     38  C   UNL     1      -0.895  -3.833   0.000  0.00  0.00    +0.000 A 
ENDBRANCH  25  33
ENDBRANCH  22  25
ENDBRANCH  18  21
BRANCH   1  39
ATOM     39  O   UNL     1       2.989   1.256   0.000  0.00  0.00    +0.000 OA
BRANCH  39  40
ATOM     40  C   UNL     1       3.700   1.663   0.000  0.00  0.00    +0.000 C 
ATOM     41  O   UNL     1       4.410   1.256   0.000  0.00  0.00    +0.000 OA
BRANCH  40  42
ATOM     42  C   UNL     1       3.700   2.488   0.000  0.00  0.00    +0.000 C 
BRANCH  42  43
ATOM     43  C   UNL     1       4.410   2.906   0.000  0.00  0.00    +0.000 C 
BRANCH  43  44
ATOM     44  C   UNL     1       4.410   3.732   0.000  0.00  0.00    +0.000 C 
BRANCH  44  45
ATOM     45  C   UNL     1       5.134   4.150   0.000  0.00  0.00    +0.000 C 
BRANCH  45  47
ATOM     46  C   UNL     1       5.845   5.381   0.000  0.00  0.00    +0.000 C 
ATOM     47  C   UNL     1       5.134   4.963   0.000  0.00  0.00    +0.000 C 
ENDBRANCH  45  47
ENDBRANCH  44  45
ENDBRANCH  43  44
ENDBRANCH  42  43
ENDBRANCH  40  42
ENDBRANCH  39  40
ENDBRANCH   1  39
TORSDOF 11
