REMARK  Name = 
REMARK  4 active torsions:
REMARK  status: ('A' for Active; 'I' for Inactive)
REMARK    1  A    between atoms: C_6  and  N_7
REMARK    2  A    between atoms: C_10  and  C_14
REMARK    3  A    between atoms: C_20  and  N_21
REMARK    4  A    between atoms: N_40  and  C_41
REMARK                            x       y       z     vdW  Elec       q    Type
REMARK                         _______ _______ _______ _____ _____    ______ ____
ROOT
ATOM      1  C   UNL     1       3.602   3.919   0.000  0.00  0.00    +0.000 C 
ATOM      2  C   UNL     1       4.036   3.217   0.000  0.00  0.00    +0.000 C 
ATOM      3  C   UNL     1       4.861   3.243   0.000  0.00  0.00    +0.000 C 
ATOM      4  C   UNL     1       5.295   2.542   0.000  0.00  0.00    +0.000 C 
ATOM      5  C   UNL     1       6.120   2.568   0.000  0.00  0.00    +0.000 C 
ATOM      6  C   UNL     1       6.555   1.867   0.000  0.00  0.00    +0.000 C 
ATOM      7  C   UNL     1       6.165   1.139   0.000  0.00  0.00    +0.000 A 
ATOM      8  C   UNL     1       5.340   1.114   0.000  0.00  0.00    +0.000 A 
ATOM      9  C   UNL     1       4.950   0.387   0.000  0.00  0.00    +0.000 A 
ATOM     10  C   UNL     1       5.385  -0.315   0.000  0.00  0.00    +0.000 A 
ATOM     11  C   UNL     1       6.209  -0.289   0.000  0.00  0.00    +0.000 A 
ATOM     12  N   UNL     1       6.599   0.438   0.000  0.00  0.00    +0.000 NA
ATOM     13  C   UNL     1       4.125   0.361   0.000  0.00  0.00    +0.000 A 
ATOM     14  C   UNL     1       3.691   1.062   0.000  0.00  0.00    +0.000 A 
ATOM     15  N   UNL     1       4.081   1.789   0.000  0.00  0.00    +0.000 NA
ATOM     16  C   UNL     1       3.646   2.490   0.000  0.00  0.00    +0.000 C 
ATOM     17  O   UNL     1       2.822   2.465   0.000  0.00  0.00    +0.000 OA
ATOM     18  C   UNL     1       2.890   0.866   0.000  0.00  0.00    +0.000 A 
ATOM     19  N   UNL     1       2.829   0.043   0.000  0.00  0.00    +0.000 NA
ATOM     20  N   UNL     1       3.593  -0.269   0.000  0.00  0.00    +0.000 N 
ENDROOT
BRANCH   6  21
ATOM     21  N   UNL     1       7.379   1.892   0.000  0.00  0.00    +0.000 N 
ATOM     22  C   UNL     1       7.769   2.619   0.000  0.00  0.00    +0.000 A 
ATOM     23  N   UNL     1       8.594   2.645   0.000  0.00  0.00    +0.000 NA
ATOM     24  C   UNL     1       9.028   1.944   0.000  0.00  0.00    +0.000 A 
ATOM     25  C   UNL     1       8.639   1.217   0.000  0.00  0.00    +0.000 A 
ATOM     26  C   UNL     1       7.814   1.191   0.000  0.00  0.00    +0.000 A 
ATOM     27  O   UNL     1       7.424   0.464   0.000  0.00  0.00    +0.000 OA
BRANCH  24  28
ATOM     28  C   UNL     1       9.853   1.970   0.000  0.00  0.00    +0.000 A 
ATOM     29  C   UNL     1      10.243   2.697   0.000  0.00  0.00    +0.000 A 
ATOM     30  C   UNL     1      11.068   2.722   0.000  0.00  0.00    +0.000 A 
ATOM     31 CL   UNL     1      11.458   3.449   0.000  0.00  0.00    +0.000 Cl
ATOM     32  C   UNL     1      11.502   2.021   0.000  0.00  0.00    +0.000 A 
ATOM     33  C   UNL     1      11.112   1.294   0.000  0.00  0.00    +0.000 A 
ATOM     34  C   UNL     1      10.288   1.268   0.000  0.00  0.00    +0.000 A 
BRANCH  34  35
ATOM     35  N   UNL     1       9.898   0.541   0.000  0.00  0.00    +0.000 N 
ATOM     36  C   UNL     1      10.257  -0.202   0.000  0.00  0.00    +0.000 A 
ATOM     37  C   UNL     1       9.661  -0.772   0.000  0.00  0.00    +0.000 A 
ATOM     38 CL   UNL     1       9.773  -1.590   0.000  0.00  0.00    +0.000 Cl
ATOM     39  N   UNL     1       8.934  -0.382   0.000  0.00  0.00    +0.000 NA
ATOM     40  N   UNL     1       9.080   0.429   0.000  0.00  0.00    +0.000 NA
ENDBRANCH  34  35
ENDBRANCH  24  28
ENDBRANCH   6  21
BRANCH  20  41
ATOM     41  C   UNL     1       3.790  -1.070   0.000  0.00  0.00    +0.000 C 
ATOM     42  F   UNL     1       4.582  -1.301   0.000  0.00  0.00    +0.000 F 
ATOM     43  F   UNL     1       3.194  -1.641   0.000  0.00  0.00    +0.000 F 
ENDBRANCH  20  41
TORSDOF 4
