REMARK  Name = 
REMARK  8 active torsions:
REMARK  status: ('A' for Active; 'I' for Inactive)
REMARK    1  A    between atoms: P_1  and  O_5
REMARK    2  A    between atoms: P_2  and  O_7
REMARK    3  A    between atoms: P_2  and  O_11
REMARK    4  A    between atoms: P_3  and  O_11
REMARK    5  A    between atoms: O_5  and  C_23
REMARK    6  A    between atoms: O_7  and  C_27
REMARK    7  A    between atoms: N_18  and  C_25
REMARK    8  A    between atoms: C_26  and  C_27
REMARK                            x       y       z     vdW  Elec       q    Type
REMARK                         _______ _______ _______ _____ _____    ______ ____
ROOT
ATOM      1  O   UNL     1      -0.136  -0.113   0.000  0.00  0.00    +0.000 OA
ATOM      2  O   UNL     1      -2.230   0.303   0.000  0.00  0.00    +0.000 OA
ATOM      3  C   UNL     1      -0.918   0.969   0.000  0.00  0.00    +0.000 C 
ATOM      4  C   UNL     1      -1.405   0.302   0.000  0.00  0.00    +0.000 C 
ATOM      5  C   UNL     1      -0.921  -0.366   0.000  0.00  0.00    +0.000 C 
ATOM      6  C   UNL     1      -0.134   0.712   0.000  0.00  0.00    +0.000 C 
ENDROOT
BRANCH   5   8
ATOM      7  O   UNL     1      -2.672  -3.465   0.000  0.00  0.00    +0.000 OA
ATOM      8  N   UNL     1      -1.177  -1.151   0.000  0.00  0.00    +0.000 N 
ATOM      9  N   UNL     1      -2.672  -0.990   0.000  0.00  0.00    +0.000 NA
ATOM     10  N   UNL     1      -1.177  -2.479   0.000  0.00  0.00    +0.000 NA
ATOM     11  N   UNL     1      -3.387  -2.227   0.000  0.00  0.00    +0.000 NA
ATOM     12  N   UNL     1      -4.101  -0.990   0.000  0.00  0.00    +0.000 NA
ATOM     13  C   UNL     1      -1.958  -1.402   0.000  0.00  0.00    +0.000 A 
ATOM     14  C   UNL     1      -0.696  -1.815   0.000  0.00  0.00    +0.000 A 
ATOM     15  C   UNL     1      -1.958  -2.227   0.000  0.00  0.00    +0.000 A 
ATOM     16  C   UNL     1      -2.672  -2.640   0.000  0.00  0.00    +0.000 A 
ATOM     17  C   UNL     1      -3.387  -1.402   0.000  0.00  0.00    +0.000 A 
ENDBRANCH   5   8
BRANCH   3  18
ATOM     18  O   UNL     1      -1.172   1.754   0.000  0.00  0.00    +0.000 OA
BRANCH  18  19
ATOM     19  P   UNL     1      -0.619   2.366   0.000  0.00  0.00    +0.000 P 
ATOM     20  O   UNL     1      -0.066   2.978   0.000  0.00  0.00    +0.000 OA
ATOM     21  O   UNL     1      -1.231   2.919   0.000  0.00  0.00    +0.000 OA
ATOM     22  O   UNL     1      -0.007   1.813   0.000  0.00  0.00    +0.000 OA
ENDBRANCH  18  19
ENDBRANCH   3  18
BRANCH   6  23
ATOM     23  C   UNL     1       0.534   1.196   0.000  0.00  0.00    +0.000 C 
BRANCH  23  24
ATOM     24  O   UNL     1       1.287   0.859   0.000  0.00  0.00    +0.000 OA
BRANCH  24  25
ATOM     25  P   UNL     1       1.955   1.343   0.000  0.00  0.00    +0.000 P 
ATOM     26  O   UNL     1       2.439   0.674   0.000  0.00  0.00    +0.000 OA
ATOM     27  O   UNL     1       1.472   2.011   0.000  0.00  0.00    +0.000 OA
BRANCH  25  28
ATOM     28  O   UNL     1       2.624   1.827   0.000  0.00  0.00    +0.000 OA
BRANCH  28  29
ATOM     29  P   UNL     1       3.377   1.490   0.000  0.00  0.00    +0.000 P 
ATOM     30  O   UNL     1       4.130   1.153   0.000  0.00  0.00    +0.000 OA
ATOM     31  O   UNL     1       3.714   2.243   0.000  0.00  0.00    +0.000 OA
ATOM     32  O   UNL     1       3.040   0.737   0.000  0.00  0.00    +0.000 OA
ENDBRANCH  28  29
ENDBRANCH  25  28
ENDBRANCH  24  25
ENDBRANCH  23  24
ENDBRANCH   6  23
TORSDOF 8
