REMARK  Name = 
REMARK  2 active torsions:
REMARK  status: ('A' for Active; 'I' for Inactive)
REMARK    1  A    between atoms: C_16  and  C_18
REMARK    2  A    between atoms: C_18  and  C_19
REMARK                            x       y       z     vdW  Elec       q    Type
REMARK                         _______ _______ _______ _____ _____    ______ ____
ROOT
ATOM      1  C   UNL     1       4.270   1.429   0.000  0.00  0.00    +0.000 C 
ATOM      2  C   UNL     1       3.449   1.515   0.000  0.00  0.00    +0.000 A 
ATOM      3  C   UNL     1       2.897   0.902   0.000  0.00  0.00    +0.000 A 
ATOM      4  C   UNL     1       2.143   1.238   0.000  0.00  0.00    +0.000 A 
ATOM      5  N   UNL     1       2.230   2.058   0.000  0.00  0.00    +0.000 NA
ATOM      6  N   UNL     1       3.037   2.229   0.000  0.00  0.00    +0.000 NA
ATOM      7  N   UNL     1       1.429   0.825   0.000  0.00  0.00    +0.000 NA
ATOM      8  C   UNL     1       1.429   0.000   0.000  0.00  0.00    +0.000 A 
ATOM      9  C   UNL     1       2.143  -0.412   0.000  0.00  0.00    +0.000 A 
ATOM     10  C   UNL     1       2.858   0.000   0.000  0.00  0.00    +0.000 A 
ATOM     11  C   UNL     1       3.572  -0.412   0.000  0.00  0.00    +0.000 A 
ATOM     12  C   UNL     1       3.572  -1.238   0.000  0.00  0.00    +0.000 A 
ATOM     13  C   UNL     1       2.858  -1.650   0.000  0.00  0.00    +0.000 A 
ATOM     14  C   UNL     1       2.143  -1.238   0.000  0.00  0.00    +0.000 A 
ATOM     15  N   UNL     1       1.429  -1.650   0.000  0.00  0.00    +0.000 NA
ATOM     16  C   UNL     1       0.715  -1.238   0.000  0.00  0.00    +0.000 A 
ATOM     17  N   UNL     1       0.715  -0.412   0.000  0.00  0.00    +0.000 NA
ENDROOT
BRANCH  16  18
ATOM     18  C   UNL     1       0.000  -1.650   0.000  0.00  0.00    +0.000 C 
ATOM     19  O   UNL     1       0.000  -2.475   0.000  0.00  0.00    +0.000 OA
BRANCH  18  20
ATOM     20  C   UNL     1      -0.715  -1.238   0.000  0.00  0.00    +0.000 A 
ATOM     21  C   UNL     1      -1.429  -1.650   0.000  0.00  0.00    +0.000 A 
ATOM     22  C   UNL     1      -2.143  -1.238   0.000  0.00  0.00    +0.000 A 
ATOM     23  C   UNL     1      -2.143  -0.412   0.000  0.00  0.00    +0.000 A 
ATOM     24  C   UNL     1      -1.429   0.000   0.000  0.00  0.00    +0.000 A 
ATOM     25  C   UNL     1      -0.715  -0.412   0.000  0.00  0.00    +0.000 A 
ATOM     26  F   UNL     1      -2.858   0.000   0.000  0.00  0.00    +0.000 F 
ENDBRANCH  18  20
ENDBRANCH  16  18
TORSDOF 2
