REMARK  Name = 
REMARK  9 active torsions:
REMARK  status: ('A' for Active; 'I' for Inactive)
REMARK    1  A    between atoms: C_4  and  C_8
REMARK    2  A    between atoms: C_8  and  N_9
REMARK    3  A    between atoms: N_9  and  C_10
REMARK    4  A    between atoms: N_9  and  C_11
REMARK    5  A    between atoms: C_10  and  C_20
REMARK    6  A    between atoms: C_11  and  C_12
REMARK    7  A    between atoms: C_14  and  N_17
REMARK    8  A    between atoms: C_25  and  O_26
REMARK    9  A    between atoms: O_26  and  C_28
REMARK                            x       y       z     vdW  Elec       q    Type
REMARK                         _______ _______ _______ _____ _____    ______ ____
ROOT
ATOM      1  N   UNL     1       0.060   0.098   0.000  0.00  0.00    +0.000 NA
ENDROOT
BRANCH   1   2
ATOM      2  C   UNL     1      -0.654   0.511   0.000  0.00  0.00    +0.000 C 
BRANCH   2   3
ATOM      3  C   UNL     1      -1.369   0.098   0.000  0.00  0.00    +0.000 A 
ATOM      4  S   UNL     1      -2.122   0.434   0.000  0.00  0.00    +0.000 S 
ATOM      5  C   UNL     1      -2.674  -0.179   0.000  0.00  0.00    +0.000 A 
ATOM      6  C   UNL     1      -2.262  -0.893   0.000  0.00  0.00    +0.000 A 
ATOM      7  C   UNL     1      -1.455  -0.722   0.000  0.00  0.00    +0.000 A 
BRANCH   5   8
ATOM      8  N   UNL     1      -3.495  -0.093   0.000  0.00  0.00    +0.000 N 
ATOM      9  O   UNL     1      -3.980  -0.760   0.000  0.00  0.00    +0.000 OA
ATOM     10  O   UNL     1      -3.830   0.661   0.000  0.00  0.00    +0.000 OA
ENDBRANCH   5   8
ENDBRANCH   2   3
ENDBRANCH   1   2
BRANCH   1  11
ATOM     11  C   UNL     1       0.775   0.511   0.000  0.00  0.00    +0.000 C 
BRANCH  11  15
ATOM     12  C   UNL     1       0.775   2.986   0.000  0.00  0.00    +0.000 A 
ATOM     13  C   UNL     1       0.060   2.573   0.000  0.00  0.00    +0.000 A 
ATOM     14  C   UNL     1       0.060   1.748   0.000  0.00  0.00    +0.000 A 
ATOM     15  C   UNL     1       0.775   1.336   0.000  0.00  0.00    +0.000 A 
ATOM     16  C   UNL     1       1.489   1.748   0.000  0.00  0.00    +0.000 A 
ATOM     17  C   UNL     1       1.489   2.573   0.000  0.00  0.00    +0.000 A 
ATOM     18 CL   UNL     1       0.775   3.811   0.000  0.00  0.00    +0.000 Cl
ENDBRANCH  11  15
ENDBRANCH   1  11
BRANCH   1  19
ATOM     19  C   UNL     1       0.060  -0.727   0.000  0.00  0.00    +0.000 C 
BRANCH  19  20
ATOM     20  C   UNL     1       0.775  -1.139   0.000  0.00  0.00    +0.000 C 
ATOM     21  C   UNL     1       0.861  -1.960   0.000  0.00  0.00    +0.000 C 
ATOM     22  N   UNL     1       1.668  -2.131   0.000  0.00  0.00    +0.000 N 
ATOM     23  C   UNL     1       2.080  -1.417   0.000  0.00  0.00    +0.000 C 
ATOM     24  C   UNL     1       1.528  -0.803   0.000  0.00  0.00    +0.000 C 
ATOM     25  C   UNL     1       2.003  -2.885   0.000  0.00  0.00    +0.000 C 
ATOM     26  O   UNL     1       1.518  -3.552   0.000  0.00  0.00    +0.000 OA
BRANCH  25  27
ATOM     27  O   UNL     1       2.824  -2.971   0.000  0.00  0.00    +0.000 OA
BRANCH  27  28
ATOM     28  C   UNL     1       3.159  -3.725   0.000  0.00  0.00    +0.000 C 
ATOM     29  C   UNL     1       3.980  -3.811   0.000  0.00  0.00    +0.000 C 
ENDBRANCH  27  28
ENDBRANCH  25  27
ENDBRANCH  19  20
ENDBRANCH   1  19
TORSDOF 9
