REMARK  Name = 
REMARK  10 active torsions:
REMARK  status: ('A' for Active; 'I' for Inactive)
REMARK    1  A    between atoms: C_4  and  O_5
REMARK    2  A    between atoms: O_5  and  C_6
REMARK    3  A    between atoms: C_6  and  C_7
REMARK    4  A    between atoms: C_7  and  C_8
REMARK    5  A    between atoms: C_8  and  S_9
REMARK    6  A    between atoms: C_16  and  C_17
REMARK    7  A    between atoms: C_19  and  C_20
REMARK    8  A    between atoms: C_20  and  O_21
REMARK    9  A    between atoms: O_21  and  C_22
REMARK   10  A    between atoms: C_31  and  C_32
REMARK                            x       y       z     vdW  Elec       q    Type
REMARK                         _______ _______ _______ _____ _____    ______ ____
ROOT
ATOM      1  C   UNL     1       6.109   1.171   0.000  0.00  0.00    +0.000 A 
ATOM      2  C   UNL     1       5.317   1.402   0.000  0.00  0.00    +0.000 A 
ATOM      3  C   UNL     1       5.121   2.203   0.000  0.00  0.00    +0.000 A 
ATOM      4  C   UNL     1       5.717   2.774   0.000  0.00  0.00    +0.000 A 
ATOM      5  C   UNL     1       6.509   2.543   0.000  0.00  0.00    +0.000 A 
ATOM      6  C   UNL     1       6.705   1.742   0.000  0.00  0.00    +0.000 A 
ENDROOT
BRANCH   1  14
ATOM      7  C   UNL     1       7.694   0.710   0.000  0.00  0.00    +0.000 C 
ATOM      8  C   UNL     1       7.098   0.139   0.000  0.00  0.00    +0.000 A 
ATOM      9  C   UNL     1       7.294  -0.662   0.000  0.00  0.00    +0.000 A 
ATOM     10  C   UNL     1       6.698  -1.233   0.000  0.00  0.00    +0.000 A 
ATOM     11  C   UNL     1       5.906  -1.002   0.000  0.00  0.00    +0.000 A 
ATOM     12  C   UNL     1       5.710  -0.201   0.000  0.00  0.00    +0.000 A 
ATOM     13  C   UNL     1       4.918   0.030   0.000  0.00  0.00    +0.000 C 
ATOM     14  C   UNL     1       6.306   0.370   0.000  0.00  0.00    +0.000 A 
BRANCH  10  15
ATOM     15  O   UNL     1       6.894  -2.034   0.000  0.00  0.00    +0.000 OA
BRANCH  15  16
ATOM     16  C   UNL     1       6.299  -2.605   0.000  0.00  0.00    +0.000 C 
BRANCH  16  17
ATOM     17  C   UNL     1       6.495  -3.406   0.000  0.00  0.00    +0.000 C 
BRANCH  17  18
ATOM     18  C   UNL     1       5.899  -3.977   0.000  0.00  0.00    +0.000 C 
BRANCH  18  19
ATOM     19  S   UNL     1       6.095  -4.778   0.000  0.00  0.00    +0.000 S 
ATOM     20  C   UNL     1       6.292  -5.580   0.000  0.00  0.00    +0.000 C 
ATOM     21  O   UNL     1       6.896  -4.582   0.000  0.00  0.00    +0.000 OA
ATOM     22  O   UNL     1       5.294  -4.974   0.000  0.00  0.00    +0.000 OA
ENDBRANCH  18  19
ENDBRANCH  17  18
ENDBRANCH  16  17
ENDBRANCH  15  16
ENDBRANCH  10  15
ENDBRANCH   1  14
BRANCH   3  23
ATOM     23  C   UNL     1       4.329   2.434   0.000  0.00  0.00    +0.000 C 
BRANCH  23  24
ATOM     24  O   UNL     1       3.733   1.863   0.000  0.00  0.00    +0.000 OA
BRANCH  24  25
ATOM     25  C   UNL     1       2.941   2.094   0.000  0.00  0.00    +0.000 A 
ATOM     26  C   UNL     1       2.345   1.523   0.000  0.00  0.00    +0.000 A 
ATOM     27  C   UNL     1       1.553   1.754   0.000  0.00  0.00    +0.000 A 
ATOM     28  C   UNL     1       1.357   2.555   0.000  0.00  0.00    +0.000 A 
ATOM     29  C   UNL     1       1.953   3.126   0.000  0.00  0.00    +0.000 A 
ATOM     30  N   UNL     1       2.745   2.895   0.000  0.00  0.00    +0.000 NA
ATOM     31  C   UNL     1       0.534   2.616   0.000  0.00  0.00    +0.000 C 
ATOM     32  C   UNL     1       0.222   1.853   0.000  0.00  0.00    +0.000 C 
ATOM     33  C   UNL     1       0.852   1.320   0.000  0.00  0.00    +0.000 C 
ATOM     34  C   UNL     1      -0.283   2.505   0.000  0.00  0.00    +0.000 C 
BRANCH  34  35
ATOM     35  C   UNL     1      -1.047   2.817   0.000  0.00  0.00    +0.000 C 
ATOM     36  O   UNL     1      -1.158   3.634   0.000  0.00  0.00    +0.000 OA
ATOM     37  O   UNL     1      -1.699   2.312   0.000  0.00  0.00    +0.000 OA
ENDBRANCH  34  35
ENDBRANCH  24  25
ENDBRANCH  23  24
ENDBRANCH   3  23
TORSDOF 10
