REMARK  Name = 
REMARK  2 active torsions:
REMARK  status: ('A' for Active; 'I' for Inactive)
REMARK    1  A    between atoms: N1_6  and  C1*_8
REMARK    2  A    between atoms: C4*_11  and  C5*_13
REMARK                            x       y       z     vdW  Elec       q    Type
REMARK                         _______ _______ _______ _____ _____    ______ ____
ROOT
ATOM      1  O2    U A   1      -1.573   0.143   0.000  0.00  0.00    +0.000 OA
ATOM      2  O4    U A   1      -0.144   2.619   0.000  0.00  0.00    +0.000 OA
ATOM      3  N1    U A   1      -0.144   0.143   0.000  0.00  0.00    +0.000 N 
ATOM      4  N3    U A   1      -0.859   1.381   0.000  0.00  0.00    +0.000 N 
ATOM      5  C6    U A   1       0.570   0.556   0.000  0.00  0.00    +0.000 C 
ATOM      6  C5    U A   1       0.570   1.381   0.000  0.00  0.00    +0.000 C 
ATOM      7  C2    U A   1      -0.859   0.556   0.000  0.00  0.00    +0.000 C 
ATOM      8  C4    U A   1      -0.144   1.794   0.000  0.00  0.00    +0.000 C 
ATOM      9  H3    U A   1      -1.302   1.637   0.000  0.00  0.00    +0.000 HD
ENDROOT
BRANCH   3  12
ATOM     10  O4*   U A   1       0.523  -1.166   0.000  0.00  0.00    +0.000 OA
ATOM     11  O3*   U A   1      -1.042  -2.619   0.000  0.00  0.00    +0.000 OA
ATOM     12  C1*   U A   1      -0.144  -0.681   0.000  0.00  0.00    +0.000 C 
ATOM     13  C2*   U A   1      -0.812  -1.166   0.000  0.00  0.00    +0.000 C 
ATOM     14  C3*   U A   1      -0.557  -1.951   0.000  0.00  0.00    +0.000 C 
ATOM     15  C4*   U A   1       0.268  -1.951   0.000  0.00  0.00    +0.000 C 
BRANCH  15  17
ATOM     16  O5*   U A   1       1.573  -2.532   0.000  0.00  0.00    +0.000 OA
ATOM     17  C5*   U A   1       0.753  -2.619   0.000  0.00  0.00    +0.000 C 
ENDBRANCH  15  17
ENDBRANCH   3  12
TORSDOF 2
