REMARK  Name = 
REMARK  21 active torsions:
REMARK  status: ('A' for Active; 'I' for Inactive)
REMARK    1  A    between atoms: C_1  and  C_3
REMARK    2  A    between atoms: C_1  and  C_6
REMARK    3  A    between atoms: C_2  and  C_4
REMARK    4  A    between atoms: C_2  and  C_6
REMARK    5  A    between atoms: C_5  and  C_6
REMARK    6  A    between atoms: C_14  and  C_16
REMARK    7  A    between atoms: C_14  and  C_19
REMARK    8  A    between atoms: C_15  and  C_17
REMARK    9  A    between atoms: C_15  and  C_19
REMARK   10  A    between atoms: C_18  and  C_19
REMARK   11  A    between atoms: C_27  and  C_29
REMARK   12  A    between atoms: C_27  and  C_32
REMARK   13  A    between atoms: C_28  and  C_30
REMARK   14  A    between atoms: C_28  and  C_32
REMARK   15  A    between atoms: C_31  and  C_32
REMARK   16  A    between atoms: O_50  and  P_51
REMARK   17  A    between atoms: O_50  and  P_52
REMARK   18  A    between atoms: O_59  and  P_60
REMARK   19  A    between atoms: O_59  and  P_61
REMARK   20  A    between atoms: O_68  and  P_69
REMARK   21  A    between atoms: O_68  and  P_70
REMARK                            x       y       z     vdW  Elec       q    Type
REMARK                         _______ _______ _______ _____ _____    ______ ____
ROOT
ATOM      1  C   UNL     1      -5.278   1.614   0.000  0.00  0.00    +0.000 C 
ATOM      2  O   UNL     1      -5.690   2.329   0.000  0.00  0.00    +0.000 OA
ENDROOT
BRANCH   1   3
ATOM      3  C   UNL     1      -5.992   1.202   0.000  0.00  0.00    +0.000 C 
ATOM      4  O   UNL     1      -5.992   0.377   0.000  0.00  0.00    +0.000 OA
ATOM      5  O   UNL     1      -6.707   1.614   0.000  0.00  0.00    +0.000 OA
ENDBRANCH   1   3
BRANCH   1   6
ATOM      6  C   UNL     1      -4.563   2.027   0.000  0.00  0.00    +0.000 C 
BRANCH   6   7
ATOM      7  C   UNL     1      -4.563   2.852   0.000  0.00  0.00    +0.000 C 
ATOM      8  O   UNL     1      -3.849   3.264   0.000  0.00  0.00    +0.000 OA
ATOM      9  O   UNL     1      -5.278   3.264   0.000  0.00  0.00    +0.000 OA
ENDBRANCH   6   7
ENDBRANCH   1   6
BRANCH   1  10
ATOM     10  C   UNL     1      -4.865   0.900   0.000  0.00  0.00    +0.000 C 
BRANCH  10  11
ATOM     11  C   UNL     1      -4.040   0.900   0.000  0.00  0.00    +0.000 C 
ATOM     12  O   UNL     1      -3.628   0.185   0.000  0.00  0.00    +0.000 OA
ATOM     13  O   UNL     1      -3.628   1.614   0.000  0.00  0.00    +0.000 OA
ENDBRANCH  10  11
ENDBRANCH   1  10
TORSDOF 5
REMARK  Name = 
REMARK  21 active torsions:
REMARK  status: ('A' for Active; 'I' for Inactive)
REMARK    1  A    between atoms: C_1  and  C_3
REMARK    2  A    between atoms: C_1  and  C_6
REMARK    3  A    between atoms: C_2  and  C_4
REMARK    4  A    between atoms: C_2  and  C_6
REMARK    5  A    between atoms: C_5  and  C_6
REMARK    6  A    between atoms: C_14  and  C_16
REMARK    7  A    between atoms: C_14  and  C_19
REMARK    8  A    between atoms: C_15  and  C_17
REMARK    9  A    between atoms: C_15  and  C_19
REMARK   10  A    between atoms: C_18  and  C_19
REMARK   11  A    between atoms: C_27  and  C_29
REMARK   12  A    between atoms: C_27  and  C_32
REMARK   13  A    between atoms: C_28  and  C_30
REMARK   14  A    between atoms: C_28  and  C_32
REMARK   15  A    between atoms: C_31  and  C_32
REMARK   16  A    between atoms: O_50  and  P_51
REMARK   17  A    between atoms: O_50  and  P_52
REMARK   18  A    between atoms: O_59  and  P_60
REMARK   19  A    between atoms: O_59  and  P_61
REMARK   20  A    between atoms: O_68  and  P_69
REMARK   21  A    between atoms: O_68  and  P_70
REMARK                            x       y       z     vdW  Elec       q    Type
REMARK                         _______ _______ _______ _____ _____    ______ ____
ROOT
ATOM      1  C   UNL     1       0.453   1.656   0.000  0.00  0.00    +0.000 C 
ATOM      2  O   UNL     1       0.040   2.370   0.000  0.00  0.00    +0.000 OA
ENDROOT
BRANCH   1   3
ATOM      3  C   UNL     1      -0.262   1.244   0.000  0.00  0.00    +0.000 C 
ATOM      4  O   UNL     1      -0.262   0.418   0.000  0.00  0.00    +0.000 OA
ATOM      5  O   UNL     1      -0.976   1.656   0.000  0.00  0.00    +0.000 OA
ENDBRANCH   1   3
BRANCH   1   6
ATOM      6  C   UNL     1       1.167   2.068   0.000  0.00  0.00    +0.000 C 
BRANCH   6   7
ATOM      7  C   UNL     1       1.167   2.893   0.000  0.00  0.00    +0.000 C 
ATOM      8  O   UNL     1       1.882   3.306   0.000  0.00  0.00    +0.000 OA
ATOM      9  O   UNL     1       0.453   3.306   0.000  0.00  0.00    +0.000 OA
ENDBRANCH   6   7
ENDBRANCH   1   6
BRANCH   1  10
ATOM     10  C   UNL     1       0.865   0.942   0.000  0.00  0.00    +0.000 C 
BRANCH  10  11
ATOM     11  C   UNL     1       1.690   0.942   0.000  0.00  0.00    +0.000 C 
ATOM     12  O   UNL     1       2.103   1.656   0.000  0.00  0.00    +0.000 OA
ATOM     13  O   UNL     1       2.103   0.227   0.000  0.00  0.00    +0.000 OA
ENDBRANCH  10  11
ENDBRANCH   1  10
TORSDOF 5
REMARK  Name = 
REMARK  21 active torsions:
REMARK  status: ('A' for Active; 'I' for Inactive)
REMARK    1  A    between atoms: C_1  and  C_3
REMARK    2  A    between atoms: C_1  and  C_6
REMARK    3  A    between atoms: C_2  and  C_4
REMARK    4  A    between atoms: C_2  and  C_6
REMARK    5  A    between atoms: C_5  and  C_6
REMARK    6  A    between atoms: C_14  and  C_16
REMARK    7  A    between atoms: C_14  and  C_19
REMARK    8  A    between atoms: C_15  and  C_17
REMARK    9  A    between atoms: C_15  and  C_19
REMARK   10  A    between atoms: C_18  and  C_19
REMARK   11  A    between atoms: C_27  and  C_29
REMARK   12  A    between atoms: C_27  and  C_32
REMARK   13  A    between atoms: C_28  and  C_30
REMARK   14  A    between atoms: C_28  and  C_32
REMARK   15  A    between atoms: C_31  and  C_32
REMARK   16  A    between atoms: O_50  and  P_51
REMARK   17  A    between atoms: O_50  and  P_52
REMARK   18  A    between atoms: O_59  and  P_60
REMARK   19  A    between atoms: O_59  and  P_61
REMARK   20  A    between atoms: O_68  and  P_69
REMARK   21  A    between atoms: O_68  and  P_70
REMARK                            x       y       z     vdW  Elec       q    Type
REMARK                         _______ _______ _______ _____ _____    ______ ____
ROOT
ATOM      1  C   UNL     1       5.771   1.797   0.000  0.00  0.00    +0.000 C 
ATOM      2  O   UNL     1       5.359   2.511   0.000  0.00  0.00    +0.000 OA
ENDROOT
BRANCH   1   3
ATOM      3  C   UNL     1       5.057   1.385   0.000  0.00  0.00    +0.000 C 
ATOM      4  O   UNL     1       5.057   0.559   0.000  0.00  0.00    +0.000 OA
ATOM      5  O   UNL     1       4.342   1.797   0.000  0.00  0.00    +0.000 OA
ENDBRANCH   1   3
BRANCH   1   6
ATOM      6  C   UNL     1       6.486   2.209   0.000  0.00  0.00    +0.000 C 
BRANCH   6   7
ATOM      7  C   UNL     1       6.486   3.034   0.000  0.00  0.00    +0.000 C 
ATOM      8  O   UNL     1       5.771   3.447   0.000  0.00  0.00    +0.000 OA
ATOM      9  O   UNL     1       7.200   3.447   0.000  0.00  0.00    +0.000 OA
ENDBRANCH   6   7
ENDBRANCH   1   6
BRANCH   1  10
ATOM     10  C   UNL     1       6.184   1.083   0.000  0.00  0.00    +0.000 C 
BRANCH  10  11
ATOM     11  C   UNL     1       7.009   1.083   0.000  0.00  0.00    +0.000 C 
ATOM     12  O   UNL     1       7.421   1.797   0.000  0.00  0.00    +0.000 OA
ATOM     13  O   UNL     1       7.421   0.368   0.000  0.00  0.00    +0.000 OA
ENDBRANCH  10  11
ENDBRANCH   1  10
TORSDOF 5
REMARK  Name = 
REMARK  21 active torsions:
REMARK  status: ('A' for Active; 'I' for Inactive)
REMARK    1  A    between atoms: C_1  and  C_3
REMARK    2  A    between atoms: C_1  and  C_6
REMARK    3  A    between atoms: C_2  and  C_4
REMARK    4  A    between atoms: C_2  and  C_6
REMARK    5  A    between atoms: C_5  and  C_6
REMARK    6  A    between atoms: C_14  and  C_16
REMARK    7  A    between atoms: C_14  and  C_19
REMARK    8  A    between atoms: C_15  and  C_17
REMARK    9  A    between atoms: C_15  and  C_19
REMARK   10  A    between atoms: C_18  and  C_19
REMARK   11  A    between atoms: C_27  and  C_29
REMARK   12  A    between atoms: C_27  and  C_32
REMARK   13  A    between atoms: C_28  and  C_30
REMARK   14  A    between atoms: C_28  and  C_32
REMARK   15  A    between atoms: C_31  and  C_32
REMARK   16  A    between atoms: O_50  and  P_51
REMARK   17  A    between atoms: O_50  and  P_52
REMARK   18  A    between atoms: O_59  and  P_60
REMARK   19  A    between atoms: O_59  and  P_61
REMARK   20  A    between atoms: O_68  and  P_69
REMARK   21  A    between atoms: O_68  and  P_70
REMARK                            x       y       z     vdW  Elec       q    Type
REMARK                         _______ _______ _______ _____ _____    ______ ____
ROOT
ATOM      1 FE   UNL     1      -5.992   3.677   0.000  0.00  0.00    +0.000 Fe
ENDROOT
TORSDOF 0
REMARK  Name = 
REMARK  21 active torsions:
REMARK  status: ('A' for Active; 'I' for Inactive)
REMARK    1  A    between atoms: C_1  and  C_3
REMARK    2  A    between atoms: C_1  and  C_6
REMARK    3  A    between atoms: C_2  and  C_4
REMARK    4  A    between atoms: C_2  and  C_6
REMARK    5  A    between atoms: C_5  and  C_6
REMARK    6  A    between atoms: C_14  and  C_16
REMARK    7  A    between atoms: C_14  and  C_19
REMARK    8  A    between atoms: C_15  and  C_17
REMARK    9  A    between atoms: C_15  and  C_19
REMARK   10  A    between atoms: C_18  and  C_19
REMARK   11  A    between atoms: C_27  and  C_29
REMARK   12  A    between atoms: C_27  and  C_32
REMARK   13  A    between atoms: C_28  and  C_30
REMARK   14  A    between atoms: C_28  and  C_32
REMARK   15  A    between atoms: C_31  and  C_32
REMARK   16  A    between atoms: O_50  and  P_51
REMARK   17  A    between atoms: O_50  and  P_52
REMARK   18  A    between atoms: O_59  and  P_60
REMARK   19  A    between atoms: O_59  and  P_61
REMARK   20  A    between atoms: O_68  and  P_69
REMARK   21  A    between atoms: O_68  and  P_70
REMARK                            x       y       z     vdW  Elec       q    Type
REMARK                         _______ _______ _______ _____ _____    ______ ____
ROOT
ATOM      1 FE   UNL     1      -3.215   2.329   0.000  0.00  0.00    +0.000 Fe
ENDROOT
TORSDOF 0
REMARK  Name = 
REMARK  21 active torsions:
REMARK  status: ('A' for Active; 'I' for Inactive)
REMARK    1  A    between atoms: C_1  and  C_3
REMARK    2  A    between atoms: C_1  and  C_6
REMARK    3  A    between atoms: C_2  and  C_4
REMARK    4  A    between atoms: C_2  and  C_6
REMARK    5  A    between atoms: C_5  and  C_6
REMARK    6  A    between atoms: C_14  and  C_16
REMARK    7  A    between atoms: C_14  and  C_19
REMARK    8  A    between atoms: C_15  and  C_17
REMARK    9  A    between atoms: C_15  and  C_19
REMARK   10  A    between atoms: C_18  and  C_19
REMARK   11  A    between atoms: C_27  and  C_29
REMARK   12  A    between atoms: C_27  and  C_32
REMARK   13  A    between atoms: C_28  and  C_30
REMARK   14  A    between atoms: C_28  and  C_32
REMARK   15  A    between atoms: C_31  and  C_32
REMARK   16  A    between atoms: O_50  and  P_51
REMARK   17  A    between atoms: O_50  and  P_52
REMARK   18  A    between atoms: O_59  and  P_60
REMARK   19  A    between atoms: O_59  and  P_61
REMARK   20  A    between atoms: O_68  and  P_69
REMARK   21  A    between atoms: O_68  and  P_70
REMARK                            x       y       z     vdW  Elec       q    Type
REMARK                         _______ _______ _______ _____ _____    ______ ____
ROOT
ATOM      1 FE   UNL     1      -7.421   2.027   0.000  0.00  0.00    +0.000 Fe
ENDROOT
TORSDOF 0
REMARK  Name = 
REMARK  21 active torsions:
REMARK  status: ('A' for Active; 'I' for Inactive)
REMARK    1  A    between atoms: C_1  and  C_3
REMARK    2  A    between atoms: C_1  and  C_6
REMARK    3  A    between atoms: C_2  and  C_4
REMARK    4  A    between atoms: C_2  and  C_6
REMARK    5  A    between atoms: C_5  and  C_6
REMARK    6  A    between atoms: C_14  and  C_16
REMARK    7  A    between atoms: C_14  and  C_19
REMARK    8  A    between atoms: C_15  and  C_17
REMARK    9  A    between atoms: C_15  and  C_19
REMARK   10  A    between atoms: C_18  and  C_19
REMARK   11  A    between atoms: C_27  and  C_29
REMARK   12  A    between atoms: C_27  and  C_32
REMARK   13  A    between atoms: C_28  and  C_30
REMARK   14  A    between atoms: C_28  and  C_32
REMARK   15  A    between atoms: C_31  and  C_32
REMARK   16  A    between atoms: O_50  and  P_51
REMARK   17  A    between atoms: O_50  and  P_52
REMARK   18  A    between atoms: O_59  and  P_60
REMARK   19  A    between atoms: O_59  and  P_61
REMARK   20  A    between atoms: O_68  and  P_69
REMARK   21  A    between atoms: O_68  and  P_70
REMARK                            x       y       z     vdW  Elec       q    Type
REMARK                         _______ _______ _______ _____ _____    ______ ____
ROOT
ATOM      1 FE   UNL     1      -0.262   3.719   0.000  0.00  0.00    +0.000 Fe
ENDROOT
TORSDOF 0
REMARK  Name = 
REMARK  21 active torsions:
REMARK  status: ('A' for Active; 'I' for Inactive)
REMARK    1  A    between atoms: C_1  and  C_3
REMARK    2  A    between atoms: C_1  and  C_6
REMARK    3  A    between atoms: C_2  and  C_4
REMARK    4  A    between atoms: C_2  and  C_6
REMARK    5  A    between atoms: C_5  and  C_6
REMARK    6  A    between atoms: C_14  and  C_16
REMARK    7  A    between atoms: C_14  and  C_19
REMARK    8  A    between atoms: C_15  and  C_17
REMARK    9  A    between atoms: C_15  and  C_19
REMARK   10  A    between atoms: C_18  and  C_19
REMARK   11  A    between atoms: C_27  and  C_29
REMARK   12  A    between atoms: C_27  and  C_32
REMARK   13  A    between atoms: C_28  and  C_30
REMARK   14  A    between atoms: C_28  and  C_32
REMARK   15  A    between atoms: C_31  and  C_32
REMARK   16  A    between atoms: O_50  and  P_51
REMARK   17  A    between atoms: O_50  and  P_52
REMARK   18  A    between atoms: O_59  and  P_60
REMARK   19  A    between atoms: O_59  and  P_61
REMARK   20  A    between atoms: O_68  and  P_69
REMARK   21  A    between atoms: O_68  and  P_70
REMARK                            x       y       z     vdW  Elec       q    Type
REMARK                         _______ _______ _______ _____ _____    ______ ____
ROOT
ATOM      1  O   UNL     1      -4.815  -2.289   0.000  0.00  0.00    +0.000 OA
ENDROOT
BRANCH   1   5
ATOM      2  O   UNL     1      -3.990  -3.719   0.000  0.00  0.00    +0.000 OA
ATOM      3  O   UNL     1      -3.688  -2.591   0.000  0.00  0.00    +0.000 OA
ATOM      4  O   UNL     1      -5.117  -3.417   0.000  0.00  0.00    +0.000 OA
ATOM      5  P   UNL     1      -4.402  -3.004   0.000  0.00  0.00    +0.000 P 
ENDBRANCH   1   5
BRANCH   1   9
ATOM      6  O   UNL     1      -6.465  -2.289   0.000  0.00  0.00    +0.000 OA
ATOM      7  O   UNL     1      -5.640  -1.464   0.000  0.00  0.00    +0.000 OA
ATOM      8  O   UNL     1      -5.640  -3.115   0.000  0.00  0.00    +0.000 OA
ATOM      9  P   UNL     1      -5.640  -2.289   0.000  0.00  0.00    +0.000 P 
ENDBRANCH   1   9
TORSDOF 2
REMARK  Name = 
REMARK  21 active torsions:
REMARK  status: ('A' for Active; 'I' for Inactive)
REMARK    1  A    between atoms: C_1  and  C_3
REMARK    2  A    between atoms: C_1  and  C_6
REMARK    3  A    between atoms: C_2  and  C_4
REMARK    4  A    between atoms: C_2  and  C_6
REMARK    5  A    between atoms: C_5  and  C_6
REMARK    6  A    between atoms: C_14  and  C_16
REMARK    7  A    between atoms: C_14  and  C_19
REMARK    8  A    between atoms: C_15  and  C_17
REMARK    9  A    between atoms: C_15  and  C_19
REMARK   10  A    between atoms: C_18  and  C_19
REMARK   11  A    between atoms: C_27  and  C_29
REMARK   12  A    between atoms: C_27  and  C_32
REMARK   13  A    between atoms: C_28  and  C_30
REMARK   14  A    between atoms: C_28  and  C_32
REMARK   15  A    between atoms: C_31  and  C_32
REMARK   16  A    between atoms: O_50  and  P_51
REMARK   17  A    between atoms: O_50  and  P_52
REMARK   18  A    between atoms: O_59  and  P_60
REMARK   19  A    between atoms: O_59  and  P_61
REMARK   20  A    between atoms: O_68  and  P_69
REMARK   21  A    between atoms: O_68  and  P_70
REMARK                            x       y       z     vdW  Elec       q    Type
REMARK                         _______ _______ _______ _____ _____    ______ ____
ROOT
ATOM      1  O   UNL     1      -0.152  -2.289   0.000  0.00  0.00    +0.000 OA
ENDROOT
BRANCH   1   5
ATOM      2  O   UNL     1       0.673  -3.719   0.000  0.00  0.00    +0.000 OA
ATOM      3  O   UNL     1       0.975  -2.591   0.000  0.00  0.00    +0.000 OA
ATOM      4  O   UNL     1      -0.454  -3.417   0.000  0.00  0.00    +0.000 OA
ATOM      5  P   UNL     1       0.260  -3.004   0.000  0.00  0.00    +0.000 P 
ENDBRANCH   1   5
BRANCH   1   9
ATOM      6  O   UNL     1      -1.802  -2.289   0.000  0.00  0.00    +0.000 OA
ATOM      7  O   UNL     1      -0.977  -1.464   0.000  0.00  0.00    +0.000 OA
ATOM      8  O   UNL     1      -0.977  -3.115   0.000  0.00  0.00    +0.000 OA
ATOM      9  P   UNL     1      -0.977  -2.289   0.000  0.00  0.00    +0.000 P 
ENDBRANCH   1   9
TORSDOF 2
REMARK  Name = 
REMARK  21 active torsions:
REMARK  status: ('A' for Active; 'I' for Inactive)
REMARK    1  A    between atoms: C_1  and  C_3
REMARK    2  A    between atoms: C_1  and  C_6
REMARK    3  A    between atoms: C_2  and  C_4
REMARK    4  A    between atoms: C_2  and  C_6
REMARK    5  A    between atoms: C_5  and  C_6
REMARK    6  A    between atoms: C_14  and  C_16
REMARK    7  A    between atoms: C_14  and  C_19
REMARK    8  A    between atoms: C_15  and  C_17
REMARK    9  A    between atoms: C_15  and  C_19
REMARK   10  A    between atoms: C_18  and  C_19
REMARK   11  A    between atoms: C_27  and  C_29
REMARK   12  A    between atoms: C_27  and  C_32
REMARK   13  A    between atoms: C_28  and  C_30
REMARK   14  A    between atoms: C_28  and  C_32
REMARK   15  A    between atoms: C_31  and  C_32
REMARK   16  A    between atoms: O_50  and  P_51
REMARK   17  A    between atoms: O_50  and  P_52
REMARK   18  A    between atoms: O_59  and  P_60
REMARK   19  A    between atoms: O_59  and  P_61
REMARK   20  A    between atoms: O_68  and  P_69
REMARK   21  A    between atoms: O_68  and  P_70
REMARK                            x       y       z     vdW  Elec       q    Type
REMARK                         _______ _______ _______ _____ _____    ______ ____
ROOT
ATOM      1  O   UNL     1       4.511  -2.289   0.000  0.00  0.00    +0.000 OA
ENDROOT
BRANCH   1   5
ATOM      2  O   UNL     1       5.336  -3.719   0.000  0.00  0.00    +0.000 OA
ATOM      3  O   UNL     1       5.638  -2.591   0.000  0.00  0.00    +0.000 OA
ATOM      4  O   UNL     1       4.209  -3.417   0.000  0.00  0.00    +0.000 OA
ATOM      5  P   UNL     1       4.923  -3.004   0.000  0.00  0.00    +0.000 P 
ENDBRANCH   1   5
BRANCH   1   9
ATOM      6  O   UNL     1       2.861  -2.289   0.000  0.00  0.00    +0.000 OA
ATOM      7  O   UNL     1       3.686  -1.464   0.000  0.00  0.00    +0.000 OA
ATOM      8  O   UNL     1       3.686  -3.115   0.000  0.00  0.00    +0.000 OA
ATOM      9  P   UNL     1       3.686  -2.289   0.000  0.00  0.00    +0.000 P 
ENDBRANCH   1   9
TORSDOF 2
