REMARK  Name = 
REMARK  6 active torsions:
REMARK  status: ('A' for Active; 'I' for Inactive)
REMARK    1  A    between atoms: C_2  and  C_3
REMARK    2  A    between atoms: C_15  and  O_28
REMARK    3  A    between atoms: C_16  and  O_18
REMARK    4  A    between atoms: O_18  and  C_19
REMARK    5  A    between atoms: C_19  and  C_20
REMARK    6  A    between atoms: C_23  and  O_26
REMARK                            x       y       z     vdW  Elec       q    Type
REMARK                         _______ _______ _______ _____ _____    ______ ____
ROOT
ATOM      1  C   UNL     1       4.014   0.412   0.000  0.00  0.00    +0.000 A 
ATOM      2  C   UNL     1       3.602  -0.302   0.000  0.00  0.00    +0.000 A 
ATOM      3  C   UNL     1       2.777  -0.302   0.000  0.00  0.00    +0.000 A 
ATOM      4  C   UNL     1       2.365   0.412   0.000  0.00  0.00    +0.000 A 
ATOM      5  C   UNL     1       2.777   1.127   0.000  0.00  0.00    +0.000 A 
ATOM      6  C   UNL     1       3.602   1.127   0.000  0.00  0.00    +0.000 A 
ATOM      7  C   UNL     1       2.365   1.841   0.000  0.00  0.00    +0.000 A 
ATOM      8  O   UNL     1       2.777   2.556   0.000  0.00  0.00    +0.000 OA
ATOM      9  O   UNL     1       1.540   1.841   0.000  0.00  0.00    +0.000 OA
ATOM     10  C   UNL     1       1.127   1.127   0.000  0.00  0.00    +0.000 A 
ATOM     11  C   UNL     1       1.540   0.412   0.000  0.00  0.00    +0.000 A 
ATOM     12  C   UNL     1       1.127  -0.302   0.000  0.00  0.00    +0.000 A 
ATOM     13  C   UNL     1       0.302  -0.302   0.000  0.00  0.00    +0.000 A 
ATOM     14  C   UNL     1      -0.111   0.412   0.000  0.00  0.00    +0.000 A 
ATOM     15  C   UNL     1       0.302   1.127   0.000  0.00  0.00    +0.000 A 
ENDROOT
BRANCH   1  17
ATOM     16  C   UNL     1       5.252   1.127   0.000  0.00  0.00    +0.000 C 
ATOM     17  C   UNL     1       4.840   0.412   0.000  0.00  0.00    +0.000 C 
ATOM     18  O   UNL     1       5.252  -0.302   0.000  0.00  0.00    +0.000 OA
ENDBRANCH   1  17
BRANCH  13  19
ATOM     19  O   UNL     1      -0.111  -1.016   0.000  0.00  0.00    +0.000 OA
ATOM     20  C   UNL     1      -0.935  -1.016   0.000  0.00  0.00    +0.000 C 
ENDBRANCH  13  19
BRANCH  14  21
ATOM     21  O   UNL     1      -0.935   0.412   0.000  0.00  0.00    +0.000 OA
BRANCH  21  22
ATOM     22  C   UNL     1      -1.348  -0.302   0.000  0.00  0.00    +0.000 C 
BRANCH  22  23
ATOM     23  C   UNL     1      -2.173  -0.302   0.000  0.00  0.00    +0.000 A 
ATOM     24  C   UNL     1      -2.586  -1.016   0.000  0.00  0.00    +0.000 A 
ATOM     25  C   UNL     1      -3.410  -1.016   0.000  0.00  0.00    +0.000 A 
ATOM     26  C   UNL     1      -3.823  -0.302   0.000  0.00  0.00    +0.000 A 
ATOM     27  C   UNL     1      -3.410   0.412   0.000  0.00  0.00    +0.000 A 
ATOM     28  C   UNL     1      -2.586   0.412   0.000  0.00  0.00    +0.000 A 
BRANCH  26  29
ATOM     29  O   UNL     1      -4.648  -0.302   0.000  0.00  0.00    +0.000 OA
ATOM     30  C   UNL     1      -5.061  -1.016   0.000  0.00  0.00    +0.000 C 
ENDBRANCH  26  29
ENDBRANCH  22  23
ENDBRANCH  21  22
ENDBRANCH  14  21
TORSDOF 6
