REMARK  Name = 
REMARK  8 active torsions:
REMARK  status: ('A' for Active; 'I' for Inactive)
REMARK    1  A    between atoms: C_2  and  C_3
REMARK    2  A    between atoms: C_2  and  N_25
REMARK    3  A    between atoms: N_5  and  C_6
REMARK    4  A    between atoms: N_19  and  C_22
REMARK    5  A    between atoms: C_22  and  C_23
REMARK    6  A    between atoms: C_26  and  C_28
REMARK    7  A    between atoms: C_28  and  C_29
REMARK    8  A    between atoms: C_29  and  C_30
REMARK                            x       y       z     vdW  Elec       q    Type
REMARK                         _______ _______ _______ _____ _____    ______ ____
ROOT
ATOM      1  C   UNL     1      -0.253  -0.906   0.000  0.00  0.00    +0.000 C 
ATOM      2  C   UNL     1      -0.935  -1.371   0.000  0.00  0.00    +0.000 A 
ATOM      3  C   UNL     1      -0.751  -2.175   0.000  0.00  0.00    +0.000 A 
ATOM      4  C   UNL     1      -1.356  -2.736   0.000  0.00  0.00    +0.000 A 
ATOM      5  C   UNL     1      -2.144  -2.493   0.000  0.00  0.00    +0.000 A 
ATOM      6  C   UNL     1      -2.328  -1.689   0.000  0.00  0.00    +0.000 A 
ATOM      7  C   UNL     1      -1.723  -1.128   0.000  0.00  0.00    +0.000 A 
ATOM      8  C   UNL     1      -2.024  -0.360   0.000  0.00  0.00    +0.000 A 
ATOM      9  C   UNL     1      -2.849  -0.360   0.000  0.00  0.00    +0.000 A 
ATOM     10  C   UNL     1      -3.262   0.355   0.000  0.00  0.00    +0.000 A 
ATOM     11  C   UNL     1      -2.849   1.069   0.000  0.00  0.00    +0.000 A 
ATOM     12  N   UNL     1      -2.024   1.069   0.000  0.00  0.00    +0.000 NA
ATOM     13  C   UNL     1      -1.612   0.355   0.000  0.00  0.00    +0.000 A 
ATOM     14  N   UNL     1      -0.796   0.478   0.000  0.00  0.00    +0.000 N 
ATOM     15  C   UNL     1      -0.191  -0.084   0.000  0.00  0.00    +0.000 C 
ATOM     16  O   UNL     1       0.577   0.218   0.000  0.00  0.00    +0.000 OA
ENDROOT
BRANCH   1  19
ATOM     17  C   UNL     1       1.176  -0.906   0.000  0.00  0.00    +0.000 C 
ATOM     18  O   UNL     1       1.176  -0.081   0.000  0.00  0.00    +0.000 OA
ATOM     19  N   UNL     1       0.461  -1.319   0.000  0.00  0.00    +0.000 NA
BRANCH  17  21
ATOM     20  C   UNL     1       1.890  -2.144   0.000  0.00  0.00    +0.000 C 
ATOM     21  C   UNL     1       1.890  -1.319   0.000  0.00  0.00    +0.000 C 
BRANCH  21  22
ATOM     22  N   UNL     1       2.605  -0.906   0.000  0.00  0.00    +0.000 NA
ATOM     23  C   UNL     1       3.319  -1.319   0.000  0.00  0.00    +0.000 C 
ATOM     24  O   UNL     1       3.319  -2.144   0.000  0.00  0.00    +0.000 OA
BRANCH  23  25
ATOM     25  C   UNL     1       4.034  -0.906   0.000  0.00  0.00    +0.000 C 
BRANCH  25  26
ATOM     26  C   UNL     1       4.748  -1.319   0.000  0.00  0.00    +0.000 C 
BRANCH  26  27
ATOM     27  C   UNL     1       5.463  -0.906   0.000  0.00  0.00    +0.000 C 
ATOM     28  F   UNL     1       6.177  -0.494   0.000  0.00  0.00    +0.000 F 
ATOM     29  F   UNL     1       5.875  -1.621   0.000  0.00  0.00    +0.000 F 
ATOM     30  F   UNL     1       5.050  -0.192   0.000  0.00  0.00    +0.000 F 
ENDBRANCH  26  27
ENDBRANCH  25  26
ENDBRANCH  23  25
ENDBRANCH  21  22
ENDBRANCH  17  21
ENDBRANCH   1  19
BRANCH  14  31
ATOM     31  C   UNL     1      -0.553   1.266   0.000  0.00  0.00    +0.000 C 
BRANCH  31  32
ATOM     32  C   UNL     1      -1.114   1.871   0.000  0.00  0.00    +0.000 C 
ATOM     33  O   UNL     1      -0.871   2.659   0.000  0.00  0.00    +0.000 OA
ENDBRANCH  31  32
ENDBRANCH  14  31
TORSDOF 8
