REMARK  Name = 
REMARK  3 active torsions:
REMARK  status: ('A' for Active; 'I' for Inactive)
REMARK    1  A    between atoms: C_1  and  C_2
REMARK    2  A    between atoms: C_1  and  C_3
REMARK    3  A    between atoms: C_2  and  C_5
REMARK                            x       y       z     vdW  Elec       q    Type
REMARK                         _______ _______ _______ _____ _____    ______ ____
ROOT
ATOM      1  C   UNL     1       0.355   0.207   0.000  0.00  0.00    +0.000 C 
ATOM      2  S   UNL     1       0.355   1.033   0.000  0.00  0.00    +0.000 S 
ENDROOT
BRANCH   1   3
ATOM      3  C   UNL     1       1.071  -0.203   0.000  0.00  0.00    +0.000 C 
ATOM      4  O   UNL     1       1.787   0.210   0.000  0.00  0.00    +0.000 OA
ATOM      5  O   UNL     1       1.074  -1.029   0.000  0.00  0.00    +0.000 OA
ENDBRANCH   1   3
BRANCH   1   6
ATOM      6  C   UNL     1      -0.354  -0.206   0.000  0.00  0.00    +0.000 C 
ATOM      7  S   UNL     1      -0.354  -1.033   0.000  0.00  0.00    +0.000 S 
BRANCH   6   8
ATOM      8  C   UNL     1      -1.071   0.203   0.000  0.00  0.00    +0.000 C 
ATOM      9  O   UNL     1      -1.787  -0.210   0.000  0.00  0.00    +0.000 OA
ATOM     10  O   UNL     1      -1.074   1.029   0.000  0.00  0.00    +0.000 OA
ENDBRANCH   6   8
ENDBRANCH   1   6
TORSDOF 3
