REMARK  Name = 
REMARK  4 active torsions:
REMARK  status: ('A' for Active; 'I' for Inactive)
REMARK    1  A    between atoms: C_1  and  O_17
REMARK    2  A    between atoms: O_17  and  C_18
REMARK    3  A    between atoms: C_18  and  C_19
REMARK    4  A    between atoms: C_19  and  N_20
REMARK                            x       y       z     vdW  Elec       q    Type
REMARK                         _______ _______ _______ _____ _____    ______ ____
ROOT
ATOM      1  C   UNL     1       0.041   0.069   0.000  0.00  0.00    +0.000 C 
ATOM      2  C   UNL     1      -0.455   0.731   0.000  0.00  0.00    +0.000 A 
ATOM      3  C   UNL     1      -0.248   1.518   0.000  0.00  0.00    +0.000 A 
ATOM      4  S   UNL     1       0.497   1.849   0.000  0.00  0.00    +0.000 S 
ATOM      5  C   UNL     1       0.870   0.069   0.000  0.00  0.00    +0.000 C 
ATOM      6  C   UNL     1       1.242   1.476   0.000  0.00  0.00    +0.000 A 
ATOM      7  C   UNL     1       1.408   0.690   0.000  0.00  0.00    +0.000 A 
ATOM      8  C   UNL     1      -0.870   2.098   0.000  0.00  0.00    +0.000 A 
ATOM      9  C   UNL     1      -1.656   1.849   0.000  0.00  0.00    +0.000 A 
ATOM     10  C   UNL     1      -1.863   1.062   0.000  0.00  0.00    +0.000 A 
ATOM     11  C   UNL     1      -1.242   0.483   0.000  0.00  0.00    +0.000 A 
ATOM     12  C   UNL     1       2.195   0.441   0.000  0.00  0.00    +0.000 A 
ATOM     13  C   UNL     1       2.816   0.980   0.000  0.00  0.00    +0.000 A 
ATOM     14  C   UNL     1       2.650   1.808   0.000  0.00  0.00    +0.000 A 
ATOM     15  C   UNL     1       1.863   2.056   0.000  0.00  0.00    +0.000 A 
ATOM     16 CL   UNL     1      -2.650   0.814   0.000  0.00  0.00    +0.000 Cl
ENDROOT
BRANCH   1  17
ATOM     17  O   UNL     1      -0.331  -0.677   0.000  0.00  0.00    +0.000 OA
BRANCH  17  18
ATOM     18  C   UNL     1      -1.159  -0.677   0.000  0.00  0.00    +0.000 C 
BRANCH  18  19
ATOM     19  C   UNL     1      -1.573  -1.380   0.000  0.00  0.00    +0.000 C 
BRANCH  19  20
ATOM     20  N   UNL     1      -2.401  -1.380   0.000  0.00  0.00    +0.000 NA
ATOM     21  C   UNL     1      -2.816  -0.663   0.000  0.00  0.00    +0.000 C 
ATOM     22  C   UNL     1      -2.816  -2.098   0.000  0.00  0.00    +0.000 C 
ENDBRANCH  19  20
ENDBRANCH  18  19
ENDBRANCH  17  18
ENDBRANCH   1  17
TORSDOF 4
