REMARK  Name = 
REMARK  4 active torsions:
REMARK  status: ('A' for Active; 'I' for Inactive)
REMARK    1  A    between atoms: C_10  and  C_13
REMARK    2  A    between atoms: C_13  and  C_14
REMARK    3  A    between atoms: C_14  and  N_15
REMARK    4  A    between atoms: C_18  and  C_21
REMARK                            x       y       z     vdW  Elec       q    Type
REMARK                         _______ _______ _______ _____ _____    ______ ____
ROOT
ATOM      1  N   UNL     1       4.627   7.085   0.000  0.00  0.00    +0.000 NA
ATOM      2  C   UNL     1       5.434   6.913   0.000  0.00  0.00    +0.000 C 
ATOM      3  C   UNL     1       5.689   6.128   0.000  0.00  0.00    +0.000 C 
ATOM      4  C   UNL     1       5.137   5.516   0.000  0.00  0.00    +0.000 C 
ATOM      5  C   UNL     1       4.330   5.687   0.000  0.00  0.00    +0.000 C 
ATOM      6  C   UNL     1       4.075   6.472   0.000  0.00  0.00    +0.000 C 
ENDROOT
BRANCH   4   7
ATOM      7  C   UNL     1       5.392   4.731   0.000  0.00  0.00    +0.000 A 
ATOM      8  C   UNL     1       6.177   4.476   0.000  0.00  0.00    +0.000 A 
ATOM      9  C   UNL     1       6.891   4.888   0.000  0.00  0.00    +0.000 A 
ATOM     10  C   UNL     1       7.606   4.476   0.000  0.00  0.00    +0.000 A 
ATOM     11  C   UNL     1       7.606   3.651   0.000  0.00  0.00    +0.000 A 
ATOM     12  C   UNL     1       6.891   3.238   0.000  0.00  0.00    +0.000 A 
ATOM     13  C   UNL     1       6.177   3.651   0.000  0.00  0.00    +0.000 A 
ATOM     14  O   UNL     1       5.392   3.396   0.000  0.00  0.00    +0.000 OA
ATOM     15  N   UNL     1       4.907   4.063   0.000  0.00  0.00    +0.000 NA
ATOM     16  F   UNL     1       8.320   3.238   0.000  0.00  0.00    +0.000 F 
ENDBRANCH   4   7
BRANCH   1  17
ATOM     17  C   UNL     1       4.372   7.869   0.000  0.00  0.00    +0.000 C 
BRANCH  17  18
ATOM     18  C   UNL     1       3.566   8.041   0.000  0.00  0.00    +0.000 C 
BRANCH  18  28
ATOM     19  C   UNL     1       3.098  11.792   0.000  0.00  0.00    +0.000 C 
ATOM     20  C   UNL     1       2.546  11.179   0.000  0.00  0.00    +0.000 A 
ATOM     21  C   UNL     1       1.739  11.351   0.000  0.00  0.00    +0.000 A 
ATOM     22  C   UNL     1       1.187  10.738   0.000  0.00  0.00    +0.000 A 
ATOM     23  C   UNL     1       1.442   9.953   0.000  0.00  0.00    +0.000 A 
ATOM     24  N   UNL     1       2.249   9.782   0.000  0.00  0.00    +0.000 N 
ATOM     25  C   UNL     1       2.801  10.395   0.000  0.00  0.00    +0.000 A 
ATOM     26  N   UNL     1       3.608  10.223   0.000  0.00  0.00    +0.000 NA
ATOM     27  C   UNL     1       3.863   9.439   0.000  0.00  0.00    +0.000 A 
ATOM     28  C   UNL     1       3.311   8.825   0.000  0.00  0.00    +0.000 A 
ATOM     29  C   UNL     1       2.504   8.997   0.000  0.00  0.00    +0.000 A 
ATOM     30  O   UNL     1       1.952   8.384   0.000  0.00  0.00    +0.000 OA
ATOM     31  C   UNL     1       4.670   9.267   0.000  0.00  0.00    +0.000 C 
ENDBRANCH  18  28
ENDBRANCH  17  18
ENDBRANCH   1  17
TORSDOF 4
