REMARK  Name = 
REMARK  13 active torsions:
REMARK  status: ('A' for Active; 'I' for Inactive)
REMARK    1  A    between atoms: C_1  and  C_7
REMARK    2  A    between atoms: C_8  and  C_13
REMARK    3  A    between atoms: C_13  and  N_19
REMARK    4  A    between atoms: C_21  and  N_22
REMARK    5  A    between atoms: C_23  and  C_25
REMARK    6  A    between atoms: C_25  and  N_26
REMARK    7  A    between atoms: C_25  and  C_30
REMARK    8  A    between atoms: C_30  and  C_31
REMARK    9  A    between atoms: C_35  and  C_36
REMARK   10  A    between atoms: C_36  and  O_47
REMARK   11  A    between atoms: C_37  and  C_45
REMARK   12  A    between atoms: C_38  and  C_45
REMARK   13  A    between atoms: C_40  and  C_45
REMARK                            x       y       z     vdW  Elec       q    Type
REMARK                         _______ _______ _______ _____ _____    ______ ____
ROOT
ATOM      1  N   UNL     1       0.362   0.340   0.000  0.00  0.00    +0.000 NA
ATOM      2  C   UNL     1       1.085   0.760   0.000  0.00  0.00    +0.000 C 
ATOM      3  O   UNL     1       1.085   1.585   0.000  0.00  0.00    +0.000 OA
ENDROOT
BRANCH   1  11
ATOM      4  C   UNL     1      -2.070   1.295   0.000  0.00  0.00    +0.000 C 
ATOM      5  C   UNL     1      -2.316   0.499   0.000  0.00  0.00    +0.000 C 
ATOM      6  C   UNL     1      -1.028  -0.253   0.000  0.00  0.00    +0.000 C 
ATOM      7  C   UNL     1      -0.579   1.165   0.000  0.00  0.00    +0.000 C 
ATOM      8  C   UNL     1      -1.288   1.585   0.000  0.00  0.00    +0.000 C 
ATOM      9  N   UNL     1      -1.853  -0.181   0.000  0.00  0.00    +0.000 N 
ATOM     10  O   UNL     1      -0.738  -1.035   0.000  0.00  0.00    +0.000 OA
ATOM     11  C   UNL     1      -0.463   0.340   0.000  0.00  0.00    +0.000 C 
BRANCH   9  12
ATOM     12  C   UNL     1      -2.272  -0.904   0.000  0.00  0.00    +0.000 C 
BRANCH  12  14
ATOM     13  C   UNL     1      -4.747  -0.904   0.000  0.00  0.00    +0.000 A 
ATOM     14  C   UNL     1      -3.097  -0.904   0.000  0.00  0.00    +0.000 A 
ATOM     15  C   UNL     1      -3.517  -0.181   0.000  0.00  0.00    +0.000 A 
ATOM     16  C   UNL     1      -4.342  -0.181   0.000  0.00  0.00    +0.000 A 
ATOM     17  C   UNL     1      -4.342  -1.614   0.000  0.00  0.00    +0.000 A 
ATOM     18  C   UNL     1      -3.517  -1.614   0.000  0.00  0.00    +0.000 A 
BRANCH  13  19
ATOM     19  C   UNL     1      -5.587  -0.904   0.000  0.00  0.00    +0.000 A 
ATOM     20  C   UNL     1      -5.992  -0.181   0.000  0.00  0.00    +0.000 A 
ATOM     21  C   UNL     1      -6.817  -0.181   0.000  0.00  0.00    +0.000 A 
ATOM     22  C   UNL     1      -7.236  -0.904   0.000  0.00  0.00    +0.000 A 
ATOM     23  C   UNL     1      -6.817  -1.614   0.000  0.00  0.00    +0.000 A 
ATOM     24  C   UNL     1      -5.992  -1.614   0.000  0.00  0.00    +0.000 A 
ENDBRANCH  13  19
ENDBRANCH  12  14
ENDBRANCH   9  12
ENDBRANCH   1  11
BRANCH   2  25
ATOM     25  C   UNL     1       1.795   0.340   0.000  0.00  0.00    +0.000 C 
BRANCH  25  26
ATOM     26  N   UNL     1       1.795  -0.485   0.000  0.00  0.00    +0.000 NA
ATOM     27  C   UNL     1       2.518  -0.904   0.000  0.00  0.00    +0.000 C 
ATOM     28  C   UNL     1       3.227  -0.485   0.000  0.00  0.00    +0.000 C 
ATOM     29  O   UNL     1       2.518  -1.729   0.000  0.00  0.00    +0.000 OA
ENDBRANCH  25  26
BRANCH  25  30
ATOM     30  C   UNL     1       2.518   0.760   0.000  0.00  0.00    +0.000 C 
BRANCH  30  31
ATOM     31  C   UNL     1       3.343   0.760   0.000  0.00  0.00    +0.000 A 
ATOM     32  C   UNL     1       4.588   1.469   0.000  0.00  0.00    +0.000 A 
ATOM     33  C   UNL     1       3.748   1.469   0.000  0.00  0.00    +0.000 A 
ATOM     34  C   UNL     1       3.748   0.036   0.000  0.00  0.00    +0.000 A 
ATOM     35  C   UNL     1       4.588   0.036   0.000  0.00  0.00    +0.000 A 
ATOM     36  C   UNL     1       4.993   0.760   0.000  0.00  0.00    +0.000 A 
BRANCH  35  37
ATOM     37  C   UNL     1       4.790  -0.760   0.000  0.00  0.00    +0.000 C 
ATOM     38  O   UNL     1       5.615  -0.861   0.000  0.00  0.00    +0.000 OA
BRANCH  37  39
ATOM     39  O   UNL     1       4.385  -1.469   0.000  0.00  0.00    +0.000 OA
ATOM     40  C   UNL     1       4.790  -2.193   0.000  0.00  0.00    +0.000 C 
ENDBRANCH  37  39
ENDBRANCH  35  37
BRANCH  36  41
ATOM     41  C   UNL     1       5.818   0.760   0.000  0.00  0.00    +0.000 C 
ATOM     42  F   UNL     1       6.657   0.760   0.000  0.00  0.00    +0.000 F 
BRANCH  41  43
ATOM     43  C   UNL     1       6.238   1.469   0.000  0.00  0.00    +0.000 C 
ATOM     44  O   UNL     1       5.818   2.193   0.000  0.00  0.00    +0.000 OA
ATOM     45  O   UNL     1       7.063   1.469   0.000  0.00  0.00    +0.000 OA
ENDBRANCH  41  43
BRANCH  41  46
ATOM     46  C   UNL     1       6.412   0.166   0.000  0.00  0.00    +0.000 C 
ATOM     47  O   UNL     1       6.093  -0.586   0.000  0.00  0.00    +0.000 OA
ATOM     48  O   UNL     1       7.236   0.166   0.000  0.00  0.00    +0.000 OA
ENDBRANCH  41  46
ENDBRANCH  36  41
ENDBRANCH  30  31
ENDBRANCH  25  30
ENDBRANCH   2  25
TORSDOF 13
