REMARK  Name = 
REMARK  22 active torsions:
REMARK  status: ('A' for Active; 'I' for Inactive)
REMARK    1  A    between atoms: C_1  and  N_38
REMARK    2  A    between atoms: C_4  and  C_32
REMARK    3  A    between atoms: C_5  and  O_33
REMARK    4  A    between atoms: C_7  and  C_8
REMARK    5  A    between atoms: C_7  and  N_9
REMARK    6  A    between atoms: C_8  and  S_48
REMARK    7  A    between atoms: C_10  and  C_13
REMARK    8  A    between atoms: C_12  and  C_13
REMARK    9  A    between atoms: C_12  and  N_14
REMARK   10  A    between atoms: C_16  and  C_21
REMARK   11  A    between atoms: C_17  and  C_19
REMARK   12  A    between atoms: C_17  and  O_23
REMARK   13  A    between atoms: C_19  and  C_21
REMARK   14  A    between atoms: O_23  and  P_30
REMARK   15  A    between atoms: O_24  and  P_30
REMARK   16  A    between atoms: O_24  and  P_31
REMARK   17  A    between atoms: O_25  and  P_31
REMARK   18  A    between atoms: O_25  and  C_32
REMARK   19  A    between atoms: O_33  and  P_36
REMARK   20  A    between atoms: S_48  and  C_49
REMARK   21  A    between atoms: C_49  and  C_54
REMARK   22  A    between atoms: C_52  and  C_54
REMARK                            x       y       z     vdW  Elec       q    Type
REMARK                         _______ _______ _______ _____ _____    ______ ____
ROOT
ATOM      1  O   UNL     1      -2.504   2.631   0.000  0.00  0.00    +0.000 OA
ATOM      2  O   UNL     1      -2.504   0.982   0.000  0.00  0.00    +0.000 OA
ATOM      3  P   UNL     1      -2.504   1.806   0.000  0.00  0.00    +0.000 P 
ENDROOT
BRANCH   3   4
ATOM      4  O   UNL     1      -3.329   1.806   0.000  0.00  0.00    +0.000 OA
BRANCH   4   5
ATOM      5  C   UNL     1      -4.043   1.394   0.000  0.00  0.00    +0.000 C 
BRANCH   5   7
ATOM      6  C   UNL     1      -5.170   2.521   0.000  0.00  0.00    +0.000 C 
ATOM      7  C   UNL     1      -4.758   1.806   0.000  0.00  0.00    +0.000 C 
ATOM      8  C   UNL     1      -4.345   2.521   0.000  0.00  0.00    +0.000 C 
BRANCH   7   9
ATOM      9  C   UNL     1      -5.472   1.394   0.000  0.00  0.00    +0.000 C 
ATOM     10  O   UNL     1      -6.187   1.806   0.000  0.00  0.00    +0.000 OA
BRANCH   9  13
ATOM     11  N   UNL     1      -4.758   0.156   0.000  0.00  0.00    +0.000 NA
ATOM     12  O   UNL     1      -6.187   0.156   0.000  0.00  0.00    +0.000 OA
ATOM     13  C   UNL     1      -5.472   0.569   0.000  0.00  0.00    +0.000 C 
BRANCH  11  14
ATOM     14  C   UNL     1      -4.758  -0.668   0.000  0.00  0.00    +0.000 C 
BRANCH  14  15
ATOM     15  C   UNL     1      -5.501  -1.081   0.000  0.00  0.00    +0.000 C 
BRANCH  15  17
ATOM     16  N   UNL     1      -4.786  -2.318   0.000  0.00  0.00    +0.000 NA
ATOM     17  C   UNL     1      -5.501  -1.906   0.000  0.00  0.00    +0.000 C 
ATOM     18  O   UNL     1      -6.215  -2.318   0.000  0.00  0.00    +0.000 OA
BRANCH  16  19
ATOM     19  C   UNL     1      -4.072  -1.906   0.000  0.00  0.00    +0.000 C 
BRANCH  19  20
ATOM     20  C   UNL     1      -3.329  -2.318   0.000  0.00  0.00    +0.000 C 
BRANCH  20  21
ATOM     21  S   UNL     1      -2.614  -1.906   0.000  0.00  0.00    +0.000 S 
BRANCH  21  22
ATOM     22  C   UNL     1      -1.900  -2.318   0.000  0.00  0.00    +0.000 C 
ATOM     23  O   UNL     1      -1.900  -3.143   0.000  0.00  0.00    +0.000 OA
BRANCH  22  24
ATOM     24  C   UNL     1      -1.185  -1.906   0.000  0.00  0.00    +0.000 C 
ATOM     25  C   UNL     1      -1.185  -1.081   0.000  0.00  0.00    +0.000 C 
BRANCH  24  27
ATOM     26  O   UNL     1      -0.471  -3.143   0.000  0.00  0.00    +0.000 OA
ATOM     27  C   UNL     1      -0.471  -2.318   0.000  0.00  0.00    +0.000 C 
ATOM     28  O   UNL     1       0.243  -1.906   0.000  0.00  0.00    +0.000 OA
ENDBRANCH  24  27
ENDBRANCH  22  24
ENDBRANCH  21  22
ENDBRANCH  20  21
ENDBRANCH  19  20
ENDBRANCH  16  19
ENDBRANCH  15  17
ENDBRANCH  14  15
ENDBRANCH  11  14
ENDBRANCH   9  13
ENDBRANCH   7   9
ENDBRANCH   5   7
ENDBRANCH   4   5
ENDBRANCH   3   4
BRANCH   3  29
ATOM     29  O   UNL     1      -1.679   1.806   0.000  0.00  0.00    +0.000 OA
BRANCH  29  32
ATOM     30  O   UNL     1      -0.854   2.631   0.000  0.00  0.00    +0.000 OA
ATOM     31  O   UNL     1      -0.854   0.982   0.000  0.00  0.00    +0.000 OA
ATOM     32  P   UNL     1      -0.854   1.806   0.000  0.00  0.00    +0.000 P 
BRANCH  32  33
ATOM     33  O   UNL     1      -0.029   1.806   0.000  0.00  0.00    +0.000 OA
BRANCH  33  34
ATOM     34  C   UNL     1       0.554   2.390   0.000  0.00  0.00    +0.000 C 
BRANCH  34  38
ATOM     35  C   UNL     1       2.674   2.135   0.000  0.00  0.00    +0.000 C 
ATOM     36  O   UNL     1       2.006   2.620   0.000  0.00  0.00    +0.000 OA
ATOM     37  C   UNL     1       2.419   1.350   0.000  0.00  0.00    +0.000 C 
ATOM     38  C   UNL     1       1.339   2.135   0.000  0.00  0.00    +0.000 C 
ATOM     39  C   UNL     1       1.594   1.350   0.000  0.00  0.00    +0.000 C 
ATOM     40  O   UNL     1       2.904   0.683   0.000  0.00  0.00    +0.000 OA
BRANCH  35  41
ATOM     41  N   UNL     1       3.458   2.390   0.000  0.00  0.00    +0.000 N 
ATOM     42  C   UNL     1       4.072   1.838   0.000  0.00  0.00    +0.000 A 
ATOM     43  C   UNL     1       3.794   3.143   0.000  0.00  0.00    +0.000 A 
ATOM     44  C   UNL     1       4.786   2.250   0.000  0.00  0.00    +0.000 A 
ATOM     45  N   UNL     1       4.072   1.013   0.000  0.00  0.00    +0.000 NA
ATOM     46  N   UNL     1       4.615   3.057   0.000  0.00  0.00    +0.000 NA
ATOM     47  C   UNL     1       5.501   1.838   0.000  0.00  0.00    +0.000 A 
ATOM     48  C   UNL     1       4.786   0.600   0.000  0.00  0.00    +0.000 A 
ATOM     49  N   UNL     1       5.501   1.013   0.000  0.00  0.00    +0.000 NA
ATOM     50  N   UNL     1       6.215   2.250   0.000  0.00  0.00    +0.000 NA
ENDBRANCH  35  41
BRANCH  39  51
ATOM     51  O   UNL     1       1.109   0.683   0.000  0.00  0.00    +0.000 OA
BRANCH  51  54
ATOM     52  O   UNL     1       0.284  -0.142   0.000  0.00  0.00    +0.000 OA
ATOM     53  O   UNL     1       1.934  -0.142   0.000  0.00  0.00    +0.000 OA
ATOM     54  P   UNL     1       1.109  -0.142   0.000  0.00  0.00    +0.000 P 
ATOM     55  O   UNL     1       1.109  -0.967   0.000  0.00  0.00    +0.000 OA
ENDBRANCH  51  54
ENDBRANCH  39  51
ENDBRANCH  34  38
ENDBRANCH  33  34
ENDBRANCH  32  33
ENDBRANCH  29  32
ENDBRANCH   3  29
TORSDOF 22
