REMARK  Name = 
REMARK  5 active torsions:
REMARK  status: ('A' for Active; 'I' for Inactive)
REMARK    1  A    between atoms: C_3  and  C_26
REMARK    2  A    between atoms: C_7  and  O_11
REMARK    3  A    between atoms: O_11  and  C_12
REMARK    4  A    between atoms: C_15  and  O_24
REMARK    5  A    between atoms: C_16  and  O_22
REMARK                            x       y       z     vdW  Elec       q    Type
REMARK                         _______ _______ _______ _____ _____    ______ ____
ROOT
ATOM      1  O   UNL     1       1.429   0.825   0.000  0.00  0.00    +0.000 OA
ENDROOT
BRANCH   1   8
ATOM      2  C   UNL     1      -2.809   1.650   0.000  0.00  0.00    +0.000 C 
ATOM      3  C   UNL     1      -1.984   1.650   0.000  0.00  0.00    +0.000 A 
ATOM      4  C   UNL     1      -1.499   2.317   0.000  0.00  0.00    +0.000 A 
ATOM      5  C   UNL     1      -0.715   2.062   0.000  0.00  0.00    +0.000 A 
ATOM      6  C   UNL     1       0.000   2.475   0.000  0.00  0.00    +0.000 A 
ATOM      7  C   UNL     1       0.715   2.062   0.000  0.00  0.00    +0.000 A 
ATOM      8  C   UNL     1       0.715   1.238   0.000  0.00  0.00    +0.000 A 
ATOM      9  C   UNL     1       0.000   0.825   0.000  0.00  0.00    +0.000 A 
ATOM     10  C   UNL     1      -0.715   1.238   0.000  0.00  0.00    +0.000 A 
ATOM     11  O   UNL     1      -1.499   0.983   0.000  0.00  0.00    +0.000 OA
BRANCH   4  12
ATOM     12  C   UNL     1      -1.754   3.102   0.000  0.00  0.00    +0.000 C 
ATOM     13  O   UNL     1      -2.561   3.274   0.000  0.00  0.00    +0.000 OA
ATOM     14  N   UNL     1      -1.202   3.715   0.000  0.00  0.00    +0.000 NA
ATOM     15  C   UNL     1      -1.457   4.500   0.000  0.00  0.00    +0.000 C 
ENDBRANCH   4  12
ENDBRANCH   1   8
BRANCH   1  16
ATOM     16  C   UNL     1       1.429   0.000   0.000  0.00  0.00    +0.000 A 
ATOM     17  C   UNL     1       2.143  -0.412   0.000  0.00  0.00    +0.000 A 
ATOM     18  C   UNL     1       2.858   0.000   0.000  0.00  0.00    +0.000 A 
ATOM     19  C   UNL     1       3.572  -0.412   0.000  0.00  0.00    +0.000 A 
ATOM     20  C   UNL     1       3.572  -1.238   0.000  0.00  0.00    +0.000 A 
ATOM     21  C   UNL     1       2.858  -1.650   0.000  0.00  0.00    +0.000 A 
ATOM     22  C   UNL     1       2.143  -1.238   0.000  0.00  0.00    +0.000 A 
ATOM     23  N   UNL     1       1.429  -1.650   0.000  0.00  0.00    +0.000 NA
ATOM     24  C   UNL     1       0.715  -1.238   0.000  0.00  0.00    +0.000 A 
ATOM     25  N   UNL     1       0.715  -0.412   0.000  0.00  0.00    +0.000 NA
BRANCH  20  26
ATOM     26  O   UNL     1       4.287  -1.650   0.000  0.00  0.00    +0.000 OA
ATOM     27  C   UNL     1       4.287  -2.475   0.000  0.00  0.00    +0.000 C 
ENDBRANCH  20  26
BRANCH  19  28
ATOM     28  O   UNL     1       4.287   0.000   0.000  0.00  0.00    +0.000 OA
ATOM     29  C   UNL     1       5.001  -0.412   0.000  0.00  0.00    +0.000 C 
ENDBRANCH  19  28
ENDBRANCH   1  16
TORSDOF 5
