REMARK  Name = 
REMARK  5 active torsions:
REMARK  status: ('A' for Active; 'I' for Inactive)
REMARK    1  A    between atoms: C_1  and  C_10
REMARK    2  A    between atoms: C_1  and  C_15
REMARK    3  A    between atoms: C_2  and  N_3
REMARK    4  A    between atoms: C_10  and  O_12
REMARK    5  A    between atoms: O_12  and  C_13
REMARK                            x       y       z     vdW  Elec       q    Type
REMARK                         _______ _______ _______ _____ _____    ______ ____
ROOT
ATOM      1  C   UNL     1       0.081  -0.441   0.000  0.00  0.00    +0.000 C 
ATOM      2  C   UNL     1       0.767  -0.865   0.000  0.00  0.00    +0.000 C 
ATOM      3  C   UNL     1       0.767  -1.704   0.000  0.00  0.00    +0.000 C 
ATOM      4  C   UNL     1       0.089  -2.115   0.000  0.00  0.00    +0.000 C 
ATOM      5  C   UNL     1      -0.640  -1.713   0.000  0.00  0.00    +0.000 C 
ATOM      6  C   UNL     1      -0.640  -0.865   0.000  0.00  0.00    +0.000 C 
ENDROOT
BRANCH   1   7
ATOM      7  C   UNL     1      -0.627  -0.044   0.000  0.00  0.00    +0.000 A 
ATOM      8  C   UNL     1      -0.627   0.773   0.000  0.00  0.00    +0.000 A 
ATOM      9  C   UNL     1      -1.335   1.197   0.000  0.00  0.00    +0.000 A 
ATOM     10  C   UNL     1      -2.064   0.795   0.000  0.00  0.00    +0.000 A 
ATOM     11  C   UNL     1      -2.064  -0.048   0.000  0.00  0.00    +0.000 A 
ATOM     12  C   UNL     1      -1.357  -0.454   0.000  0.00  0.00    +0.000 A 
ENDBRANCH   1   7
BRANCH   2  13
ATOM     13  N   UNL     1       1.488  -0.455   0.000  0.00  0.00    +0.000 NA
ATOM     14  C   UNL     1       1.488   0.030   0.000  0.00  0.00    +0.000 C 
ATOM     15  C   UNL     1       2.064  -0.769   0.000  0.00  0.00    +0.000 C 
ENDBRANCH   2  13
BRANCH   1  16
ATOM     16  C   UNL     1       0.492   0.183   0.000  0.00  0.00    +0.000 C 
ATOM     17  O   UNL     1       0.985   0.183   0.000  0.00  0.00    +0.000 OA
BRANCH  16  18
ATOM     18  O   UNL     1       0.050   0.865   0.000  0.00  0.00    +0.000 OA
BRANCH  18  19
ATOM     19  C   UNL     1       0.544   1.529   0.000  0.00  0.00    +0.000 C 
ATOM     20  C   UNL     1       0.225   2.115   0.000  0.00  0.00    +0.000 C 
ENDBRANCH  18  19
ENDBRANCH  16  18
ENDBRANCH   1  16
TORSDOF 5
