REMARK  Name = 
REMARK  1 active torsions:
REMARK  status: ('A' for Active; 'I' for Inactive)
REMARK    1  A    between atoms: C_29  and  O_35
REMARK                            x       y       z     vdW  Elec       q    Type
REMARK                         _______ _______ _______ _____ _____    ______ ____
ROOT
ATOM      1  C   UNL     1      -3.873  -0.496   0.000  0.00  0.00    +0.000 A 
ATOM      2  C   UNL     1      -3.464   0.221   0.000  0.00  0.00    +0.000 A 
ATOM      3  C   UNL     1      -2.639   0.221   0.000  0.00  0.00    +0.000 A 
ATOM      4  C   UNL     1      -2.227  -0.494   0.000  0.00  0.00    +0.000 A 
ATOM      5  C   UNL     1      -2.638  -1.209   0.000  0.00  0.00    +0.000 A 
ATOM      6  C   UNL     1      -3.461  -1.209   0.000  0.00  0.00    +0.000 A 
ATOM      7  C   UNL     1      -3.870  -1.926   0.000  0.00  0.00    +0.000 C 
ATOM      8  C   UNL     1      -3.461  -2.638   0.000  0.00  0.00    +0.000 C 
ATOM      9  C   UNL     1      -2.638  -2.638   0.000  0.00  0.00    +0.000 C 
ATOM     10  C   UNL     1      -2.224  -1.926   0.000  0.00  0.00    +0.000 C 
ATOM     11  C   UNL     1      -1.919  -1.158   0.000  0.00  0.00    +0.000 C 
ATOM     12  N   UNL     1      -1.123  -0.945   0.000  0.00  0.00    +0.000 N 
ATOM     13  C   UNL     1      -0.448  -1.377   0.000  0.00  0.00    +0.000 A 
ATOM     14  C   UNL     1      -0.387  -2.206   0.000  0.00  0.00    +0.000 A 
ATOM     15  O   UNL     1      -0.991  -2.764   0.000  0.00  0.00    +0.000 OA
ATOM     16  C   UNL     1      -1.809  -2.644   0.000  0.00  0.00    +0.000 C 
ATOM     17  C   UNL     1       0.369  -2.563   0.000  0.00  0.00    +0.000 A 
ATOM     18  C   UNL     1       1.049  -2.089   0.000  0.00  0.00    +0.000 A 
ATOM     19  C   UNL     1       0.981  -1.267   0.000  0.00  0.00    +0.000 A 
ATOM     20  C   UNL     1       0.234  -0.911   0.000  0.00  0.00    +0.000 A 
ATOM     21  C   UNL     1       1.694  -0.852   0.000  0.00  0.00    +0.000 C 
ATOM     22  N   UNL     1       2.407  -1.267   0.000  0.00  0.00    +0.000 NA
ATOM     23  S   UNL     1       3.124  -0.852   0.000  0.00  0.00    +0.000 S 
ATOM     24  C   UNL     1       3.124  -0.121   0.000  0.00  0.00    +0.000 C 
ATOM     25  C   UNL     1       2.447   0.288   0.000  0.00  0.00    +0.000 C 
ATOM     26  C   UNL     1       2.447   1.117   0.000  0.00  0.00    +0.000 C 
ATOM     27  C   UNL     1       1.734   1.526   0.000  0.00  0.00    +0.000 C 
ATOM     28  C   UNL     1       1.016   1.117   0.000  0.00  0.00    +0.000 C 
ATOM     29  C   UNL     1       0.303   1.526   0.000  0.00  0.00    +0.000 C 
ATOM     30  C   UNL     1      -0.409   1.117   0.000  0.00  0.00    +0.000 C 
ATOM     31  C   UNL     1      -0.409   0.288   0.000  0.00  0.00    +0.000 C 
ATOM     32  C   UNL     1      -1.123  -0.121   0.000  0.00  0.00    +0.000 C 
ATOM     33  C   UNL     1      -1.289   0.640   0.000  0.00  0.00    +0.000 C 
ATOM     34  C   UNL     1      -1.185   1.603   0.000  0.00  0.00    +0.000 C 
ATOM     35  C   UNL     1       1.789   0.099   0.000  0.00  0.00    +0.000 C 
ATOM     36  C   UNL     1       3.873   0.288   0.000  0.00  0.00    +0.000 C 
ATOM     37  O   UNL     1       3.837  -1.267   0.000  0.00  0.00    +0.000 OA
ATOM     38  O   UNL     1       2.419  -0.424   0.000  0.00  0.00    +0.000 OA
ATOM     39  O   UNL     1       1.437  -0.239   0.000  0.00  0.00    +0.000 OA
ATOM     40 CL   UNL     1      -3.873   0.934   0.000  0.00  0.00    +0.000 Cl
ENDROOT
BRANCH  29  41
ATOM     41  O   UNL     1       0.303   2.350   0.000  0.00  0.00    +0.000 OA
ATOM     42  C   UNL     1      -0.409   2.764   0.000  0.00  0.00    +0.000 C 
ENDBRANCH  29  41
TORSDOF 1
