REMARK  Name = 
REMARK  5 active torsions:
REMARK  status: ('A' for Active; 'I' for Inactive)
REMARK    1  A    between atoms: C_4  and  C_5
REMARK    2  A    between atoms: C_5  and  C_6
REMARK    3  A    between atoms: C_5  and  C_8
REMARK    4  A    between atoms: C_8  and  O_10
REMARK    5  A    between atoms: O_10  and  C_11
REMARK                            x       y       z     vdW  Elec       q    Type
REMARK                         _______ _______ _______ _____ _____    ______ ____
ROOT
ATOM      1  C   UNL     1       0.791   0.179   0.000  0.00  0.00    +0.000 C 
ATOM      2  O   UNL     1       0.791   0.938   0.000  0.00  0.00    +0.000 OA
ENDROOT
BRANCH   1   3
ATOM      3  C   UNL     1       1.514  -0.200   0.000  0.00  0.00    +0.000 C 
BRANCH   3   7
ATOM      4  C   UNL     1       3.671   0.948   0.000  0.00  0.00    +0.000 A 
ATOM      5  C   UNL     1       2.938   1.327   0.000  0.00  0.00    +0.000 A 
ATOM      6  C   UNL     1       2.231   0.938   0.000  0.00  0.00    +0.000 A 
ATOM      7  C   UNL     1       2.236   0.184   0.000  0.00  0.00    +0.000 A 
ATOM      8  C   UNL     1       2.964  -0.184   0.000  0.00  0.00    +0.000 A 
ATOM      9  C   UNL     1       3.671   0.195   0.000  0.00  0.00    +0.000 A 
ENDBRANCH   3   7
BRANCH   3  10
ATOM     10  C   UNL     1       1.514  -0.953   0.000  0.00  0.00    +0.000 C 
ATOM     11  O   UNL     1       0.786  -1.327   0.000  0.00  0.00    +0.000 OA
ENDBRANCH   3  10
ENDBRANCH   1   3
BRANCH   1  12
ATOM     12  O   UNL     1       0.074  -0.200   0.000  0.00  0.00    +0.000 OA
BRANCH  12  13
ATOM     13  C   UNL     1      -0.761  -0.205   0.000  0.00  0.00    +0.000 C 
ATOM     14  C   UNL     1      -1.182   0.600   0.000  0.00  0.00    +0.000 C 
ATOM     15  C   UNL     1      -2.140   0.784   0.000  0.00  0.00    +0.000 C 
ATOM     16  C   UNL     1      -2.903   0.231   0.000  0.00  0.00    +0.000 C 
ATOM     17  C   UNL     1      -2.903  -0.656   0.000  0.00  0.00    +0.000 C 
ATOM     18  C   UNL     1      -2.130  -1.214   0.000  0.00  0.00    +0.000 C 
ATOM     19  C   UNL     1      -1.176  -1.004   0.000  0.00  0.00    +0.000 C 
ATOM     20  N   UNL     1      -1.546  -0.231   0.000  0.00  0.00    +0.000 NA
ATOM     21  C   UNL     1      -3.339  -0.220   0.000  0.00  0.00    +0.000 C 
ATOM     22  O   UNL     1      -3.671   0.674   0.000  0.00  0.00    +0.000 OA
ENDBRANCH  12  13
ENDBRANCH   1  12
TORSDOF 5
