REMARK  Name = 
REMARK  17 active torsions:
REMARK  status: ('A' for Active; 'I' for Inactive)
REMARK    1  A    between atoms: C_3  and  C_4
REMARK    2  A    between atoms: C_3  and  N_25
REMARK    3  A    between atoms: C_4  and  N_26
REMARK    4  A    between atoms: C_7  and  C_15
REMARK    5  A    between atoms: C_7  and  N_25
REMARK    6  A    between atoms: C_8  and  C_16
REMARK    7  A    between atoms: C_8  and  N_26
REMARK    8  A    between atoms: C_9  and  C_19
REMARK    9  A    between atoms: C_9  and  N_25
REMARK   10  A    between atoms: C_10  and  C_20
REMARK   11  A    between atoms: C_10  and  N_26
REMARK   12  A    between atoms: C_11  and  C_17
REMARK   13  A    between atoms: C_11  and  O_39
REMARK   14  A    between atoms: C_12  and  C_18
REMARK   15  A    between atoms: C_12  and  O_40
REMARK   16  A    between atoms: O_39  and  P_41
REMARK   17  A    between atoms: O_40  and  P_42
REMARK                            x       y       z     vdW  Elec       q    Type
REMARK                         _______ _______ _______ _____ _____    ______ ____
ROOT
ATOM      1  C   UNL     1       0.297   0.458   0.000  0.00  0.00    +0.000 C 
ENDROOT
BRANCH   1   2
ATOM      2  N   UNL     1       1.090   0.686   0.000  0.00  0.00    +0.000 NA
BRANCH   2   3
ATOM      3  C   UNL     1       1.684   0.114   0.000  0.00  0.00    +0.000 C 
BRANCH   3   4
ATOM      4  C   UNL     1       2.477   0.343   0.000  0.00  0.00    +0.000 C 
ATOM      5  O   UNL     1       2.675   1.144   0.000  0.00  0.00    +0.000 OA
ATOM      6  O   UNL     1       3.071  -0.229   0.000  0.00  0.00    +0.000 OA
ENDBRANCH   3   4
ENDBRANCH   2   3
BRANCH   2   7
ATOM      7  C   UNL     1       1.288   1.487   0.000  0.00  0.00    +0.000 C 
BRANCH   7  11
ATOM      8  C   UNL     1       0.495   4.233   0.000  0.00  0.00    +0.000 C 
ATOM      9  C   UNL     1      -0.099   1.831   0.000  0.00  0.00    +0.000 A 
ATOM     10  C   UNL     1       0.297   3.432   0.000  0.00  0.00    +0.000 A 
ATOM     11  C   UNL     1       0.694   2.059   0.000  0.00  0.00    +0.000 A 
ATOM     12  C   UNL     1      -0.694   2.402   0.000  0.00  0.00    +0.000 A 
ATOM     13  C   UNL     1       0.892   2.860   0.000  0.00  0.00    +0.000 A 
ATOM     14  N   UNL     1      -0.495   3.203   0.000  0.00  0.00    +0.000 NA
ATOM     15  O   UNL     1       1.684   3.089   0.000  0.00  0.00    +0.000 OA
BRANCH  12  16
ATOM     16  C   UNL     1      -1.486   2.174   0.000  0.00  0.00    +0.000 C 
BRANCH  16  17
ATOM     17  O   UNL     1      -2.081   2.746   0.000  0.00  0.00    +0.000 OA
BRANCH  17  21
ATOM     18  O   UNL     1      -3.666   2.288   0.000  0.00  0.00    +0.000 OA
ATOM     19  O   UNL     1      -2.644   1.724   0.000  0.00  0.00    +0.000 OA
ATOM     20  O   UNL     1      -3.102   3.309   0.000  0.00  0.00    +0.000 OA
ATOM     21  P   UNL     1      -2.873   2.517   0.000  0.00  0.00    +0.000 P 
ENDBRANCH  17  21
ENDBRANCH  16  17
ENDBRANCH  12  16
ENDBRANCH   7  11
ENDBRANCH   2   7
ENDBRANCH   1   2
BRANCH   1  22
ATOM     22  C   UNL     1       0.099  -0.343   0.000  0.00  0.00    +0.000 C 
BRANCH  22  23
ATOM     23  N   UNL     1      -0.694  -0.572   0.000  0.00  0.00    +0.000 NA
BRANCH  23  24
ATOM     24  C   UNL     1      -1.288   0.000   0.000  0.00  0.00    +0.000 C 
BRANCH  24  25
ATOM     25  C   UNL     1      -2.081  -0.229   0.000  0.00  0.00    +0.000 C 
ATOM     26  O   UNL     1      -2.279  -1.030   0.000  0.00  0.00    +0.000 OA
ATOM     27  O   UNL     1      -2.675   0.343   0.000  0.00  0.00    +0.000 OA
ENDBRANCH  24  25
ENDBRANCH  23  24
BRANCH  23  28
ATOM     28  C   UNL     1      -0.892  -1.373   0.000  0.00  0.00    +0.000 C 
BRANCH  28  32
ATOM     29  C   UNL     1      -0.099  -4.119   0.000  0.00  0.00    +0.000 C 
ATOM     30  C   UNL     1       0.495  -1.716   0.000  0.00  0.00    +0.000 A 
ATOM     31  C   UNL     1       0.099  -3.318   0.000  0.00  0.00    +0.000 A 
ATOM     32  C   UNL     1      -0.297  -1.945   0.000  0.00  0.00    +0.000 A 
ATOM     33  C   UNL     1       1.090  -2.288   0.000  0.00  0.00    +0.000 A 
ATOM     34  C   UNL     1      -0.495  -2.746   0.000  0.00  0.00    +0.000 A 
ATOM     35  N   UNL     1       0.892  -3.089   0.000  0.00  0.00    +0.000 NA
ATOM     36  O   UNL     1      -1.288  -2.974   0.000  0.00  0.00    +0.000 OA
BRANCH  33  37
ATOM     37  C   UNL     1       1.883  -2.059   0.000  0.00  0.00    +0.000 C 
BRANCH  37  38
ATOM     38  O   UNL     1       2.477  -2.631   0.000  0.00  0.00    +0.000 OA
BRANCH  38  42
ATOM     39  O   UNL     1       3.080  -3.630   0.000  0.00  0.00    +0.000 OA
ATOM     40  O   UNL     1       2.081  -4.233   0.000  0.00  0.00    +0.000 OA
ATOM     41  O   UNL     1       1.478  -3.234   0.000  0.00  0.00    +0.000 OA
ATOM     42  P   UNL     1       2.279  -3.432   0.000  0.00  0.00    +0.000 P 
ENDBRANCH  38  42
ENDBRANCH  37  38
ENDBRANCH  33  37
ENDBRANCH  28  32
ENDBRANCH  23  28
ENDBRANCH  22  23
ENDBRANCH   1  22
TORSDOF 17
REMARK  Name = 
REMARK  17 active torsions:
REMARK  status: ('A' for Active; 'I' for Inactive)
REMARK    1  A    between atoms: C_3  and  C_4
REMARK    2  A    between atoms: C_3  and  N_25
REMARK    3  A    between atoms: C_4  and  N_26
REMARK    4  A    between atoms: C_7  and  C_15
REMARK    5  A    between atoms: C_7  and  N_25
REMARK    6  A    between atoms: C_8  and  C_16
REMARK    7  A    between atoms: C_8  and  N_26
REMARK    8  A    between atoms: C_9  and  C_19
REMARK    9  A    between atoms: C_9  and  N_25
REMARK   10  A    between atoms: C_10  and  C_20
REMARK   11  A    between atoms: C_10  and  N_26
REMARK   12  A    between atoms: C_11  and  C_17
REMARK   13  A    between atoms: C_11  and  O_39
REMARK   14  A    between atoms: C_12  and  C_18
REMARK   15  A    between atoms: C_12  and  O_40
REMARK   16  A    between atoms: O_39  and  P_41
REMARK   17  A    between atoms: O_40  and  P_42
REMARK                            x       y       z     vdW  Elec       q    Type
REMARK                         _______ _______ _______ _____ _____    ______ ____
ROOT
ATOM      1 MN   UNL     1       3.666  -0.801   0.000  0.00  0.00    +0.000 Mn
ENDROOT
TORSDOF 0
