REMARK  Name = 
REMARK  0 active torsions:
REMARK  status: ('A' for Active; 'I' for Inactive)
REMARK                            x       y       z     vdW  Elec       q    Type
REMARK                         _______ _______ _______ _____ _____    ______ ____
ROOT
ATOM      1  N   UNL     1       0.000  -0.619   0.000  0.00  0.00    +0.000 NA
ATOM      2  N   UNL     1       0.715   0.619   0.000  0.00  0.00    +0.000 NA
ATOM      3  C   UNL     1       0.715  -0.206   0.000  0.00  0.00    +0.000 C 
ATOM      4  N   UNL     1       1.429  -0.619   0.000  0.00  0.00    +0.000 NA
ATOM      5  C   UNL     1      -0.715  -0.206   0.000  0.00  0.00    +0.000 C 
ATOM      6  N   UNL     1      -0.715   0.619   0.000  0.00  0.00    +0.000 NA
ATOM      7  N   UNL     1      -1.429  -0.619   0.000  0.00  0.00    +0.000 NA
ENDROOT
TORSDOF 0
