REMARK  Name = 
REMARK  8 active torsions:
REMARK  status: ('A' for Active; 'I' for Inactive)
REMARK    1  A    between atoms: C_2  and  C_17
REMARK    2  A    between atoms: C_6  and  C_8
REMARK    3  A    between atoms: N_19  and  C_20
REMARK    4  A    between atoms: N_19  and  C_26
REMARK    5  A    between atoms: C_20  and  C_21
REMARK    6  A    between atoms: C_21  and  C_22
REMARK    7  A    between atoms: C_22  and  C_23
REMARK    8  A    between atoms: C_26  and  C_27
REMARK                            x       y       z     vdW  Elec       q    Type
REMARK                         _______ _______ _______ _____ _____    ______ ____
ROOT
ATOM      1  C   UNL     1      -2.227   2.121   0.000  0.00  0.00    +0.000 C 
ATOM      2  O   UNL     1      -2.639   1.407   0.000  0.00  0.00    +0.000 OA
ATOM      3  N   UNL     1      -2.639   2.836   0.000  0.00  0.00    +0.000 N 
ENDROOT
BRANCH   1   5
ATOM      4  C   UNL     1      -1.402   1.296   0.000  0.00  0.00    +0.000 C 
ATOM      5  C   UNL     1      -1.402   2.121   0.000  0.00  0.00    +0.000 C 
ATOM      6  C   UNL     1      -1.402   2.946   0.000  0.00  0.00    +0.000 C 
ATOM      7  C   UNL     1      -0.577   2.946   0.000  0.00  0.00    +0.000 C 
ATOM      8  N   UNL     1      -0.577   2.121   0.000  0.00  0.00    +0.000 N 
ATOM      9  C   UNL     1       0.007   1.538   0.000  0.00  0.00    +0.000 C 
ATOM     10  O   UNL     1      -0.207   0.741   0.000  0.00  0.00    +0.000 OA
BRANCH   9  11
ATOM     11  C   UNL     1       0.804   1.751   0.000  0.00  0.00    +0.000 A 
ATOM     12  C   UNL     1       1.445   1.232   0.000  0.00  0.00    +0.000 A 
ATOM     13  S   UNL     1       2.137   1.681   0.000  0.00  0.00    +0.000 S 
ATOM     14  C   UNL     1       1.923   2.478   0.000  0.00  0.00    +0.000 A 
ATOM     15  C   UNL     1       1.099   2.521   0.000  0.00  0.00    +0.000 A 
ATOM     16  C   UNL     1       0.725   3.256   0.000  0.00  0.00    +0.000 A 
ATOM     17  C   UNL     1       1.174   3.948   0.000  0.00  0.00    +0.000 A 
ATOM     18  C   UNL     1       1.998   3.905   0.000  0.00  0.00    +0.000 A 
ATOM     19  C   UNL     1       2.372   3.170   0.000  0.00  0.00    +0.000 A 
ENDBRANCH   9  11
ENDBRANCH   1   5
BRANCH   3  20
ATOM     20  C   UNL     1      -3.464   2.836   0.000  0.00  0.00    +0.000 C 
BRANCH  20  21
ATOM     21  C   UNL     1      -3.877   3.550   0.000  0.00  0.00    +0.000 C 
BRANCH  21  22
ATOM     22  C   UNL     1      -4.702   3.550   0.000  0.00  0.00    +0.000 C 
BRANCH  22  23
ATOM     23  C   UNL     1      -5.114   4.264   0.000  0.00  0.00    +0.000 C 
ATOM     24  O   UNL     1      -4.702   4.979   0.000  0.00  0.00    +0.000 OA
ATOM     25  O   UNL     1      -5.939   4.264   0.000  0.00  0.00    +0.000 OA
ENDBRANCH  22  23
ENDBRANCH  21  22
ENDBRANCH  20  21
ENDBRANCH   3  20
BRANCH   3  26
ATOM     26  C   UNL     1      -2.227   3.550   0.000  0.00  0.00    +0.000 C 
BRANCH  26  27
ATOM     27  C   UNL     1      -2.639   4.264   0.000  0.00  0.00    +0.000 A 
ATOM     28  C   UNL     1      -3.464   4.264   0.000  0.00  0.00    +0.000 A 
ATOM     29  C   UNL     1      -3.877   4.979   0.000  0.00  0.00    +0.000 A 
ATOM     30  C   UNL     1      -3.464   5.693   0.000  0.00  0.00    +0.000 A 
ATOM     31  C   UNL     1      -2.639   5.693   0.000  0.00  0.00    +0.000 A 
ATOM     32 CL   UNL     1      -2.227   6.408   0.000  0.00  0.00    +0.000 Cl
ATOM     33  C   UNL     1      -2.227   4.979   0.000  0.00  0.00    +0.000 A 
ENDBRANCH  26  27
ENDBRANCH   3  26
TORSDOF 8
