REMARK  Name = 
REMARK  6 active torsions:
REMARK  status: ('A' for Active; 'I' for Inactive)
REMARK    1  A    between atoms: C_3  and  C_21
REMARK    2  A    between atoms: C_7  and  N_10
REMARK    3  A    between atoms: C_11  and  C_13
REMARK    4  A    between atoms: C_13  and  C_14
REMARK    5  A    between atoms: C_21  and  O_23
REMARK    6  A    between atoms: O_23  and  C_24
REMARK                            x       y       z     vdW  Elec       q    Type
REMARK                         _______ _______ _______ _____ _____    ______ ____
ROOT
ATOM      1  C   UNL     1       0.920   2.930   0.000  0.00  0.00    +0.000 C 
ATOM      2  C   UNL     1       0.307   2.378   0.000  0.00  0.00    +0.000 C 
ATOM      3  C   UNL     1      -0.178   1.710   0.000  0.00  0.00    +0.000 C 
ATOM      4  N   UNL     1      -0.963   1.965   0.000  0.00  0.00    +0.000 N 
ATOM      5  C   UNL     1      -0.963   2.790   0.000  0.00  0.00    +0.000 C 
ATOM      6  S   UNL     1      -0.178   3.045   0.000  0.00  0.00    +0.000 S 
ATOM      7  C   UNL     1      -1.788   2.790   0.000  0.00  0.00    +0.000 C 
ATOM      8  C   UNL     1      -1.788   1.965   0.000  0.00  0.00    +0.000 C 
ATOM      9  O   UNL     1      -2.371   1.382   0.000  0.00  0.00    +0.000 OA
ATOM     10  C   UNL     1       0.920   1.826   0.000  0.00  0.00    +0.000 C 
ENDROOT
BRANCH   7  11
ATOM     11  N   UNL     1      -2.371   3.374   0.000  0.00  0.00    +0.000 NA
ATOM     12  C   UNL     1      -3.168   3.160   0.000  0.00  0.00    +0.000 C 
ATOM     13  O   UNL     1      -3.381   2.363   0.000  0.00  0.00    +0.000 OA
BRANCH  12  14
ATOM     14  C   UNL     1      -3.751   3.743   0.000  0.00  0.00    +0.000 C 
ATOM     15  N   UNL     1      -3.538   4.540   0.000  0.00  0.00    +0.000 NA
BRANCH  14  16
ATOM     16  C   UNL     1      -4.548   3.530   0.000  0.00  0.00    +0.000 A 
ATOM     17  C   UNL     1      -4.762   2.733   0.000  0.00  0.00    +0.000 A 
ATOM     18  C   UNL     1      -5.559   2.519   0.000  0.00  0.00    +0.000 A 
ATOM     19  C   UNL     1      -6.142   3.103   0.000  0.00  0.00    +0.000 A 
ATOM     20  C   UNL     1      -5.928   3.900   0.000  0.00  0.00    +0.000 A 
ATOM     21  C   UNL     1      -5.132   4.113   0.000  0.00  0.00    +0.000 A 
ENDBRANCH  14  16
ENDBRANCH  12  14
ENDBRANCH   7  11
BRANCH   3  22
ATOM     22  C   UNL     1       0.077   0.926   0.000  0.00  0.00    +0.000 C 
ATOM     23  O   UNL     1      -0.475   0.313   0.000  0.00  0.00    +0.000 OA
BRANCH  22  24
ATOM     24  O   UNL     1       0.884   0.754   0.000  0.00  0.00    +0.000 OA
BRANCH  24  25
ATOM     25  C   UNL     1       1.139  -0.030   0.000  0.00  0.00    +0.000 C 
ATOM     26  C   UNL     1       1.923  -0.285   0.000  0.00  0.00    +0.000 A 
ATOM     27  C   UNL     1       2.638   0.127   0.000  0.00  0.00    +0.000 A 
ATOM     28  C   UNL     1       3.352  -0.285   0.000  0.00  0.00    +0.000 A 
ATOM     29  C   UNL     1       3.352  -1.110   0.000  0.00  0.00    +0.000 A 
ATOM     30  C   UNL     1       2.638  -1.523   0.000  0.00  0.00    +0.000 A 
ATOM     31  C   UNL     1       1.923  -1.110   0.000  0.00  0.00    +0.000 A 
ATOM     32  C   UNL     1       1.139  -1.365   0.000  0.00  0.00    +0.000 C 
ATOM     33  O   UNL     1       0.884  -2.150   0.000  0.00  0.00    +0.000 OA
ATOM     34  O   UNL     1       0.654  -0.698   0.000  0.00  0.00    +0.000 OA
ENDBRANCH  24  25
ENDBRANCH  22  24
ENDBRANCH   3  22
TORSDOF 6
