REMARK  Name = 
REMARK  10 active torsions:
REMARK  status: ('A' for Active; 'I' for Inactive)
REMARK    1  A    between atoms: C_1  and  C_2
REMARK    2  A    between atoms: N_11  and  C_13
REMARK    3  A    between atoms: C_13  and  C_14
REMARK    4  A    between atoms: C_14  and  N_15
REMARK    5  A    between atoms: N_15  and  C_16
REMARK    6  A    between atoms: N_15  and  C_17
REMARK    7  A    between atoms: C_16  and  C_18
REMARK    8  A    between atoms: C_17  and  C_19
REMARK    9  A    between atoms: C_18  and  C_20
REMARK   10  A    between atoms: C_19  and  C_21
REMARK                            x       y       z     vdW  Elec       q    Type
REMARK                         _______ _______ _______ _____ _____    ______ ____
ROOT
ATOM      1  C   UNL     1      -2.440   0.629   0.000  0.00  0.00    +0.000 A 
ATOM      2  N   UNL     1      -1.615   0.629   0.000  0.00  0.00    +0.000 NA
ATOM      3  N   UNL     1      -2.695   1.414   0.000  0.00  0.00    +0.000 NA
ATOM      4  C   UNL     1      -1.360   1.414   0.000  0.00  0.00    +0.000 A 
ATOM      5  O   UNL     1      -2.028   1.899   0.000  0.00  0.00    +0.000 OA
ATOM      6  N   UNL     1      -0.576   1.669   0.000  0.00  0.00    +0.000 NA
ENDROOT
BRANCH   1   7
ATOM      7  C   UNL     1      -2.925  -0.038   0.000  0.00  0.00    +0.000 A 
ATOM      8  C   UNL     1      -3.746   0.048   0.000  0.00  0.00    +0.000 A 
ATOM      9  C   UNL     1      -2.590  -0.792   0.000  0.00  0.00    +0.000 A 
ATOM     10  C   UNL     1      -4.231  -0.620   0.000  0.00  0.00    +0.000 A 
ATOM     11  C   UNL     1      -3.075  -1.460   0.000  0.00  0.00    +0.000 A 
ATOM     12  C   UNL     1      -3.895  -1.373   0.000  0.00  0.00    +0.000 A 
ENDBRANCH   1   7
BRANCH   6  13
ATOM     13  C   UNL     1       0.037   1.116   0.000  0.00  0.00    +0.000 C 
BRANCH  13  14
ATOM     14  C   UNL     1       0.822   1.371   0.000  0.00  0.00    +0.000 C 
BRANCH  14  15
ATOM     15  N   UNL     1       1.435   0.819   0.000  0.00  0.00    +0.000 NA
BRANCH  15  16
ATOM     16  C   UNL     1       1.264   0.013   0.000  0.00  0.00    +0.000 C 
BRANCH  16  17
ATOM     17  C   UNL     1       1.877  -0.539   0.000  0.00  0.00    +0.000 C 
BRANCH  17  18
ATOM     18  C   UNL     1       1.705  -1.347   0.000  0.00  0.00    +0.000 C 
ATOM     19  C   UNL     1       2.318  -1.899   0.000  0.00  0.00    +0.000 C 
ENDBRANCH  17  18
ENDBRANCH  16  17
ENDBRANCH  15  16
BRANCH  15  20
ATOM     20  C   UNL     1       2.220   1.074   0.000  0.00  0.00    +0.000 C 
BRANCH  20  21
ATOM     21  C   UNL     1       2.833   0.522   0.000  0.00  0.00    +0.000 C 
BRANCH  21  22
ATOM     22  C   UNL     1       3.617   0.777   0.000  0.00  0.00    +0.000 C 
ATOM     23  C   UNL     1       4.231   0.225   0.000  0.00  0.00    +0.000 C 
ENDBRANCH  21  22
ENDBRANCH  20  21
ENDBRANCH  15  20
ENDBRANCH  14  15
ENDBRANCH  13  14
ENDBRANCH   6  13
TORSDOF 10
