REMARK  Name = 
REMARK  29 active torsions:
REMARK  status: ('A' for Active; 'I' for Inactive)
REMARK    1  A    between atoms: SD_2  and  CG_3
REMARK    2  A    between atoms: CG_3  and  CB_4
REMARK    3  A    between atoms: CB_4  and  CA_5
REMARK    4  A    between atoms: CA_5  and  N_6
REMARK    5  A    between atoms: CA_5  and  C_25
REMARK    6  A    between atoms: C_7  and  CA_9
REMARK    7  A    between atoms: C_14  and  CA_16
REMARK    8  A    between atoms: CA_16  and  CB_17
REMARK    9  A    between atoms: CA_16  and  N_19
REMARK   10  A    between atoms: C_20  and  CA_22
REMARK   11  A    between atoms: N_27  and  CA_28
REMARK   12  A    between atoms: CA_28  and  CB_29
REMARK   13  A    between atoms: CA_28  and  C_33
REMARK   14  A    between atoms: CB_29  and  CG_30
REMARK   15  A    between atoms: N_35  and  CA_36
REMARK   16  A    between atoms: CA_36  and  CB_37
REMARK   17  A    between atoms: CA_36  and  C_40
REMARK   18  A    between atoms: N_42  and  CA_43
REMARK   19  A    between atoms: CA_43  and  C_45
REMARK   20  A    between atoms: N_47  and  CA_48
REMARK   21  A    between atoms: CA_48  and  CB_49
REMARK   22  A    between atoms: CA_48  and  C_57
REMARK   23  A    between atoms: CB_49  and  CG_50
REMARK   24  A    between atoms: N_59  and  CA_60
REMARK   25  A    between atoms: CA_60  and  CB_61
REMARK   26  A    between atoms: CA_60  and  C_65
REMARK   27  A    between atoms: CB_61  and  CG_62
REMARK   28  A    between atoms: N_67  and  CA_68
REMARK   29  A    between atoms: CA_68  and  C_70
REMARK                            x       y       z     vdW  Elec       q    Type
REMARK                         _______ _______ _______ _____ _____    ______ ____
ROOT
ATOM      1  CA  VAL A   6      -0.389  -8.775   0.000  0.00  0.00    +0.000 C 
ENDROOT
BRANCH   1   2
ATOM      2  C   VAL A   6       0.391  -9.045   0.000  0.00  0.00    +0.000 C 
ATOM      3  O   VAL A   6       0.546  -9.855   0.000  0.00  0.00    +0.000 OA
ATOM      4  N   ALA A   7       1.014  -8.505   0.000  0.00  0.00    +0.000 NA
BRANCH   4   5
ATOM      5  CA  ALA A   7       1.794  -8.775   0.000  0.00  0.00    +0.000 C 
ATOM      6  CB  ALA A   7       1.950  -9.585   0.000  0.00  0.00    +0.000 C 
BRANCH   5   7
ATOM      7  C   ALA A   7       2.417  -8.235   0.000  0.00  0.00    +0.000 C 
ATOM      8  O   ALA A   7       2.261  -7.425   0.000  0.00  0.00    +0.000 OA
ATOM      9  N   TYR A   8       3.197  -8.505   0.000  0.00  0.00    +0.000 NA
BRANCH   9  10
ATOM     10  CA  TYR A   8       3.821  -7.965   0.000  0.00  0.00    +0.000 C 
BRANCH  10  11
ATOM     11  C   TYR A   8       4.600  -8.235   0.000  0.00  0.00    +0.000 C 
ATOM     12  O   TYR A   8       4.756  -9.045   0.000  0.00  0.00    +0.000 OA
ATOM     13  N   ASP A   9       5.224  -7.695   0.000  0.00  0.00    +0.000 NA
BRANCH  13  14
ATOM     14  CA  ASP A   9       6.003  -7.965   0.000  0.00  0.00    +0.000 C 
BRANCH  14  15
ATOM     15  C   ASP A   9       6.627  -7.425   0.000  0.00  0.00    +0.000 C 
ATOM     16  O   ASP A   9       6.471  -6.615   0.000  0.00  0.00    +0.000 OA
ATOM     17  N   ALA A  10       7.407  -7.695   0.000  0.00  0.00    +0.000 NA
BRANCH  17  18
ATOM     18  CA  ALA A  10       8.030  -7.155   0.000  0.00  0.00    +0.000 C 
ATOM     19  CB  ALA A  10       7.874  -6.345   0.000  0.00  0.00    +0.000 C 
BRANCH  18  20
ATOM     20  C   ALA A  10       8.810  -7.425   0.000  0.00  0.00    +0.000 C 
ATOM     21  O   ALA A  10       9.433  -6.885   0.000  0.00  0.00    +0.000 OA
ATOM     22  OXT ALA A  10       8.966  -8.235   0.000  0.00  0.00    +0.000 OA
ENDBRANCH  18  20
ENDBRANCH  17  18
ENDBRANCH  14  15
BRANCH  14  23
ATOM     23  CB  ASP A   9       6.159  -8.775   0.000  0.00  0.00    +0.000 C 
BRANCH  23  24
ATOM     24  CG  ASP A   9       6.939  -9.045   0.000  0.00  0.00    +0.000 C 
ATOM     25  OD1 ASP A   9       7.562  -8.505   0.000  0.00  0.00    +0.000 OA
ATOM     26  OD2 ASP A   9       7.095  -9.855   0.000  0.00  0.00    +0.000 OA
ENDBRANCH  23  24
ENDBRANCH  14  23
ENDBRANCH  13  14
ENDBRANCH  10  11
BRANCH  10  27
ATOM     27  CB  TYR A   8       3.665  -7.155   0.000  0.00  0.00    +0.000 C 
BRANCH  27  28
ATOM     28  CG  TYR A   8       4.288  -6.615   0.000  0.00  0.00    +0.000 A 
ATOM     29  CD1 TYR A   8       4.132  -5.805   0.000  0.00  0.00    +0.000 A 
ATOM     30  CE1 TYR A   8       4.756  -5.265   0.000  0.00  0.00    +0.000 A 
ATOM     31  CZ  TYR A   8       5.535  -5.535   0.000  0.00  0.00    +0.000 A 
ATOM     32  OH  TYR A   8       6.159  -4.995   0.000  0.00  0.00    +0.000 OA
ATOM     33  CE2 TYR A   8       5.691  -6.345   0.000  0.00  0.00    +0.000 A 
ATOM     34  CD2 TYR A   8       5.068  -6.885   0.000  0.00  0.00    +0.000 A 
ENDBRANCH  27  28
ENDBRANCH  10  27
ENDBRANCH   9  10
ENDBRANCH   5   7
ENDBRANCH   4   5
ENDBRANCH   1   2
BRANCH   1  35
ATOM     35  CB  VAL A   6      -0.545  -7.965   0.000  0.00  0.00    +0.000 C 
ATOM     36  CG1 VAL A   6       0.079  -7.425   0.000  0.00  0.00    +0.000 C 
ATOM     37  CG2 VAL A   6      -1.325  -7.695   0.000  0.00  0.00    +0.000 C 
ENDBRANCH   1  35
BRANCH   1  40
ATOM     38  C   LEU A   5      -1.792  -9.045   0.000  0.00  0.00    +0.000 C 
ATOM     39  O   LEU A   5      -1.948  -8.235   0.000  0.00  0.00    +0.000 OA
ATOM     40  N   VAL A   6      -1.013  -9.315   0.000  0.00  0.00    +0.000 NA
BRANCH  38  41
ATOM     41  CA  LEU A   5      -2.416  -9.585   0.000  0.00  0.00    +0.000 C 
BRANCH  41  44
ATOM     42  C   MET A   4      -3.819  -9.855   0.000  0.00  0.00    +0.000 C 
ATOM     43  O   MET A   4      -3.663 -10.665   0.000  0.00  0.00    +0.000 OA
ATOM     44  N   LEU A   5      -3.196  -9.315   0.000  0.00  0.00    +0.000 NA
BRANCH  42  45
ATOM     45  CA  MET A   4      -4.599  -9.585   0.000  0.00  0.00    +0.000 C 
BRANCH  45  46
ATOM     46  N   MET A   4      -5.222 -10.125   0.000  0.00  0.00    +0.000 NA
ATOM     47  C   PRO A   3      -6.002  -9.855   0.000  0.00  0.00    +0.000 C 
ATOM     48  O   PRO A   3      -6.158  -9.045   0.000  0.00  0.00    +0.000 OA
BRANCH  47  49
ATOM     49  CA  PRO A   3      -6.625 -10.396   0.000  0.00  0.00    +0.000 C 
ATOM     50  CB  PRO A   3      -6.555 -11.217   0.000  0.00  0.00    +0.000 C 
ATOM     51  CG  PRO A   3      -7.315 -11.538   0.000  0.00  0.00    +0.000 C 
ATOM     52  CD  PRO A   3      -7.855 -10.915   0.000  0.00  0.00    +0.000 C 
ATOM     53  N   PRO A   3      -7.429 -10.208   0.000  0.00  0.00    +0.000 N 
ATOM     54  C   SER A   2      -7.750  -9.448   0.000  0.00  0.00    +0.000 C 
ATOM     55  O   SER A   2      -7.252  -8.790   0.000  0.00  0.00    +0.000 OA
BRANCH  54  56
ATOM     56  CA  SER A   2      -8.569  -9.346   0.000  0.00  0.00    +0.000 C 
BRANCH  56  57
ATOM     57  N   SER A   2      -8.889  -8.586   0.000  0.00  0.00    +0.000 NA
ATOM     58  C   ALA A   1      -9.708  -8.484   0.000  0.00  0.00    +0.000 C 
ATOM     59  O   ALA A   1     -10.206  -9.142   0.000  0.00  0.00    +0.000 OA
BRANCH  58  60
ATOM     60  CA  ALA A   1     -10.029  -7.724   0.000  0.00  0.00    +0.000 C 
ATOM     61  CB  ALA A   1     -10.848  -7.622   0.000  0.00  0.00    +0.000 C 
ATOM     62  N   ALA A   1      -9.531  -7.066   0.000  0.00  0.00    +0.000 NA
ENDBRANCH  58  60
ENDBRANCH  56  57
BRANCH  56  63
ATOM     63  CB  SER A   2      -9.066 -10.004   0.000  0.00  0.00    +0.000 C 
ATOM     64  OG  SER A   2      -9.885  -9.902   0.000  0.00  0.00    +0.000 OA
ENDBRANCH  56  63
ENDBRANCH  54  56
ENDBRANCH  47  49
ENDBRANCH  45  46
BRANCH  45  65
ATOM     65  CB  MET A   4      -4.755  -8.775   0.000  0.00  0.00    +0.000 C 
BRANCH  65  66
ATOM     66  CG  MET A   4      -4.131  -8.235   0.000  0.00  0.00    +0.000 C 
BRANCH  66  68
ATOM     67  CE  MET A   4      -3.663  -6.885   0.000  0.00  0.00    +0.000 C 
ATOM     68  SD  MET A   4      -4.287  -7.425   0.000  0.00  0.00    +0.000 S 
ENDBRANCH  66  68
ENDBRANCH  65  66
ENDBRANCH  45  65
ENDBRANCH  42  45
ENDBRANCH  41  44
BRANCH  41  69
ATOM     69  CB  LEU A   5      -2.260 -10.396   0.000  0.00  0.00    +0.000 C 
BRANCH  69  70
ATOM     70  CG  LEU A   5      -1.480 -10.665   0.000  0.00  0.00    +0.000 C 
ATOM     71  CD1 LEU A   5      -0.857 -10.125   0.000  0.00  0.00    +0.000 C 
ATOM     72  CD2 LEU A   5      -1.325 -11.476   0.000  0.00  0.00    +0.000 C 
ENDBRANCH  69  70
ENDBRANCH  41  69
ENDBRANCH  38  41
ENDBRANCH   1  40
TORSDOF 29
