REMARK  Name = 
REMARK  8 active torsions:
REMARK  status: ('A' for Active; 'I' for Inactive)
REMARK    1  A    between atoms: C_3  and  N_26
REMARK    2  A    between atoms: C_11  and  O_15
REMARK    3  A    between atoms: C_12  and  O_15
REMARK    4  A    between atoms: C_18  and  O_32
REMARK    5  A    between atoms: C_24  and  O_34
REMARK    6  A    between atoms: N_26  and  C_40
REMARK    7  A    between atoms: C_40  and  C_41
REMARK    8  A    between atoms: C_41  and  N_42
REMARK                            x       y       z     vdW  Elec       q    Type
REMARK                         _______ _______ _______ _____ _____    ______ ____
ROOT
ATOM      1  C   UNL     1      -1.410   0.824   0.000  0.00  0.00    +0.000 C 
ATOM      2  C   UNL     1       0.004   0.824   0.000  0.00  0.00    +0.000 C 
ATOM      3  C   UNL     1      -1.410   1.639   0.000  0.00  0.00    +0.000 C 
ATOM      4  C   UNL     1      -0.703   0.422   0.000  0.00  0.00    +0.000 C 
ATOM      5  N   UNL     1       0.711   0.422   0.000  0.00  0.00    +0.000 NA
ATOM      6  C   UNL     1       0.004   1.639   0.000  0.00  0.00    +0.000 C 
ATOM      7  C   UNL     1      -0.703   2.052   0.000  0.00  0.00    +0.000 C 
ATOM      8  C   UNL     1       1.419   0.824   0.000  0.00  0.00    +0.000 C 
ATOM      9  C   UNL     1       0.751  -2.888   0.000  0.00  0.00    +0.000 C 
ATOM     10  C   UNL     1       0.034  -3.290   0.000  0.00  0.00    +0.000 C 
ATOM     11  C   UNL     1       2.145  -2.888   0.000  0.00  0.00    +0.000 C 
ATOM     12  C   UNL     1       2.145   0.422   0.000  0.00  0.00    +0.000 C 
ATOM     13  C   UNL     1      -0.703  -2.878   0.000  0.00  0.00    +0.000 C 
ATOM     14  C   UNL     1      -2.127   0.422   0.000  0.00  0.00    +0.000 C 
ATOM     15  C   UNL     1      -0.713  -2.063   0.000  0.00  0.00    +0.000 C 
ATOM     16  C   UNL     1      -1.410  -1.650   0.000  0.00  0.00    +0.000 C 
ATOM     17  C   UNL     1       2.852  -0.825   0.000  0.00  0.00    +0.000 C 
ATOM     18  O   UNL     1      -0.703  -0.384   0.000  0.00  0.00    +0.000 OA
ATOM     19  C   UNL     1       2.145  -0.413   0.000  0.00  0.00    +0.000 C 
ATOM     20  O   UNL     1       1.419   1.639   0.000  0.00  0.00    +0.000 OA
ATOM     21  O   UNL     1      -0.703   2.877   0.000  0.00  0.00    +0.000 OA
ATOM     22  C   UNL     1       2.145  -2.063   0.000  0.00  0.00    +0.000 C 
ATOM     23  C   UNL     1      -1.410  -0.825   0.000  0.00  0.00    +0.000 C 
ATOM     24  C   UNL     1       2.852  -1.650   0.000  0.00  0.00    +0.000 C 
ATOM     25  C   UNL     1      -2.127  -0.413   0.000  0.00  0.00    +0.000 C 
ATOM     26  O   UNL     1       0.034  -1.650   0.000  0.00  0.00    +0.000 OA
ATOM     27  C   UNL     1       0.760  -2.063   0.000  0.00  0.00    +0.000 C 
ATOM     28  C   UNL     1       2.852   0.824   0.000  0.00  0.00    +0.000 C 
ATOM     29  C   UNL     1      -1.429  -3.281   0.000  0.00  0.00    +0.000 C 
ATOM     30  C   UNL     1      -2.844  -0.835   0.000  0.00  0.00    +0.000 C 
ENDROOT
BRANCH  16  31
ATOM     31  O   UNL     1      -2.127  -2.073   0.000  0.00  0.00    +0.000 OA
ATOM     32  C   UNL     1      -2.873  -1.650   0.000  0.00  0.00    +0.000 C 
ENDBRANCH  16  31
BRANCH  22  33
ATOM     33  O   UNL     1       1.419  -1.640   0.000  0.00  0.00    +0.000 OA
ATOM     34  C   UNL     1       1.419  -0.825   0.000  0.00  0.00    +0.000 C 
ENDBRANCH  22  33
BRANCH   3  35
ATOM     35  N   UNL     1      -2.127   2.062   0.000  0.00  0.00    +0.000 NA
BRANCH  35  36
ATOM     36  C   UNL     1      -2.127   2.901   0.000  0.00  0.00    +0.000 C 
BRANCH  36  37
ATOM     37  C   UNL     1      -2.853   3.320   0.000  0.00  0.00    +0.000 C 
BRANCH  37  38
ATOM     38  N   UNL     1      -3.579   2.901   0.000  0.00  0.00    +0.000 NA
ATOM     39  C   UNL     1      -4.306   3.320   0.000  0.00  0.00    +0.000 C 
ATOM     40  C   UNL     1      -3.579   2.062   0.000  0.00  0.00    +0.000 C 
ENDBRANCH  37  38
ENDBRANCH  36  37
ENDBRANCH  35  36
ENDBRANCH   3  35
BRANCH  11  41
ATOM     41  O   UNL     1       2.862  -3.300   0.000  0.00  0.00    +0.000 OA
BRANCH  41  42
ATOM     42  C   UNL     1       3.589  -2.897   0.000  0.00  0.00    +0.000 C 
ATOM     43  O   UNL     1       3.589  -2.063   0.000  0.00  0.00    +0.000 OA
ATOM     44  N   UNL     1       4.306  -3.320   0.000  0.00  0.00    +0.000 NA
ENDBRANCH  41  42
ENDBRANCH  11  41
TORSDOF 8
