REMARK  Name = 
REMARK  8 active torsions:
REMARK  status: ('A' for Active; 'I' for Inactive)
REMARK    1  A    between atoms: C_1  and  O_7
REMARK    2  A    between atoms: C_2  and  O_8
REMARK    3  A    between atoms: C_5  and  O_7
REMARK    4  A    between atoms: C_6  and  N_21
REMARK    5  A    between atoms: O_8  and  C_9
REMARK    6  A    between atoms: C_12  and  N_24
REMARK    7  A    between atoms: C_16  and  C_30
REMARK    8  A    between atoms: N_24  and  C_31
REMARK                            x       y       z     vdW  Elec       q    Type
REMARK                         _______ _______ _______ _____ _____    ______ ____
ROOT
ATOM      1  C   UNL     1      -0.197   0.097   0.000  0.00  0.00    +0.000 C 
ATOM      2  C   UNL     1       0.517   1.335   0.000  0.00  0.00    +0.000 C 
ATOM      3  C   UNL     1       0.517   0.514   0.000  0.00  0.00    +0.000 C 
ATOM      4  C   UNL     1      -0.910   0.514   0.000  0.00  0.00    +0.000 C 
ATOM      5  C   UNL     1      -0.197   1.752   0.000  0.00  0.00    +0.000 C 
ATOM      6  C   UNL     1      -0.910   1.335   0.000  0.00  0.00    +0.000 C 
ATOM      7  O   UNL     1       1.235   0.102   0.000  0.00  0.00    +0.000 OA
ATOM      8  N   UNL     1      -0.197   2.572   0.000  0.00  0.00    +0.000 NA
ENDROOT
BRANCH   2   9
ATOM      9  O   UNL     1       1.235   1.747   0.000  0.00  0.00    +0.000 OA
BRANCH   9  10
ATOM     10  C   UNL     1       1.948   1.335   0.000  0.00  0.00    +0.000 C 
ATOM     11  O   UNL     1       1.948   0.514   0.000  0.00  0.00    +0.000 OA
ATOM     12  C   UNL     1       2.662   0.097   0.000  0.00  0.00    +0.000 C 
ATOM     13  C   UNL     1       3.376   0.514   0.000  0.00  0.00    +0.000 C 
ATOM     14  C   UNL     1       2.662   1.752   0.000  0.00  0.00    +0.000 C 
ATOM     15  C   UNL     1       3.376   1.335   0.000  0.00  0.00    +0.000 C 
ATOM     16  N   UNL     1       2.662   2.572   0.000  0.00  0.00    +0.000 NA
BRANCH  12  18
ATOM     17  N   UNL     1       1.944  -1.141   0.000  0.00  0.00    +0.000 NA
ATOM     18  C   UNL     1       2.662  -0.723   0.000  0.00  0.00    +0.000 C 
ENDBRANCH  12  18
ENDBRANCH   9  10
ENDBRANCH   2   9
BRANCH   1  19
ATOM     19  O   UNL     1      -0.197  -0.723   0.000  0.00  0.00    +0.000 OA
BRANCH  19  21
ATOM     20  C   UNL     1      -1.318  -1.859   0.000  0.00  0.00    +0.000 C 
ATOM     21  C   UNL     1      -0.905  -1.145   0.000  0.00  0.00    +0.000 C 
ATOM     22  C   UNL     1      -2.143  -1.859   0.000  0.00  0.00    +0.000 C 
ATOM     23  C   UNL     1      -2.555  -1.145   0.000  0.00  0.00    +0.000 C 
ATOM     24  O   UNL     1      -1.318  -0.432   0.000  0.00  0.00    +0.000 OA
ATOM     25  C   UNL     1      -2.143  -0.432   0.000  0.00  0.00    +0.000 C 
ATOM     26  O   UNL     1      -0.905  -2.572   0.000  0.00  0.00    +0.000 OA
ATOM     27  O   UNL     1      -3.279  -1.553   0.000  0.00  0.00    +0.000 OA
ATOM     28  C   UNL     1      -3.279  -0.733   0.000  0.00  0.00    +0.000 C 
BRANCH  22  29
ATOM     29  N   UNL     1      -2.550  -2.572   0.000  0.00  0.00    +0.000 NA
ATOM     30  C   UNL     1      -3.376  -2.572   0.000  0.00  0.00    +0.000 C 
ENDBRANCH  22  29
ENDBRANCH  19  21
ENDBRANCH   1  19
BRANCH   4  31
ATOM     31  N   UNL     1      -1.623   0.102   0.000  0.00  0.00    +0.000 NA
BRANCH  31  32
ATOM     32  C   UNL     1      -2.337   0.514   0.000  0.00  0.00    +0.000 C 
ATOM     33  C   UNL     1      -3.050   0.102   0.000  0.00  0.00    +0.000 C 
ENDBRANCH  31  32
ENDBRANCH   4  31
TORSDOF 8
