REMARK  Name = 
REMARK  4 active torsions:
REMARK  status: ('A' for Active; 'I' for Inactive)
REMARK    1  A    between atoms: C_2  and  C_3
REMARK    2  A    between atoms: C_5  and  C_23
REMARK    3  A    between atoms: C_6  and  C_8
REMARK    4  A    between atoms: C_12  and  C_14
REMARK                            x       y       z     vdW  Elec       q    Type
REMARK                         _______ _______ _______ _____ _____    ______ ____
ROOT
ATOM      1  C   UNL     1      -0.183  -3.175   0.000  0.00  0.00    +0.000 A 
ATOM      2  C   UNL     1       0.153  -3.928   0.000  0.00  0.00    +0.000 A 
ATOM      3  C   UNL     1      -0.332  -4.596   0.000  0.00  0.00    +0.000 A 
ATOM      4  N   UNL     1       0.003  -5.349   0.000  0.00  0.00    +0.000 NA
ATOM      5  C   UNL     1      -0.482  -6.017   0.000  0.00  0.00    +0.000 C 
ATOM      6  O   UNL     1      -1.302  -5.931   0.000  0.00  0.00    +0.000 OA
ATOM      7  N   UNL     1      -1.153  -4.509   0.000  0.00  0.00    +0.000 NA
ATOM      8  C   UNL     1      -1.488  -3.756   0.000  0.00  0.00    +0.000 A 
ATOM      9  C   UNL     1      -1.003  -3.088   0.000  0.00  0.00    +0.000 A 
ENDROOT
BRANCH   5  10
ATOM     10  C   UNL     1      -0.146  -6.770   0.000  0.00  0.00    +0.000 A 
ATOM     11  C   UNL     1       0.674  -6.857   0.000  0.00  0.00    +0.000 A 
ATOM     12  C   UNL     1       1.010  -7.610   0.000  0.00  0.00    +0.000 A 
ATOM     13  C   UNL     1       0.525  -8.278   0.000  0.00  0.00    +0.000 A 
ATOM     14  C   UNL     1      -0.295  -8.191   0.000  0.00  0.00    +0.000 A 
ATOM     15  C   UNL     1      -0.631  -7.438   0.000  0.00  0.00    +0.000 A 
ENDBRANCH   5  10
BRANCH   1  19
ATOM     16  C   UNL     1       0.715  -1.238   0.000  0.00  0.00    +0.000 A 
ATOM     17  N   UNL     1       1.382  -1.722   0.000  0.00  0.00    +0.000 NA
ATOM     18  C   UNL     1       1.127  -2.507   0.000  0.00  0.00    +0.000 A 
ATOM     19  C   UNL     1       0.302  -2.507   0.000  0.00  0.00    +0.000 A 
ATOM     20  S   UNL     1       0.047  -1.722   0.000  0.00  0.00    +0.000 S 
BRANCH  18  21
ATOM     21  C   UNL     1       1.612  -3.175   0.000  0.00  0.00    +0.000 A 
ATOM     22  C   UNL     1       2.432  -3.088   0.000  0.00  0.00    +0.000 A 
ATOM     23  C   UNL     1       2.917  -3.756   0.000  0.00  0.00    +0.000 A 
ATOM     24  C   UNL     1       2.582  -4.509   0.000  0.00  0.00    +0.000 A 
ATOM     25  C   UNL     1       1.761  -4.596   0.000  0.00  0.00    +0.000 A 
ATOM     26  C   UNL     1       1.426  -5.349   0.000  0.00  0.00    +0.000 C 
ATOM     27  C   UNL     1       1.276  -3.928   0.000  0.00  0.00    +0.000 A 
ENDBRANCH  18  21
BRANCH  16  29
ATOM     28  C   UNL     1       0.000   0.000   0.000  0.00  0.00    +0.000 C 
ATOM     29  C   UNL     1       0.715  -0.412   0.000  0.00  0.00    +0.000 C 
ENDBRANCH  16  29
ENDBRANCH   1  19
TORSDOF 4
