REMARK  Name = 
REMARK  7 active torsions:
REMARK  status: ('A' for Active; 'I' for Inactive)
REMARK    1  A    between atoms: C_2  and  C_3
REMARK    2  A    between atoms: C_3  and  S_4
REMARK    3  A    between atoms: S_4  and  C_5
REMARK    4  A    between atoms: C_6  and  C_21
REMARK    5  A    between atoms: C_15  and  C_16
REMARK    6  A    between atoms: C_16  and  C_17
REMARK    7  A    between atoms: N_23  and  C_24
REMARK                            x       y       z     vdW  Elec       q    Type
REMARK                         _______ _______ _______ _____ _____    ______ ____
ROOT
ATOM      1  C   UNL     1       1.429  -2.475   0.000  0.00  0.00    +0.000 A 
ATOM      2  C   UNL     1       2.143  -2.888   0.000  0.00  0.00    +0.000 A 
ATOM      3  C   UNL     1       2.143  -3.712   0.000  0.00  0.00    +0.000 A 
ATOM      4  C   UNL     1       1.429  -4.125   0.000  0.00  0.00    +0.000 A 
ATOM      5  C   UNL     1       0.715  -3.712   0.000  0.00  0.00    +0.000 A 
ATOM      6  N   UNL     1       0.715  -2.888   0.000  0.00  0.00    +0.000 NA
ATOM      7  N   UNL     1       0.000  -4.125   0.000  0.00  0.00    +0.000 N 
ATOM      8  C   UNL     1       0.000  -4.950   0.000  0.00  0.00    +0.000 C 
ATOM      9  C   UNL     1      -0.715  -5.362   0.000  0.00  0.00    +0.000 C 
ATOM     10  C   UNL     1      -1.429  -4.950   0.000  0.00  0.00    +0.000 C 
ATOM     11  C   UNL     1      -1.429  -4.125   0.000  0.00  0.00    +0.000 C 
ATOM     12  C   UNL     1      -0.715  -3.712   0.000  0.00  0.00    +0.000 C 
ENDROOT
BRANCH   2  13
ATOM     13  C   UNL     1       2.858  -2.475   0.000  0.00  0.00    +0.000 C 
ATOM     14  O   UNL     1       3.572  -2.888   0.000  0.00  0.00    +0.000 OA
ATOM     15  N   UNL     1       2.858  -1.650   0.000  0.00  0.00    +0.000 NA
BRANCH  15  16
ATOM     16  C   UNL     1       3.572  -1.238   0.000  0.00  0.00    +0.000 C 
ATOM     17  C   UNL     1       3.572  -0.412   0.000  0.00  0.00    +0.000 C 
ATOM     18  C   UNL     1       4.287   0.000   0.000  0.00  0.00    +0.000 C 
ATOM     19  C   UNL     1       5.001  -0.412   0.000  0.00  0.00    +0.000 C 
ATOM     20  C   UNL     1       5.001  -1.238   0.000  0.00  0.00    +0.000 C 
ATOM     21  C   UNL     1       4.287  -1.650   0.000  0.00  0.00    +0.000 C 
ENDBRANCH  15  16
ENDBRANCH   2  13
BRANCH   1  22
ATOM     22  S   UNL     1       1.429  -1.650   0.000  0.00  0.00    +0.000 S 
BRANCH  22  23
ATOM     23  C   UNL     1       0.715  -1.238   0.000  0.00  0.00    +0.000 C 
BRANCH  23  25
ATOM     24  C   UNL     1       0.000   0.000   0.000  0.00  0.00    +0.000 C 
ATOM     25  C   UNL     1       0.715  -0.412   0.000  0.00  0.00    +0.000 C 
ENDBRANCH  23  25
ENDBRANCH  22  23
ENDBRANCH   1  22
BRANCH  11  26
ATOM     26  C   UNL     1      -2.143  -3.712   0.000  0.00  0.00    +0.000 C 
BRANCH  26  27
ATOM     27  C   UNL     1      -2.858  -4.125   0.000  0.00  0.00    +0.000 C 
ATOM     28  O   UNL     1      -3.572  -3.712   0.000  0.00  0.00    +0.000 OA
ATOM     29  O   UNL     1      -2.858  -4.950   0.000  0.00  0.00    +0.000 OA
ENDBRANCH  26  27
ENDBRANCH  11  26
TORSDOF 7
