REMARK  Name = 
REMARK  4 active torsions:
REMARK  status: ('A' for Active; 'I' for Inactive)
REMARK    1  A    between atoms: C_1  and  C_19
REMARK    2  A    between atoms: N_8  and  C_13
REMARK    3  A    between atoms: N_17  and  C_23
REMARK    4  A    between atoms: C_23  and  C_24
REMARK                            x       y       z     vdW  Elec       q    Type
REMARK                         _______ _______ _______ _____ _____    ______ ____
ROOT
ATOM      1  C   UNL     1       0.477   0.398   0.000  0.00  0.00    +0.000 A 
ATOM      2  N   UNL     1       1.190  -0.014   0.000  0.00  0.00    +0.000 NA
ATOM      3  C   UNL     1       1.904   0.398   0.000  0.00  0.00    +0.000 A 
ATOM      4  C   UNL     1       1.904   1.223   0.000  0.00  0.00    +0.000 A 
ATOM      5  C   UNL     1       1.190   1.636   0.000  0.00  0.00    +0.000 A 
ATOM      6  N   UNL     1       0.477   1.223   0.000  0.00  0.00    +0.000 NA
ATOM      7  N   UNL     1       3.173   0.811   0.000  0.00  0.00    +0.000 NA
ATOM      8  N   UNL     1       2.690   0.146   0.000  0.00  0.00    +0.000 N 
ATOM      9  C   UNL     1       2.690   1.480   0.000  0.00  0.00    +0.000 A 
ATOM     10  O   UNL     1       1.190   2.461   0.000  0.00  0.00    +0.000 OA
ENDROOT
BRANCH   8  13
ATOM     11  C   UNL     1       4.008  -1.594   0.000  0.00  0.00    +0.000 C 
ATOM     12  C   UNL     1       3.752  -0.812   0.000  0.00  0.00    +0.000 C 
ATOM     13  C   UNL     1       2.946  -0.640   0.000  0.00  0.00    +0.000 C 
ATOM     14  C   UNL     1       2.393  -1.254   0.000  0.00  0.00    +0.000 C 
ATOM     15  C   UNL     1       2.645  -2.036   0.000  0.00  0.00    +0.000 C 
ATOM     16  O   UNL     1       3.455  -2.208   0.000  0.00  0.00    +0.000 OA
ENDBRANCH   8  13
BRANCH   1  19
ATOM     17  N   UNL     1      -1.133  -1.003   0.000  0.00  0.00    +0.000 NA
ATOM     18  C   UNL     1      -0.323  -0.835   0.000  0.00  0.00    +0.000 C 
ATOM     19  C   UNL     1      -0.236  -0.014   0.000  0.00  0.00    +0.000 C 
ATOM     20  C   UNL     1      -0.992   0.324   0.000  0.00  0.00    +0.000 C 
ATOM     21  C   UNL     1      -1.545  -0.290   0.000  0.00  0.00    +0.000 C 
ATOM     22  C   UNL     1      -1.164   1.129   0.000  0.00  0.00    +0.000 C 
BRANCH  17  23
ATOM     23  C   UNL     1      -1.538  -1.722   0.000  0.00  0.00    +0.000 C 
BRANCH  23  24
ATOM     24  C   UNL     1      -2.362  -1.731   0.000  0.00  0.00    +0.000 A 
ATOM     25  N   UNL     1      -2.778  -1.020   0.000  0.00  0.00    +0.000 NA
ATOM     26  C   UNL     1      -3.602  -1.029   0.000  0.00  0.00    +0.000 A 
ATOM     27  C   UNL     1      -4.008  -1.748   0.000  0.00  0.00    +0.000 A 
ATOM     28  C   UNL     1      -3.583  -2.461   0.000  0.00  0.00    +0.000 A 
ATOM     29  N   UNL     1      -2.760  -2.449   0.000  0.00  0.00    +0.000 NA
ENDBRANCH  23  24
ENDBRANCH  17  23
ENDBRANCH   1  19
TORSDOF 4
