REMARK  Name = 
REMARK  9 active torsions:
REMARK  status: ('A' for Active; 'I' for Inactive)
REMARK    1  A    between atoms: C_2  and  N_3
REMARK    2  A    between atoms: N_3  and  C_4
REMARK    3  A    between atoms: N_3  and  C_6
REMARK    4  A    between atoms: C_6  and  C_7
REMARK    5  A    between atoms: C_7  and  N_8
REMARK    6  A    between atoms: C_9  and  C_11
REMARK    7  A    between atoms: C_12  and  O_13
REMARK    8  A    between atoms: C_16  and  N_17
REMARK    9  A    between atoms: C_18  and  C_20
REMARK                            x       y       z     vdW  Elec       q    Type
REMARK                         _______ _______ _______ _____ _____    ______ ____
ROOT
ATOM      1  C   UNL     1       1.429  -4.125   0.000  0.00  0.00    +0.000 A 
ATOM      2  C   UNL     1       0.715  -3.712   0.000  0.00  0.00    +0.000 A 
ATOM      3  C   UNL     1       0.715  -2.888   0.000  0.00  0.00    +0.000 A 
ATOM      4  C   UNL     1       1.429  -2.475   0.000  0.00  0.00    +0.000 A 
ATOM      5  C   UNL     1       2.143  -2.888   0.000  0.00  0.00    +0.000 A 
ATOM      6  I   UNL     1       2.858  -2.475   0.000  0.00  0.00    +0.000 I 
ATOM      7  C   UNL     1       2.143  -3.712   0.000  0.00  0.00    +0.000 A 
ENDROOT
BRANCH   1   9
ATOM      8  N   UNL     1       0.715  -5.362   0.000  0.00  0.00    +0.000 NA
ATOM      9  C   UNL     1       1.429  -4.950   0.000  0.00  0.00    +0.000 C 
ATOM     10  O   UNL     1       2.143  -5.362   0.000  0.00  0.00    +0.000 OA
BRANCH   8  11
ATOM     11  C   UNL     1       0.000  -4.950   0.000  0.00  0.00    +0.000 C 
BRANCH  11  12
ATOM     12  C   UNL     1      -0.715  -5.362   0.000  0.00  0.00    +0.000 C 
BRANCH  12  13
ATOM     13  N   UNL     1      -1.429  -4.950   0.000  0.00  0.00    +0.000 NA
BRANCH  13  15
ATOM     14  C   UNL     1      -2.858  -4.950   0.000  0.00  0.00    +0.000 C 
ATOM     15  C   UNL     1      -2.143  -5.362   0.000  0.00  0.00    +0.000 C 
ENDBRANCH  13  15
BRANCH  13  16
ATOM     16  C   UNL     1      -1.429  -4.125   0.000  0.00  0.00    +0.000 C 
ATOM     17  C   UNL     1      -2.143  -3.712   0.000  0.00  0.00    +0.000 C 
ENDBRANCH  13  16
ENDBRANCH  12  13
ENDBRANCH  11  12
ENDBRANCH   8  11
ENDBRANCH   1   9
BRANCH   4  18
ATOM     18  N   UNL     1       1.429  -1.650   0.000  0.00  0.00    +0.000 NA
ATOM     19  C   UNL     1       0.715  -1.238   0.000  0.00  0.00    +0.000 C 
ATOM     20  O   UNL     1       0.000  -1.650   0.000  0.00  0.00    +0.000 OA
BRANCH  19  21
ATOM     21  C   UNL     1       0.715  -0.412   0.000  0.00  0.00    +0.000 A 
ATOM     22  C   UNL     1       0.000   0.000   0.000  0.00  0.00    +0.000 A 
ATOM     23  C   UNL     1       0.000   0.825   0.000  0.00  0.00    +0.000 A 
ATOM     24  C   UNL     1       0.715   1.238   0.000  0.00  0.00    +0.000 A 
ATOM     25  F   UNL     1       0.715   2.062   0.000  0.00  0.00    +0.000 F 
ATOM     26  C   UNL     1       1.429   0.825   0.000  0.00  0.00    +0.000 A 
ATOM     27  C   UNL     1       1.429   0.000   0.000  0.00  0.00    +0.000 A 
ENDBRANCH  19  21
ENDBRANCH   4  18
BRANCH   2  28
ATOM     28  O   UNL     1       0.000  -4.125   0.000  0.00  0.00    +0.000 OA
ATOM     29  C   UNL     1      -0.715  -3.712   0.000  0.00  0.00    +0.000 C 
ENDBRANCH   2  28
TORSDOF 9
