REMARK  Name = 
REMARK  12 active torsions:
REMARK  status: ('A' for Active; 'I' for Inactive)
REMARK    1  A    between atoms: C_1  and  C_10
REMARK    2  A    between atoms: N_2  and  C_4
REMARK    3  A    between atoms: C_4  and  C_5
REMARK    4  A    between atoms: C_5  and  C_6
REMARK    5  A    between atoms: C_12  and  N_28
REMARK    6  A    between atoms: C_14  and  C_19
REMARK    7  A    between atoms: N_20  and  C_21
REMARK    8  A    between atoms: C_21  and  C_22
REMARK    9  A    between atoms: C_22  and  C_23
REMARK   10  A    between atoms: C_29  and  C_30
REMARK   11  A    between atoms: C_30  and  C_31
REMARK   12  A    between atoms: C_30  and  C_34
REMARK                            x       y       z     vdW  Elec       q    Type
REMARK                         _______ _______ _______ _____ _____    ______ ____
ROOT
ATOM      1  C   UNL     1       0.355   0.418   0.000  0.00  0.00    +0.000 A 
ATOM      2  C   UNL     1       1.073   0.005   0.000  0.00  0.00    +0.000 A 
ATOM      3  C   UNL     1       1.073  -0.822   0.000  0.00  0.00    +0.000 A 
ATOM      4  C   UNL     1       0.355  -1.235   0.000  0.00  0.00    +0.000 A 
ATOM      5  C   UNL     1      -0.358  -0.822   0.000  0.00  0.00    +0.000 A 
ATOM      6  C   UNL     1      -0.358   0.005   0.000  0.00  0.00    +0.000 A 
ATOM      7  I   UNL     1       0.354  -2.062   0.000  0.00  0.00    +0.000 I 
ATOM      8  I   UNL     1      -1.074   0.418   0.000  0.00  0.00    +0.000 I 
ATOM      9  I   UNL     1       1.789   0.419   0.000  0.00  0.00    +0.000 I 
ENDROOT
BRANCH   1  10
ATOM     10  C   UNL     1       0.355   1.241   0.000  0.00  0.00    +0.000 C 
ATOM     11  N   UNL     1       1.072   1.653   0.000  0.00  0.00    +0.000 N 
ATOM     12  O   UNL     1      -0.360   1.655   0.000  0.00  0.00    +0.000 OA
ATOM     13  C   UNL     1       1.073   2.480   0.000  0.00  0.00    +0.000 C 
BRANCH  11  14
ATOM     14  C   UNL     1       1.783   1.241   0.000  0.00  0.00    +0.000 C 
BRANCH  14  15
ATOM     15  C   UNL     1       2.497   1.654   0.000  0.00  0.00    +0.000 C 
ATOM     16  O   UNL     1       2.497   2.481   0.000  0.00  0.00    +0.000 OA
BRANCH  15  17
ATOM     17  C   UNL     1       3.211   1.241   0.000  0.00  0.00    +0.000 C 
ATOM     18  O   UNL     1       3.925   1.654   0.000  0.00  0.00    +0.000 OA
ENDBRANCH  15  17
ENDBRANCH  14  15
ENDBRANCH  11  14
ENDBRANCH   1  10
BRANCH   5  19
ATOM     19  C   UNL     1      -1.074  -1.234   0.000  0.00  0.00    +0.000 C 
ATOM     20  N   UNL     1      -1.787  -0.818   0.000  0.00  0.00    +0.000 N 
ATOM     21  O   UNL     1      -1.077  -2.061   0.000  0.00  0.00    +0.000 OA
ATOM     22  C   UNL     1      -1.785   0.009   0.000  0.00  0.00    +0.000 C 
BRANCH  20  23
ATOM     23  C   UNL     1      -2.501  -1.231   0.000  0.00  0.00    +0.000 C 
BRANCH  23  24
ATOM     24  C   UNL     1      -3.215  -0.818   0.000  0.00  0.00    +0.000 C 
ATOM     25  O   UNL     1      -3.215   0.009   0.000  0.00  0.00    +0.000 OA
BRANCH  24  26
ATOM     26  C   UNL     1      -3.929  -1.231   0.000  0.00  0.00    +0.000 C 
ATOM     27  O   UNL     1      -4.643  -0.818   0.000  0.00  0.00    +0.000 OA
ENDBRANCH  24  26
ENDBRANCH  23  24
ENDBRANCH  20  23
ENDBRANCH   5  19
BRANCH   3  28
ATOM     28  N   UNL     1       1.787  -1.235   0.000  0.00  0.00    +0.000 NA
ATOM     29  C   UNL     1       2.501  -0.826   0.000  0.00  0.00    +0.000 C 
ATOM     30  O   UNL     1       2.503   0.001   0.000  0.00  0.00    +0.000 OA
BRANCH  29  31
ATOM     31  C   UNL     1       3.215  -1.239   0.000  0.00  0.00    +0.000 C 
BRANCH  31  32
ATOM     32  C   UNL     1       3.254  -2.066   0.000  0.00  0.00    +0.000 C 
ATOM     33  O   UNL     1       3.928  -2.481   0.000  0.00  0.00    +0.000 OA
ENDBRANCH  31  32
BRANCH  31  34
ATOM     34  C   UNL     1       3.929  -0.830   0.000  0.00  0.00    +0.000 C 
ATOM     35  O   UNL     1       4.643  -1.243   0.000  0.00  0.00    +0.000 OA
ENDBRANCH  31  34
ENDBRANCH  29  31
ENDBRANCH   3  28
TORSDOF 12
