REMARK  Name = 
REMARK  2 active torsions:
REMARK  status: ('A' for Active; 'I' for Inactive)
REMARK    1  A    between atoms: C_3  and  C_10
REMARK    2  A    between atoms: C_10  and  N_11
REMARK                            x       y       z     vdW  Elec       q    Type
REMARK                         _______ _______ _______ _____ _____    ______ ____
ROOT
ATOM      1 CL   UNL     1      -0.703  -1.460   0.000  0.00  0.00    +0.000 Cl
ATOM      2  C   UNL     1       0.011  -1.047   0.000  0.00  0.00    +0.000 A 
ATOM      3  C   UNL     1       0.011  -0.222   0.000  0.00  0.00    +0.000 A 
ATOM      4  N   UNL     1       0.726   0.190   0.000  0.00  0.00    +0.000 NA
ATOM      5  C   UNL     1       1.440  -0.222   0.000  0.00  0.00    +0.000 A 
ATOM      6  O   UNL     1       2.155   0.190   0.000  0.00  0.00    +0.000 OA
ATOM      7  N   UNL     1       1.440  -1.047   0.000  0.00  0.00    +0.000 NA
ATOM      8  C   UNL     1       0.726  -1.460   0.000  0.00  0.00    +0.000 A 
ATOM      9  O   UNL     1       0.726  -2.285   0.000  0.00  0.00    +0.000 OA
ENDROOT
BRANCH   3  10
ATOM     10  C   UNL     1      -0.703   0.190   0.000  0.00  0.00    +0.000 C 
BRANCH  10  11
ATOM     11  N   UNL     1      -0.703   1.015   0.000  0.00  0.00    +0.000 N 
ATOM     12  C   UNL     1      -1.370   1.500   0.000  0.00  0.00    +0.000 C 
ATOM     13  N   UNL     1      -2.155   1.245   0.000  0.00  0.00    +0.000 NA
ATOM     14  C   UNL     1      -1.115   2.285   0.000  0.00  0.00    +0.000 C 
ATOM     15  C   UNL     1      -0.290   2.285   0.000  0.00  0.00    +0.000 C 
ATOM     16  C   UNL     1      -0.035   1.500   0.000  0.00  0.00    +0.000 C 
ENDBRANCH  10  11
ENDBRANCH   3  10
TORSDOF 2
