REMARK  Name = 
REMARK  20 active torsions:
REMARK  status: ('A' for Active; 'I' for Inactive)
REMARK    1  A    between atoms: C_10  and  C_11
REMARK    2  A    between atoms: C_10  and  O_34
REMARK    3  A    between atoms: C_11  and  O_36
REMARK    4  A    between atoms: C_12  and  C_13
REMARK    5  A    between atoms: C_12  and  O_36
REMARK    6  A    between atoms: C_13  and  O_37
REMARK    7  A    between atoms: C_14  and  C_15
REMARK    8  A    between atoms: C_14  and  O_37
REMARK    9  A    between atoms: C_15  and  O_38
REMARK   10  A    between atoms: C_16  and  C_17
REMARK   11  A    between atoms: C_16  and  O_38
REMARK   12  A    between atoms: C_17  and  O_39
REMARK   13  A    between atoms: C_18  and  C_19
REMARK   14  A    between atoms: C_18  and  O_39
REMARK   15  A    between atoms: C_19  and  O_40
REMARK   16  A    between atoms: C_20  and  C_21
REMARK   17  A    between atoms: C_20  and  O_40
REMARK   18  A    between atoms: C_21  and  O_41
REMARK   19  A    between atoms: C_24  and  O_35
REMARK   20  A    between atoms: C_25  and  O_41
REMARK                            x       y       z     vdW  Elec       q    Type
REMARK                         _______ _______ _______ _____ _____    ______ ____
ROOT
ATOM      1  C   UNL     1      -8.735   2.774   0.000  0.00  0.00    +0.000 C 
ATOM      2  C   UNL     1      -8.801  -0.460   0.000  0.00  0.00    +0.000 A 
ATOM      3  C   UNL     1      -8.537  -1.245   0.000  0.00  0.00    +0.000 A 
ATOM      4  C   UNL     1      -5.480   1.539   0.000  0.00  0.00    +0.000 C 
ATOM      5  C   UNL     1      -6.222   1.882   0.000  0.00  0.00    +0.000 C 
ATOM      6  C   UNL     1      -6.754   1.800   0.000  0.00  0.00    +0.000 C 
ATOM      7  C   UNL     1      -7.276   2.524   0.000  0.00  0.00    +0.000 C 
ATOM      8  C   UNL     1      -8.575   0.882   0.000  0.00  0.00    +0.000 C 
ATOM      9  C   UNL     1      -8.253   0.153   0.000  0.00  0.00    +0.000 A 
ATOM     10  C   UNL     1      -7.711  -1.363   0.000  0.00  0.00    +0.000 A 
ATOM     11  C   UNL     1      -5.489   0.721   0.000  0.00  0.00    +0.000 C 
ATOM     12  C   UNL     1      -8.019   1.488   0.000  0.00  0.00    +0.000 C 
ATOM     13  C   UNL     1      -7.455   0.055   0.000  0.00  0.00    +0.000 A 
ATOM     14  C   UNL     1      -7.159  -0.705   0.000  0.00  0.00    +0.000 A 
ATOM     15  C   UNL     1      -6.215   0.291   0.000  0.00  0.00    +0.000 C 
ATOM     16  C   UNL     1      -6.934   0.770   0.000  0.00  0.00    +0.000 C 
ATOM     17  C   UNL     1      -7.034   1.339   0.000  0.00  0.00    +0.000 C 
ATOM     18  N   UNL     1      -8.063   2.296   0.000  0.00  0.00    +0.000 NA
ATOM     19  O   UNL     1      -7.214   2.144   0.000  0.00  0.00    +0.000 OA
ATOM     20  O   UNL     1      -6.344  -0.534   0.000  0.00  0.00    +0.000 OA
ENDROOT
BRANCH  10  22
ATOM     21  C   UNL     1      -7.936  -2.774   0.000  0.00  0.00    +0.000 C 
ATOM     22  O   UNL     1      -7.416  -2.134   0.000  0.00  0.00    +0.000 OA
ENDBRANCH  10  22
BRANCH  11  23
ATOM     23  O   UNL     1      -4.774   0.308   0.000  0.00  0.00    +0.000 OA
BRANCH  23  24
ATOM     24  C   UNL     1      -4.060   0.721   0.000  0.00  0.00    +0.000 C 
BRANCH  24  25
ATOM     25  C   UNL     1      -3.345   0.308   0.000  0.00  0.00    +0.000 C 
BRANCH  25  26
ATOM     26  O   UNL     1      -2.631   0.721   0.000  0.00  0.00    +0.000 OA
BRANCH  26  27
ATOM     27  C   UNL     1      -1.916   0.308   0.000  0.00  0.00    +0.000 C 
BRANCH  27  28
ATOM     28  C   UNL     1      -1.202   0.721   0.000  0.00  0.00    +0.000 C 
BRANCH  28  29
ATOM     29  O   UNL     1      -0.487   0.308   0.000  0.00  0.00    +0.000 OA
BRANCH  29  30
ATOM     30  C   UNL     1       0.227   0.721   0.000  0.00  0.00    +0.000 C 
BRANCH  30  31
ATOM     31  C   UNL     1       0.942   0.308   0.000  0.00  0.00    +0.000 C 
BRANCH  31  32
ATOM     32  O   UNL     1       1.656   0.721   0.000  0.00  0.00    +0.000 OA
BRANCH  32  33
ATOM     33  C   UNL     1       2.370   0.308   0.000  0.00  0.00    +0.000 C 
BRANCH  33  34
ATOM     34  C   UNL     1       3.085   0.721   0.000  0.00  0.00    +0.000 C 
BRANCH  34  35
ATOM     35  O   UNL     1       3.799   0.308   0.000  0.00  0.00    +0.000 OA
BRANCH  35  36
ATOM     36  C   UNL     1       4.514   0.721   0.000  0.00  0.00    +0.000 C 
BRANCH  36  37
ATOM     37  C   UNL     1       5.228   0.308   0.000  0.00  0.00    +0.000 C 
BRANCH  37  38
ATOM     38  O   UNL     1       5.943   0.721   0.000  0.00  0.00    +0.000 OA
BRANCH  38  39
ATOM     39  C   UNL     1       6.657   0.308   0.000  0.00  0.00    +0.000 C 
BRANCH  39  40
ATOM     40  C   UNL     1       7.372   0.721   0.000  0.00  0.00    +0.000 C 
BRANCH  40  42
ATOM     41  C   UNL     1       8.801   0.721   0.000  0.00  0.00    +0.000 C 
ATOM     42  O   UNL     1       8.086   0.308   0.000  0.00  0.00    +0.000 OA
ENDBRANCH  40  42
ENDBRANCH  39  40
ENDBRANCH  38  39
ENDBRANCH  37  38
ENDBRANCH  36  37
ENDBRANCH  35  36
ENDBRANCH  34  35
ENDBRANCH  33  34
ENDBRANCH  32  33
ENDBRANCH  31  32
ENDBRANCH  30  31
ENDBRANCH  29  30
ENDBRANCH  28  29
ENDBRANCH  27  28
ENDBRANCH  26  27
ENDBRANCH  25  26
ENDBRANCH  24  25
ENDBRANCH  23  24
ENDBRANCH  11  23
TORSDOF 20
