REMARK  Name = 
REMARK  24 active torsions:
REMARK  status: ('A' for Active; 'I' for Inactive)
REMARK    1  A    between atoms: N_16  and  C_26
REMARK    2  A    between atoms: N_17  and  C_25
REMARK    3  A    between atoms: N_18  and  C_31
REMARK    4  A    between atoms: N_19  and  C_39
REMARK    5  A    between atoms: C_24  and  C_25
REMARK    6  A    between atoms: C_24  and  C_28
REMARK    7  A    between atoms: C_25  and  C_44
REMARK    8  A    between atoms: C_26  and  C_27
REMARK    9  A    between atoms: C_26  and  C_46
REMARK   10  A    between atoms: C_27  and  C_30
REMARK   11  A    between atoms: C_28  and  C_36
REMARK   12  A    between atoms: C_29  and  C_31
REMARK   13  A    between atoms: C_29  and  C_32
REMARK   14  A    between atoms: C_30  and  C_41
REMARK   15  A    between atoms: C_31  and  C_51
REMARK   16  A    between atoms: C_32  and  C_37
REMARK   17  A    between atoms: C_33  and  C_34
REMARK   18  A    between atoms: C_33  and  C_35
REMARK   19  A    between atoms: C_35  and  C_40
REMARK   20  A    between atoms: C_39  and  C_43
REMARK   21  A    between atoms: C_39  and  C_56
REMARK   22  A    between atoms: C_43  and  C_52
REMARK   23  A    between atoms: C_47  and  C_48
REMARK   24  A    between atoms: C_52  and  C_58
REMARK                            x       y       z     vdW  Elec       q    Type
REMARK                         _______ _______ _______ _____ _____    ______ ____
ROOT
ATOM      1  O   UNK A   1       1.871   2.602   0.000  0.00  0.00    +0.000 OA
ATOM      2  N   UNK A   1       2.934   3.556   0.000  0.00  0.00    +0.000 NA
ATOM      3  C   UNK A   1       2.678   2.772   0.000  0.00  0.00    +0.000 C 
ENDROOT
BRANCH   2   4
ATOM      4  C   UNK A   1       2.383   4.170   0.000  0.00  0.00    +0.000 C 
BRANCH   4   7
ATOM      5  O   UNK A   1       2.089   5.568   0.000  0.00  0.00    +0.000 OA
ATOM      6  O   UNK A   1       3.447   5.125   0.000  0.00  0.00    +0.000 OA
ATOM      7  C   UNK A   1       2.640   4.954   0.000  0.00  0.00    +0.000 C 
ENDBRANCH   4   7
BRANCH   4   8
ATOM      8  C   UNK A   1       1.576   4.000   0.000  0.00  0.00    +0.000 C 
BRANCH   8   9
ATOM      9  C   UNK A   1       1.025   4.614   0.000  0.00  0.00    +0.000 C 
BRANCH   9  12
ATOM     10  O   UNK A   1      -0.038   3.660   0.000  0.00  0.00    +0.000 OA
ATOM     11  N   UNK A   1      -0.333   5.058   0.000  0.00  0.00    +0.000 NA
ATOM     12  C   UNK A   1       0.218   4.444   0.000  0.00  0.00    +0.000 C 
BRANCH  11  13
ATOM     13  C   UNK A   1      -1.140   4.888   0.000  0.00  0.00    +0.000 C 
BRANCH  13  16
ATOM     14  O   UNK A   1      -2.498   5.332   0.000  0.00  0.00    +0.000 OA
ATOM     15  O   UNK A   1      -1.435   6.286   0.000  0.00  0.00    +0.000 OA
ATOM     16  C   UNK A   1      -1.691   5.502   0.000  0.00  0.00    +0.000 C 
ENDBRANCH  13  16
BRANCH  13  17
ATOM     17  C   UNK A   1      -1.397   4.104   0.000  0.00  0.00    +0.000 C 
BRANCH  17  18
ATOM     18  C   UNK A   1      -2.204   3.933   0.000  0.00  0.00    +0.000 C 
BRANCH  18  21
ATOM     19  O   UNK A   1      -1.909   2.535   0.000  0.00  0.00    +0.000 OA
ATOM     20  N   UNK A   1      -3.267   2.979   0.000  0.00  0.00    +0.000 NA
ATOM     21  C   UNK A   1      -2.460   3.149   0.000  0.00  0.00    +0.000 C 
BRANCH  20  22
ATOM     22  C   UNK A   1      -3.524   2.195   0.000  0.00  0.00    +0.000 C 
BRANCH  22  25
ATOM     23  O   UNK A   1      -4.587   1.241   0.000  0.00  0.00    +0.000 OA
ATOM     24  O   UNK A   1      -4.882   2.639   0.000  0.00  0.00    +0.000 OA
ATOM     25  C   UNK A   1      -4.331   2.025   0.000  0.00  0.00    +0.000 C 
ENDBRANCH  22  25
BRANCH  22  26
ATOM     26  C   UNK A   1      -2.973   1.581   0.000  0.00  0.00    +0.000 C 
BRANCH  26  27
ATOM     27  C   UNK A   1      -3.229   0.797   0.000  0.00  0.00    +0.000 C 
BRANCH  27  30
ATOM     28  O   UNK A   1      -2.934  -0.601   0.000  0.00  0.00    +0.000 OA
ATOM     29  O   UNK A   1      -1.871   0.353   0.000  0.00  0.00    +0.000 OA
ATOM     30  C   UNK A   1      -2.678   0.183   0.000  0.00  0.00    +0.000 C 
ENDBRANCH  27  30
ENDBRANCH  26  27
ENDBRANCH  22  26
ENDBRANCH  20  22
ENDBRANCH  18  21
ENDBRANCH  17  18
ENDBRANCH  13  17
ENDBRANCH  11  13
ENDBRANCH   9  12
ENDBRANCH   8   9
ENDBRANCH   4   8
ENDBRANCH   2   4
BRANCH   3  31
ATOM     31  C   UNK A   1       3.229   2.158   0.000  0.00  0.00    +0.000 C 
BRANCH  31  32
ATOM     32  C   UNK A   1       2.973   1.374   0.000  0.00  0.00    +0.000 C 
BRANCH  32  33
ATOM     33  C   UNK A   1       3.524   0.760   0.000  0.00  0.00    +0.000 C 
BRANCH  33  35
ATOM     34  O   UNK A   0       1.909   0.419   0.000  0.00  0.00    +0.000 OA
ATOM     35  N   UNK A   1       3.267  -0.025   0.000  0.00  0.00    +0.000 NA
ATOM     36  C   UNK A   0       2.460  -0.195   0.000  0.00  0.00    +0.000 C 
BRANCH  36  38
ATOM     37  C   UNK A   0       1.691  -2.547   0.000  0.00  0.00    +0.000 A 
ATOM     38  C   UNK A   0       2.204  -0.979   0.000  0.00  0.00    +0.000 A 
ATOM     39  C   UNK A   0       2.498  -2.377   0.000  0.00  0.00    +0.000 A 
ATOM     40  C   UNK A   0       1.140  -1.933   0.000  0.00  0.00    +0.000 A 
ATOM     41  C   UNK A   0       2.755  -1.593   0.000  0.00  0.00    +0.000 A 
ATOM     42  C   UNK A   0       1.397  -1.149   0.000  0.00  0.00    +0.000 A 
BRANCH  37  43
ATOM     43  C   UNK A   0       1.435  -3.331   0.000  0.00  0.00    +0.000 C 
BRANCH  43  44
ATOM     44  C   UNK A   0       0.628  -3.501   0.000  0.00  0.00    +0.000 C 
BRANCH  44  50
ATOM     45  O   UNK A   0      -1.124  -3.300   0.000  0.00  0.00    +0.000 OA
ATOM     46  N   UNK A   0       0.371  -5.614   0.000  0.00  0.00    +0.000 NA
ATOM     47  N   UNK A   0      -1.124  -5.775   0.000  0.00  0.00    +0.000 NA
ATOM     48  N   UNK A   0      -1.838  -4.537   0.000  0.00  0.00    +0.000 NA
ATOM     49  N   UNK A   0      -2.553  -5.775   0.000  0.00  0.00    +0.000 NA
ATOM     50  C   UNK A   0       0.371  -4.286   0.000  0.00  0.00    +0.000 A 
ATOM     51  C   UNK A   0      -0.409  -4.537   0.000  0.00  0.00    +0.000 A 
ATOM     52  C   UNK A   0      -0.409  -5.362   0.000  0.00  0.00    +0.000 A 
ATOM     53  C   UNK A   0       0.853  -4.950   0.000  0.00  0.00    +0.000 A 
ATOM     54  C   UNK A   0      -1.124  -4.125   0.000  0.00  0.00    +0.000 A 
ATOM     55  C   UNK A   0      -1.838  -5.362   0.000  0.00  0.00    +0.000 A 
ENDBRANCH  44  50
ENDBRANCH  43  44
ENDBRANCH  37  43
ENDBRANCH  36  38
ENDBRANCH  33  35
BRANCH  33  58
ATOM     56  O   UNK A   1       4.587   1.714   0.000  0.00  0.00    +0.000 OA
ATOM     57  O   UNK A   1       4.882   0.316   0.000  0.00  0.00    +0.000 OA
ATOM     58  C   UNK A   1       4.331   0.930   0.000  0.00  0.00    +0.000 C 
ENDBRANCH  33  58
ENDBRANCH  32  33
ENDBRANCH  31  32
ENDBRANCH   3  31
TORSDOF 24
