REMARK  Name = 
REMARK  23 active torsions:
REMARK  status: ('A' for Active; 'I' for Inactive)
REMARK    1  A    between atoms: S_1  and  C_52
REMARK    2  A    between atoms: S_1  and  C_53
REMARK    3  A    between atoms: P_2  and  O_9
REMARK    4  A    between atoms: P_3  and  O_11
REMARK    5  A    between atoms: P_3  and  O_14
REMARK    6  A    between atoms: P_4  and  O_14
REMARK    7  A    between atoms: P_4  and  O_15
REMARK    8  A    between atoms: O_9  and  C_32
REMARK    9  A    between atoms: O_11  and  C_36
REMARK   10  A    between atoms: O_15  and  C_42
REMARK   11  A    between atoms: N_25  and  C_35
REMARK   12  A    between atoms: N_29  and  C_43
REMARK   13  A    between atoms: N_30  and  C_48
REMARK   14  A    between atoms: N_31  and  C_51
REMARK   15  A    between atoms: C_34  and  C_36
REMARK   16  A    between atoms: C_40  and  C_41
REMARK   17  A    between atoms: C_40  and  C_42
REMARK   18  A    between atoms: C_41  and  C_47
REMARK   19  A    between atoms: C_48  and  C_49
REMARK   20  A    between atoms: C_49  and  C_50
REMARK   21  A    between atoms: C_51  and  C_52
REMARK   22  A    between atoms: C_53  and  C_54
REMARK   23  A    between atoms: C_54  and  C_55
REMARK                            x       y       z     vdW  Elec       q    Type
REMARK                         _______ _______ _______ _____ _____    ______ ____
ROOT
ATOM      1  P   UNL     1      -2.723   1.849   0.000  0.00  0.00    +0.000 P 
ATOM      2  O   UNL     1      -2.386   2.602   0.000  0.00  0.00    +0.000 OA
ATOM      3  O   UNL     1      -3.060   1.096   0.000  0.00  0.00    +0.000 OA
ENDROOT
BRANCH   1   4
ATOM      4  O   UNL     1      -1.970   1.512   0.000  0.00  0.00    +0.000 OA
BRANCH   4   5
ATOM      5  C   UNL     1      -1.301   1.996   0.000  0.00  0.00    +0.000 C 
BRANCH   5   6
ATOM      6  C   UNL     1      -0.548   1.659   0.000  0.00  0.00    +0.000 C 
ATOM      7  C   UNL     1      -0.885   0.906   0.000  0.00  0.00    +0.000 C 
ATOM      8  C   UNL     1      -0.211   2.412   0.000  0.00  0.00    +0.000 C 
BRANCH   6  10
ATOM      9  O   UNL     1       0.290   0.501   0.000  0.00  0.00    +0.000 OA
ATOM     10  C   UNL     1       0.205   1.322   0.000  0.00  0.00    +0.000 C 
BRANCH  10  13
ATOM     11  O   UNL     1       0.788   2.627   0.000  0.00  0.00    +0.000 OA
ATOM     12  N   UNL     1       1.626   1.469   0.000  0.00  0.00    +0.000 N 
ATOM     13  C   UNL     1       0.873   1.806   0.000  0.00  0.00    +0.000 C 
ATOM     14  H   UNL     1       1.679   0.960   0.000  0.00  0.00    +0.000 HD
BRANCH  12  15
ATOM     15  C   UNL     1       2.294   1.953   0.000  0.00  0.00    +0.000 C 
BRANCH  15  16
ATOM     16  C   UNL     1       3.047   1.616   0.000  0.00  0.00    +0.000 C 
BRANCH  16  19
ATOM     17  O   UNL     1       3.631   2.920   0.000  0.00  0.00    +0.000 OA
ATOM     18  N   UNL     1       4.469   1.763   0.000  0.00  0.00    +0.000 N 
ATOM     19  C   UNL     1       3.716   2.100   0.000  0.00  0.00    +0.000 C 
ATOM     20  H   UNL     1       4.521   1.254   0.000  0.00  0.00    +0.000 HD
BRANCH  18  21
ATOM     21  C   UNL     1       5.137   2.247   0.000  0.00  0.00    +0.000 C 
BRANCH  21  22
ATOM     22  C   UNL     1       5.890   1.910   0.000  0.00  0.00    +0.000 C 
BRANCH  22  23
ATOM     23  S   UNL     1       6.559   2.393   0.000  0.00  0.00    +0.000 S 
BRANCH  23  24
ATOM     24  C   UNL     1       7.312   2.057   0.000  0.00  0.00    +0.000 C 
BRANCH  24  26
ATOM     25  O   UNL     1       7.895   3.361   0.000  0.00  0.00    +0.000 OA
ATOM     26  C   UNL     1       7.980   2.540   0.000  0.00  0.00    +0.000 C 
BRANCH  26  30
ATOM     27  F   UNL     1       8.396   1.450   0.000  0.00  0.00    +0.000 F 
ATOM     28  F   UNL     1       9.070   2.957   0.000  0.00  0.00    +0.000 F 
ATOM     29  F   UNL     1       9.486   1.867   0.000  0.00  0.00    +0.000 F 
ATOM     30  C   UNL     1       8.733   2.204   0.000  0.00  0.00    +0.000 C 
ENDBRANCH  26  30
ENDBRANCH  24  26
ENDBRANCH  23  24
ENDBRANCH  22  23
ENDBRANCH  21  22
ENDBRANCH  18  21
ENDBRANCH  16  19
ENDBRANCH  15  16
ENDBRANCH  12  15
ENDBRANCH  10  13
ENDBRANCH   6  10
ENDBRANCH   5   6
ENDBRANCH   4   5
ENDBRANCH   1   4
BRANCH   1  31
ATOM     31  O   UNL     1      -3.476   2.186   0.000  0.00  0.00    +0.000 OA
BRANCH  31  32
ATOM     32  P   UNL     1      -4.144   1.702   0.000  0.00  0.00    +0.000 P 
ATOM     33  O   UNL     1      -3.660   1.034   0.000  0.00  0.00    +0.000 OA
ATOM     34  O   UNL     1      -4.628   2.370   0.000  0.00  0.00    +0.000 OA
BRANCH  32  35
ATOM     35  O   UNL     1      -4.812   1.218   0.000  0.00  0.00    +0.000 OA
BRANCH  35  36
ATOM     36  C   UNL     1      -5.566   1.555   0.000  0.00  0.00    +0.000 C 
BRANCH  36  41
ATOM     37  O   UNL     1      -6.235   0.246   0.000  0.00  0.00    +0.000 OA
ATOM     38  O   UNL     1      -8.329   0.662   0.000  0.00  0.00    +0.000 OA
ATOM     39  C   UNL     1      -7.018   1.328   0.000  0.00  0.00    +0.000 C 
ATOM     40  C   UNL     1      -7.504   0.661   0.000  0.00  0.00    +0.000 C 
ATOM     41  C   UNL     1      -6.234   1.071   0.000  0.00  0.00    +0.000 C 
ATOM     42  C   UNL     1      -7.020  -0.007   0.000  0.00  0.00    +0.000 C 
BRANCH  42  43
ATOM     43  N   UNL     1      -7.277  -0.791   0.000  0.00  0.00    +0.000 N 
ATOM     44  N   UNL     1      -7.277  -2.119   0.000  0.00  0.00    +0.000 NA
ATOM     45  N   UNL     1      -8.772  -0.630   0.000  0.00  0.00    +0.000 NA
ATOM     46  N   UNL     1      -9.486  -1.868   0.000  0.00  0.00    +0.000 NA
ATOM     47  C   UNL     1      -8.057  -1.043   0.000  0.00  0.00    +0.000 A 
ATOM     48  C   UNL     1      -6.795  -1.455   0.000  0.00  0.00    +0.000 A 
ATOM     49  C   UNL     1      -8.057  -1.868   0.000  0.00  0.00    +0.000 A 
ATOM     50  C   UNL     1      -8.772  -2.280   0.000  0.00  0.00    +0.000 A 
ATOM     51  C   UNL     1      -9.486  -1.043   0.000  0.00  0.00    +0.000 A 
BRANCH  50  52
ATOM     52  N   UNL     1      -8.772  -3.105   0.000  0.00  0.00    +0.000 N 
ATOM     53  H   UNL     1      -9.215  -3.361   0.000  0.00  0.00    +0.000 HD
ATOM     54  H   UNL     1      -8.329  -3.361   0.000  0.00  0.00    +0.000 HD
ENDBRANCH  50  52
ENDBRANCH  42  43
BRANCH  39  55
ATOM     55  O   UNL     1      -7.272   2.113   0.000  0.00  0.00    +0.000 OA
BRANCH  55  56
ATOM     56  P   UNL     1      -6.718   2.725   0.000  0.00  0.00    +0.000 P 
ATOM     57  O   UNL     1      -7.331   3.278   0.000  0.00  0.00    +0.000 OA
ATOM     58  O   UNL     1      -6.165   3.337   0.000  0.00  0.00    +0.000 OA
ATOM     59  O   UNL     1      -6.106   2.172   0.000  0.00  0.00    +0.000 OA
ENDBRANCH  55  56
ENDBRANCH  39  55
ENDBRANCH  36  41
ENDBRANCH  35  36
ENDBRANCH  32  35
ENDBRANCH  31  32
ENDBRANCH   1  31
TORSDOF 23
