REMARK  Name = 
REMARK  4 active torsions:
REMARK  status: ('A' for Active; 'I' for Inactive)
REMARK    1  A    between atoms: C_2  and  C_3
REMARK    2  A    between atoms: C_2  and  N_10
REMARK    3  A    between atoms: C_14  and  C_15
REMARK    4  A    between atoms: C_15  and  O_17
REMARK                            x       y       z     vdW  Elec       q    Type
REMARK                         _______ _______ _______ _____ _____    ______ ____
ROOT
ATOM      1  C   UNL     1       1.322  -0.062   0.000  0.00  0.00    +0.000 C 
ATOM      2  C   UNL     1       2.037  -0.474   0.000  0.00  0.00    +0.000 C 
ENDROOT
BRANCH   2   3
ATOM      3  C   UNL     1       2.751  -0.062   0.000  0.00  0.00    +0.000 A 
ATOM      4  C   UNL     1       2.751   0.763   0.000  0.00  0.00    +0.000 A 
ATOM      5  C   UNL     1       3.466   1.176   0.000  0.00  0.00    +0.000 A 
ATOM      6  C   UNL     1       4.180   0.763   0.000  0.00  0.00    +0.000 A 
ATOM      7  C   UNL     1       4.180  -0.062   0.000  0.00  0.00    +0.000 A 
ATOM      8  C   UNL     1       3.466  -0.474   0.000  0.00  0.00    +0.000 A 
ATOM      9  I   UNL     1       4.895   1.176   0.000  0.00  0.00    +0.000 I 
ENDBRANCH   2   3
BRANCH   2  10
ATOM     10  N   UNL     1       2.037  -1.299   0.000  0.00  0.00    +0.000 N 
ATOM     11  C   UNL     1       2.704  -1.784   0.000  0.00  0.00    +0.000 A 
ATOM     12  N   UNL     1       2.449  -2.569   0.000  0.00  0.00    +0.000 NA
ATOM     13  C   UNL     1       1.624  -2.569   0.000  0.00  0.00    +0.000 A 
ATOM     14  C   UNL     1       1.369  -1.784   0.000  0.00  0.00    +0.000 A 
BRANCH  14  15
ATOM     15  C   UNL     1       0.585  -1.529   0.000  0.00  0.00    +0.000 C 
ATOM     16  O   UNL     1      -0.028  -2.081   0.000  0.00  0.00    +0.000 OA
BRANCH  15  17
ATOM     17  O   UNL     1       0.413  -0.722   0.000  0.00  0.00    +0.000 OA
ATOM     18  C   UNL     1      -0.371  -0.467   0.000  0.00  0.00    +0.000 C 
ENDBRANCH  15  17
ENDBRANCH  14  15
ENDBRANCH   2  10
TORSDOF 4
