REMARK  Name = 
REMARK  9 active torsions:
REMARK  status: ('A' for Active; 'I' for Inactive)
REMARK    1  A    between atoms: N_2  and  C_3
REMARK    2  A    between atoms: N_2  and  C_16
REMARK    3  A    between atoms: C_3  and  C_4
REMARK    4  A    between atoms: C_19  and  C_22
REMARK    5  A    between atoms: N_24  and  CA_25
REMARK    6  A    between atoms: CA_25  and  CB_26
REMARK    7  A    between atoms: CA_25  and  C_31
REMARK    8  A    between atoms: CB_26  and  CG_27
REMARK    9  A    between atoms: CG_27  and  CD_28
REMARK                            x       y       z     vdW  Elec       q    Type
REMARK                         _______ _______ _______ _____ _____    ______ ____
ROOT
ATOM      1  C   UNK A   0       3.572  -4.537   0.000  0.00  0.00    +0.000 A 
ATOM      2  C   UNK A   0       3.572  -3.712   0.000  0.00  0.00    +0.000 A 
ATOM      3  C   UNK A   0       4.287  -3.300   0.000  0.00  0.00    +0.000 A 
ATOM      4  C   UNK A   0       5.001  -3.712   0.000  0.00  0.00    +0.000 A 
ATOM      5  C   UNK A   0       5.001  -4.537   0.000  0.00  0.00    +0.000 A 
ATOM      6  C   UNK A   0       4.287  -4.950   0.000  0.00  0.00    +0.000 A 
ENDROOT
BRANCH   4   7
ATOM      7  C   UNK A   0       5.716  -3.300   0.000  0.00  0.00    +0.000 C 
ATOM      8  O   UNK A   0       5.716  -2.475   0.000  0.00  0.00    +0.000 OA
ATOM      9  N   GLU A   1       6.430  -3.712   0.000  0.00  0.00    +0.000 NA
BRANCH   9  10
ATOM     10  CA  GLU A   1       7.145  -3.300   0.000  0.00  0.00    +0.000 C 
BRANCH  10  11
ATOM     11  C   GLU A   1       7.145  -2.475   0.000  0.00  0.00    +0.000 C 
ATOM     12  O   GLU A   1       7.859  -2.062   0.000  0.00  0.00    +0.000 OA
ATOM     13  OXT GLU A   1       6.430  -2.062   0.000  0.00  0.00    +0.000 OA
ENDBRANCH  10  11
BRANCH  10  14
ATOM     14  CB  GLU A   1       7.859  -3.712   0.000  0.00  0.00    +0.000 C 
BRANCH  14  15
ATOM     15  CG  GLU A   1       8.574  -3.300   0.000  0.00  0.00    +0.000 C 
BRANCH  15  16
ATOM     16  CD  GLU A   1       9.288  -3.712   0.000  0.00  0.00    +0.000 C 
ATOM     17  OE1 GLU A   1      10.003  -3.300   0.000  0.00  0.00    +0.000 OA
ATOM     18  OE2 GLU A   1       9.288  -4.537   0.000  0.00  0.00    +0.000 OA
ENDBRANCH  15  16
ENDBRANCH  14  15
ENDBRANCH  10  14
ENDBRANCH   9  10
ENDBRANCH   4   7
BRANCH   1  20
ATOM     19  C   UNK A   0       2.143  -4.537   0.000  0.00  0.00    +0.000 C 
ATOM     20  N   UNK A   0       2.858  -4.950   0.000  0.00  0.00    +0.000 N 
BRANCH  20  21
ATOM     21  C   UNK A   0       2.858  -5.775   0.000  0.00  0.00    +0.000 C 
BRANCH  21  22
ATOM     22  C   UNK A   0       2.143  -6.188   0.000  0.00  0.00    +0.000 A 
ATOM     23  C   UNK A   0       2.143  -7.013   0.000  0.00  0.00    +0.000 A 
ATOM     24  N   UNK A   0       1.429  -7.425   0.000  0.00  0.00    +0.000 NA
ATOM     25  C   UNK A   0       0.715  -7.013   0.000  0.00  0.00    +0.000 A 
ATOM     26  N   UNK A   0       0.000  -7.425   0.000  0.00  0.00    +0.000 NA
ATOM     27  C   UNK A   0      -0.715  -7.013   0.000  0.00  0.00    +0.000 A 
ATOM     28  N   UNK A   0      -1.429  -7.425   0.000  0.00  0.00    +0.000 NA
ATOM     29  N   UNK A   0      -0.715  -6.188   0.000  0.00  0.00    +0.000 NA
ATOM     30  C   UNK A   0       0.000  -5.775   0.000  0.00  0.00    +0.000 A 
ATOM     31  O   UNK A   0       0.000  -4.950   0.000  0.00  0.00    +0.000 OA
ATOM     32  C   UNK A   0       0.715  -6.188   0.000  0.00  0.00    +0.000 A 
ATOM     33  N   UNK A   0       1.429  -5.775   0.000  0.00  0.00    +0.000 NA
ENDBRANCH  21  22
ENDBRANCH  20  21
ENDBRANCH   1  20
TORSDOF 9
