REMARK  Name = 
REMARK  3 active torsions:
REMARK  status: ('A' for Active; 'I' for Inactive)
REMARK    1  A    between atoms: CB_1  and  CA_2
REMARK    2  A    between atoms: CB_1  and  CG_3
REMARK    3  A    between atoms: CA_2  and  C_10
REMARK                            x       y       z     vdW  Elec       q    Type
REMARK                         _______ _______ _______ _____ _____    ______ ____
ROOT
ATOM      1  CB  PHE A   1       0.000   0.412   0.000  0.00  0.00    +0.000 C 
ENDROOT
BRANCH   1   2
ATOM      2  CG  PHE A   1      -0.714   0.000   0.000  0.00  0.00    +0.000 A 
ATOM      3  CE2 PHE A   1      -1.429  -1.237   0.000  0.00  0.00    +0.000 A 
ATOM      4  CZ  PHE A   1      -2.143  -0.825   0.000  0.00  0.00    +0.000 A 
ATOM      5  CE1 PHE A   1      -2.143   0.000   0.000  0.00  0.00    +0.000 A 
ATOM      6  CD1 PHE A   1      -1.429   0.412   0.000  0.00  0.00    +0.000 A 
ATOM      7  CD2 PHE A   1      -0.714  -0.825   0.000  0.00  0.00    +0.000 A 
ENDBRANCH   1   2
BRANCH   1   8
ATOM      8  CA  PHE A   1       0.714   0.000   0.000  0.00  0.00    +0.000 C 
ATOM      9  N   PHE A   1       0.714  -0.825   0.000  0.00  0.00    +0.000 NA
BRANCH   8  10
ATOM     10  C   PHE A   1       1.429   0.412   0.000  0.00  0.00    +0.000 C 
ATOM     11  O   PHE A   1       2.143   0.000   0.000  0.00  0.00    +0.000 OA
ATOM     12  OXT PHE A   1       1.429   1.237   0.000  0.00  0.00    +0.000 OA
ENDBRANCH   8  10
ENDBRANCH   1   8
TORSDOF 3
