REMARK  Name = 
REMARK  4 active torsions:
REMARK  status: ('A' for Active; 'I' for Inactive)
REMARK    1  A    between atoms: N_6  and  C_7
REMARK    2  A    between atoms: C_7  and  C_8
REMARK    3  A    between atoms: N_10  and  C_14
REMARK    4  A    between atoms: C_17  and  N_22
REMARK                            x       y       z     vdW  Elec       q    Type
REMARK                         _______ _______ _______ _____ _____    ______ ____
ROOT
ATOM      1  C   UNL     1      -2.357  -2.937   0.000  0.00  0.00    +0.000 A 
ATOM      2  C   UNL     1      -3.177  -3.023   0.000  0.00  0.00    +0.000 A 
ATOM      3  C   UNL     1      -3.662  -2.356   0.000  0.00  0.00    +0.000 A 
ATOM      4  C   UNL     1      -3.327  -1.602   0.000  0.00  0.00    +0.000 A 
ATOM      5  C   UNL     1      -2.506  -1.516   0.000  0.00  0.00    +0.000 A 
ATOM      6  C   UNL     1      -2.021  -2.183   0.000  0.00  0.00    +0.000 A 
ATOM      7  F   UNL     1      -1.201  -2.097   0.000  0.00  0.00    +0.000 F 
ATOM      8  F   UNL     1      -2.171  -0.762   0.000  0.00  0.00    +0.000 F 
ATOM      9  F   UNL     1      -4.483  -2.442   0.000  0.00  0.00    +0.000 F 
ENDROOT
BRANCH   4  10
ATOM     10  N   UNL     1      -3.812  -0.935   0.000  0.00  0.00    +0.000 N 
ATOM     11  C   UNL     1      -4.632  -1.021   0.000  0.00  0.00    +0.000 C 
ATOM     12  C   UNL     1      -5.117  -0.354   0.000  0.00  0.00    +0.000 C 
ATOM     13  C   UNL     1      -4.781   0.400   0.000  0.00  0.00    +0.000 C 
ATOM     14  O   UNL     1      -5.266   1.067   0.000  0.00  0.00    +0.000 OA
ATOM     15  C   UNL     1      -3.961   0.486   0.000  0.00  0.00    +0.000 C 
ATOM     16  C   UNL     1      -3.476  -0.181   0.000  0.00  0.00    +0.000 C 
ENDBRANCH   4  10
BRANCH   1  19
ATOM     17  C   UNL     1      -1.459  -4.874   0.000  0.00  0.00    +0.000 C 
ATOM     18  C   UNL     1      -2.127  -4.389   0.000  0.00  0.00    +0.000 C 
ATOM     19  N   UNL     1      -1.872  -3.604   0.000  0.00  0.00    +0.000 N 
ATOM     20  C   UNL     1      -1.047  -3.604   0.000  0.00  0.00    +0.000 C 
ATOM     21  O   UNL     1      -0.562  -2.937   0.000  0.00  0.00    +0.000 OA
ATOM     22  O   UNL     1      -0.792  -4.389   0.000  0.00  0.00    +0.000 OA
BRANCH  17  23
ATOM     23  C   UNL     1      -1.459  -5.699   0.000  0.00  0.00    +0.000 C 
BRANCH  23  29
ATOM     24  C   UNL     1      -0.077  -7.421   0.000  0.00  0.00    +0.000 A 
ATOM     25  C   UNL     1      -0.332  -8.206   0.000  0.00  0.00    +0.000 A 
ATOM     26  O   UNL     1      -1.157  -8.206   0.000  0.00  0.00    +0.000 OA
ATOM     27  N   UNL     1      -1.412  -7.421   0.000  0.00  0.00    +0.000 NA
ATOM     28  C   UNL     1      -0.745  -6.937   0.000  0.00  0.00    +0.000 A 
ATOM     29  N   UNL     1      -0.745  -6.112   0.000  0.00  0.00    +0.000 NA
ENDBRANCH  23  29
ENDBRANCH  17  23
ENDBRANCH   1  19
TORSDOF 4
