REMARK  Name = 
REMARK  13 active torsions:
REMARK  status: ('A' for Active; 'I' for Inactive)
REMARK    1  A    between atoms: C_2  and  O_9
REMARK    2  A    between atoms: C_4  and  C_7
REMARK    3  A    between atoms: N_12  and  C_19
REMARK    4  A    between atoms: N_14  and  C_17
REMARK    5  A    between atoms: C_17  and  C_22
REMARK    6  A    between atoms: C_19  and  C_21
REMARK    7  A    between atoms: C_22  and  N_23
REMARK    8  A    between atoms: C_22  and  C_30
REMARK    9  A    between atoms: N_23  and  C_24
REMARK   10  A    between atoms: C_24  and  C_25
REMARK   11  A    between atoms: C_25  and  C_26
REMARK   12  A    between atoms: C_26  and  C_27
REMARK   13  A    between atoms: C_36  and  C_42
REMARK                            x       y       z     vdW  Elec       q    Type
REMARK                         _______ _______ _______ _____ _____    ______ ____
ROOT
ATOM      1  C   UNL     1      -0.715   1.388   0.000  0.00  0.00    +0.000 A 
ATOM      2  C   UNL     1      -0.716   0.563   0.000  0.00  0.00    +0.000 A 
ATOM      3  N   UNL     1      -0.002   0.150   0.000  0.00  0.00    +0.000 N 
ATOM      4  C   UNL     1       0.713   0.561   0.000  0.00  0.00    +0.000 A 
ATOM      5  N   UNL     1       0.714   1.387   0.000  0.00  0.00    +0.000 N 
ATOM      6  C   UNL     1      -0.000   1.800   0.000  0.00  0.00    +0.000 A 
ATOM      7  O   UNL     1       0.000   2.625   0.000  0.00  0.00    +0.000 OA
ATOM      8  O   UNL     1       1.427   0.148   0.000  0.00  0.00    +0.000 OA
ATOM      9  C   UNL     1      -1.060   0.380   0.000  0.00  0.00    +0.000 C 
ENDROOT
BRANCH   1  13
ATOM     10  C   UNL     1      -2.857   2.627   0.000  0.00  0.00    +0.000 A 
ATOM     11  C   UNL     1      -2.858   1.802   0.000  0.00  0.00    +0.000 A 
ATOM     12  C   UNL     1      -2.144   1.389   0.000  0.00  0.00    +0.000 A 
ATOM     13  C   UNL     1      -1.429   1.801   0.000  0.00  0.00    +0.000 A 
ATOM     14  C   UNL     1      -1.428   2.626   0.000  0.00  0.00    +0.000 A 
ATOM     15  C   UNL     1      -2.143   3.039   0.000  0.00  0.00    +0.000 A 
ATOM     16  F   UNL     1      -2.145   0.564   0.000  0.00  0.00    +0.000 F 
BRANCH  11  17
ATOM     17  O   UNL     1      -3.573   1.391   0.000  0.00  0.00    +0.000 OA
ATOM     18  C   UNL     1      -4.287   1.804   0.000  0.00  0.00    +0.000 C 
ENDBRANCH  11  17
ENDBRANCH   1  13
BRANCH   3  19
ATOM     19  C   UNL     1      -0.003  -0.675   0.000  0.00  0.00    +0.000 C 
BRANCH  19  20
ATOM     20  C   UNL     1      -0.718  -1.087   0.000  0.00  0.00    +0.000 A 
ATOM     21  C   UNL     1      -0.719  -1.912   0.000  0.00  0.00    +0.000 A 
ATOM     22  C   UNL     1      -1.433  -2.324   0.000  0.00  0.00    +0.000 A 
ATOM     23  C   UNL     1      -2.147  -1.911   0.000  0.00  0.00    +0.000 A 
ATOM     24  C   UNL     1      -2.147  -1.086   0.000  0.00  0.00    +0.000 A 
ATOM     25  C   UNL     1      -1.432  -0.674   0.000  0.00  0.00    +0.000 A 
ATOM     26  F   UNL     1      -1.418  -0.107   0.000  0.00  0.00    +0.000 F 
BRANCH  21  27
ATOM     27  C   UNL     1      -0.004  -2.325   0.000  0.00  0.00    +0.000 C 
ATOM     28  F   UNL     1       0.710  -2.738   0.000  0.00  0.00    +0.000 F 
ATOM     29  F   UNL     1      -0.418  -3.039   0.000  0.00  0.00    +0.000 F 
ATOM     30  F   UNL     1       0.409  -1.611   0.000  0.00  0.00    +0.000 F 
ENDBRANCH  21  27
ENDBRANCH  19  20
ENDBRANCH   3  19
BRANCH   5  31
ATOM     31  C   UNL     1       1.428   1.798   0.000  0.00  0.00    +0.000 C 
BRANCH  31  32
ATOM     32  C   UNL     1       2.143   1.385   0.000  0.00  0.00    +0.000 C 
BRANCH  32  33
ATOM     33  C   UNL     1       2.857   1.797   0.000  0.00  0.00    +0.000 A 
ATOM     34  C   UNL     1       2.858   2.622   0.000  0.00  0.00    +0.000 A 
ATOM     35  C   UNL     1       3.573   3.034   0.000  0.00  0.00    +0.000 A 
ATOM     36  C   UNL     1       4.287   2.620   0.000  0.00  0.00    +0.000 A 
ATOM     37  C   UNL     1       4.286   1.795   0.000  0.00  0.00    +0.000 A 
ATOM     38  C   UNL     1       3.571   1.384   0.000  0.00  0.00    +0.000 A 
ENDBRANCH  32  33
BRANCH  32  39
ATOM     39  N   UNL     1       2.142   0.560   0.000  0.00  0.00    +0.000 NA
BRANCH  39  40
ATOM     40  C   UNL     1       2.856   0.147   0.000  0.00  0.00    +0.000 C 
BRANCH  40  41
ATOM     41  C   UNL     1       2.855  -0.678   0.000  0.00  0.00    +0.000 C 
BRANCH  41  42
ATOM     42  C   UNL     1       3.569  -1.091   0.000  0.00  0.00    +0.000 C 
BRANCH  42  43
ATOM     43  C   UNL     1       3.568  -1.916   0.000  0.00  0.00    +0.000 C 
ATOM     44  O   UNL     1       4.282  -2.329   0.000  0.00  0.00    +0.000 OA
ATOM     45  O   UNL     1       2.853  -2.328   0.000  0.00  0.00    +0.000 OA
ENDBRANCH  42  43
ENDBRANCH  41  42
ENDBRANCH  40  41
ENDBRANCH  39  40
ENDBRANCH  32  39
ENDBRANCH  31  32
ENDBRANCH   5  31
TORSDOF 13
