REMARK  Name = 
REMARK  11 active torsions:
REMARK  status: ('A' for Active; 'I' for Inactive)
REMARK    1  A    between atoms: C_4  and  O_13
REMARK    2  A    between atoms: O_13  and  C_14
REMARK    3  A    between atoms: C_14  and  C_16
REMARK    4  A    between atoms: C_16  and  C_17
REMARK    5  A    between atoms: C_21  and  C_22
REMARK    6  A    between atoms: C_21  and  C_32
REMARK    7  A    between atoms: C_22  and  C_31
REMARK    8  A    between atoms: C_24  and  C_25
REMARK    9  A    between atoms: C_24  and  C_27
REMARK   10  A    between atoms: C_25  and  C_26
REMARK   11  A    between atoms: C_26  and  C_31
REMARK                            x       y       z     vdW  Elec       q    Type
REMARK                         _______ _______ _______ _____ _____    ______ ____
ROOT
ATOM      1  C   UNL     1      -2.529  -1.919   0.000  0.00  0.00    +0.000 C 
ATOM      2  C   UNL     1      -2.529  -2.744   0.000  0.00  0.00    +0.000 C 
ATOM      3  C   UNL     1      -1.804  -3.156   0.000  0.00  0.00    +0.000 C 
ATOM      4  C   UNL     1      -1.804  -1.506   0.000  0.00  0.00    +0.000 C 
ATOM      5  C   UNL     1      -1.090  -1.919   0.000  0.00  0.00    +0.000 C 
ATOM      6  C   UNL     1      -1.090  -2.744   0.000  0.00  0.00    +0.000 C 
ATOM      7  C   UNL     1      -0.375  -3.156   0.000  0.00  0.00    +0.000 C 
ATOM      8  C   UNL     1       0.339  -2.744   0.000  0.00  0.00    +0.000 C 
ATOM      9  C   UNL     1       0.339  -1.919   0.000  0.00  0.00    +0.000 C 
ATOM     10  C   UNL     1       0.911  -1.588   0.000  0.00  0.00    +0.000 C 
ATOM     11  C   UNL     1      -3.100  -3.076   0.000  0.00  0.00    +0.000 C 
ATOM     12  C   UNL     1      -0.375  -1.506   0.000  0.00  0.00    +0.000 C 
ENDROOT
BRANCH   4  13
ATOM     13  O   UNL     1      -1.801  -0.679   0.000  0.00  0.00    +0.000 OA
BRANCH  13  14
ATOM     14  C   UNL     1      -2.515  -0.262   0.000  0.00  0.00    +0.000 C 
ATOM     15  O   UNL     1      -3.089  -0.591   0.000  0.00  0.00    +0.000 OA
BRANCH  14  16
ATOM     16  C   UNL     1      -2.512   0.565   0.000  0.00  0.00    +0.000 C 
ATOM     17  C   UNL     1      -2.509   1.226   0.000  0.00  0.00    +0.000 C 
ATOM     18  C   UNL     1      -1.938   0.893   0.000  0.00  0.00    +0.000 C 
BRANCH  16  19
ATOM     19  C   UNL     1      -3.226   0.981   0.000  0.00  0.00    +0.000 C 
ATOM     20  C   UNL     1      -3.224   1.643   0.000  0.00  0.00    +0.000 C 
ENDBRANCH  16  19
ENDBRANCH  14  16
ENDBRANCH  13  14
ENDBRANCH   4  13
BRANCH  12  21
ATOM     21  C   UNL     1       0.341  -1.116   0.000  0.00  0.00    +0.000 C 
BRANCH  21  22
ATOM     22  C   UNL     1       0.382  -0.290   0.000  0.00  0.00    +0.000 C 
BRANCH  22  24
ATOM     23  O   UNL     1       1.673  -0.270   0.000  0.00  0.00    +0.000 OA
ATOM     24  C   UNL     1       1.117   0.088   0.000  0.00  0.00    +0.000 C 
BRANCH  24  25
ATOM     25  C   UNL     1       1.159   0.914   0.000  0.00  0.00    +0.000 C 
BRANCH  25  26
ATOM     26  C   UNL     1       1.894   1.292   0.000  0.00  0.00    +0.000 C 
ATOM     27  O   UNL     1       2.450   0.933   0.000  0.00  0.00    +0.000 OA
BRANCH  26  28
ATOM     28  C   UNL     1       1.935   2.118   0.000  0.00  0.00    +0.000 C 
BRANCH  28  29
ATOM     29  C   UNL     1       2.671   2.496   0.000  0.00  0.00    +0.000 C 
ATOM     30  O   UNL     1       3.226   2.137   0.000  0.00  0.00    +0.000 OA
ATOM     31  O   UNL     1       2.704   3.156   0.000  0.00  0.00    +0.000 OA
ENDBRANCH  28  29
ENDBRANCH  26  28
ENDBRANCH  25  26
ENDBRANCH  24  25
ENDBRANCH  22  24
ENDBRANCH  21  22
ENDBRANCH  12  21
TORSDOF 11
