REMARK  Name = 
REMARK  8 active torsions:
REMARK  status: ('A' for Active; 'I' for Inactive)
REMARK    1  A    between atoms: C_3  and  C_4
REMARK    2  A    between atoms: C_4  and  S_5
REMARK    3  A    between atoms: S_5  and  C_6
REMARK    4  A    between atoms: C_9  and  O_10
REMARK    5  A    between atoms: O_10  and  C_11
REMARK    6  A    between atoms: C_11  and  C_14
REMARK    7  A    between atoms: C_21  and  C_23
REMARK    8  A    between atoms: C_26  and  C_30
REMARK                            x       y       z     vdW  Elec       q    Type
REMARK                         _______ _______ _______ _____ _____    ______ ____
ROOT
ATOM      1  C   UNL     1       0.715  -0.412   0.000  0.00  0.00    +0.000 C 
ATOM      2  C   UNL     1       0.715  -1.238   0.000  0.00  0.00    +0.000 A 
ATOM      3  C   UNL     1       1.382  -1.722   0.000  0.00  0.00    +0.000 A 
ATOM      4  S   UNL     1       1.127  -2.507   0.000  0.00  0.00    +0.000 S 
ATOM      5  C   UNL     1       0.302  -2.507   0.000  0.00  0.00    +0.000 A 
ATOM      6  N   UNL     1       0.047  -1.722   0.000  0.00  0.00    +0.000 NA
ENDROOT
BRANCH   5   7
ATOM      7  C   UNL     1      -0.183  -3.175   0.000  0.00  0.00    +0.000 A 
ATOM      8  C   UNL     1       0.153  -3.928   0.000  0.00  0.00    +0.000 A 
ATOM      9  C   UNL     1      -0.332  -4.596   0.000  0.00  0.00    +0.000 A 
ATOM     10  C   UNL     1      -1.153  -4.509   0.000  0.00  0.00    +0.000 A 
ATOM     11  C   UNL     1      -1.488  -3.756   0.000  0.00  0.00    +0.000 A 
ATOM     12  C   UNL     1      -1.003  -3.088   0.000  0.00  0.00    +0.000 A 
ATOM     13  F   UNL     1      -1.339  -2.335   0.000  0.00  0.00    +0.000 F 
BRANCH  10  14
ATOM     14  C   UNL     1      -1.638  -5.177   0.000  0.00  0.00    +0.000 C 
ATOM     15  F   UNL     1      -2.123  -5.844   0.000  0.00  0.00    +0.000 F 
ATOM     16  F   UNL     1      -2.305  -4.692   0.000  0.00  0.00    +0.000 F 
ATOM     17  F   UNL     1      -0.970  -5.662   0.000  0.00  0.00    +0.000 F 
ENDBRANCH  10  14
ENDBRANCH   5   7
BRANCH   3  18
ATOM     18  C   UNL     1       2.167  -1.468   0.000  0.00  0.00    +0.000 C 
BRANCH  18  19
ATOM     19  S   UNL     1       2.338  -0.660   0.000  0.00  0.00    +0.000 S 
BRANCH  19  20
ATOM     20  C   UNL     1       3.123  -0.406   0.000  0.00  0.00    +0.000 A 
ATOM     21  C   UNL     1       3.294   0.401   0.000  0.00  0.00    +0.000 A 
ATOM     22  C   UNL     1       4.079   0.656   0.000  0.00  0.00    +0.000 A 
ATOM     23  C   UNL     1       4.692   0.104   0.000  0.00  0.00    +0.000 A 
ATOM     24  C   UNL     1       4.520  -0.703   0.000  0.00  0.00    +0.000 A 
ATOM     25  C   UNL     1       5.133  -1.255   0.000  0.00  0.00    +0.000 C 
ATOM     26  C   UNL     1       3.736  -0.958   0.000  0.00  0.00    +0.000 A 
BRANCH  23  27
ATOM     27  O   UNL     1       5.476   0.359   0.000  0.00  0.00    +0.000 OA
BRANCH  27  28
ATOM     28  C   UNL     1       6.090  -0.193   0.000  0.00  0.00    +0.000 C 
ATOM     29  C   UNL     1       6.642   0.420   0.000  0.00  0.00    +0.000 C 
ATOM     30  C   UNL     1       5.538  -0.806   0.000  0.00  0.00    +0.000 C 
BRANCH  28  31
ATOM     31  C   UNL     1       6.703  -0.745   0.000  0.00  0.00    +0.000 C 
ATOM     32  O   UNL     1       7.487  -0.490   0.000  0.00  0.00    +0.000 OA
ATOM     33  O   UNL     1       6.531  -1.552   0.000  0.00  0.00    +0.000 OA
ENDBRANCH  28  31
ENDBRANCH  27  28
ENDBRANCH  23  27
ENDBRANCH  19  20
ENDBRANCH  18  19
ENDBRANCH   3  18
TORSDOF 8
