REMARK  Name = 
REMARK  14 active torsions:
REMARK  status: ('A' for Active; 'I' for Inactive)
REMARK    1  A    between atoms: O_2  and  C_3
REMARK    2  A    between atoms: C_6  and  S_9
REMARK    3  A    between atoms: S_9  and  C_10
REMARK    4  A    between atoms: N_17  and  C_20
REMARK    5  A    between atoms: C_20  and  C_21
REMARK    6  A    between atoms: C_21  and  O_22
REMARK    7  A    between atoms: O_22  and  C_23
REMARK    8  A    between atoms: C_23  and  P_24
REMARK    9  A    between atoms: P_24  and  O_26
REMARK   10  A    between atoms: P_24  and  O_32
REMARK   11  A    between atoms: O_26  and  C_27
REMARK   12  A    between atoms: C_27  and  C_28
REMARK   13  A    between atoms: O_32  and  C_33
REMARK   14  A    between atoms: C_33  and  C_34
REMARK                            x       y       z     vdW  Elec       q    Type
REMARK                         _______ _______ _______ _____ _____    ______ ____
ROOT
ATOM      1  C   UNL     1      -2.357   1.041   0.000  0.00  0.00    +0.000 A 
ATOM      2  C   UNL     1      -1.642   1.453   0.000  0.00  0.00    +0.000 A 
ATOM      3  C   UNL     1      -0.928   1.041   0.000  0.00  0.00    +0.000 A 
ATOM      4  N   UNL     1      -0.928   0.216   0.000  0.00  0.00    +0.000 NA
ATOM      5  C   UNL     1      -1.642  -0.197   0.000  0.00  0.00    +0.000 A 
ATOM      6  N   UNL     1      -2.357   0.216   0.000  0.00  0.00    +0.000 NA
ATOM      7  N   UNL     1      -1.642  -1.022   0.000  0.00  0.00    +0.000 NA
ATOM      8  N   UNL     1      -0.315   1.593   0.000  0.00  0.00    +0.000 N 
ATOM      9  C   UNL     1      -0.650   2.346   0.000  0.00  0.00    +0.000 A 
ATOM     10  N   UNL     1      -1.471   2.260   0.000  0.00  0.00    +0.000 NA
ENDROOT
BRANCH   8  11
ATOM     11  C   UNL     1       0.492   1.421   0.000  0.00  0.00    +0.000 C 
BRANCH  11  12
ATOM     12  C   UNL     1       0.747   0.636   0.000  0.00  0.00    +0.000 C 
BRANCH  12  13
ATOM     13  O   UNL     1       1.554   0.465   0.000  0.00  0.00    +0.000 OA
BRANCH  13  14
ATOM     14  C   UNL     1       1.809  -0.320   0.000  0.00  0.00    +0.000 C 
BRANCH  14  15
ATOM     15  P   UNL     1       2.616  -0.491   0.000  0.00  0.00    +0.000 P 
ATOM     16  O   UNL     1       2.444  -1.298   0.000  0.00  0.00    +0.000 OA
BRANCH  15  17
ATOM     17  O   UNL     1       3.423  -0.663   0.000  0.00  0.00    +0.000 OA
BRANCH  17  18
ATOM     18  C   UNL     1       3.975  -0.050   0.000  0.00  0.00    +0.000 C 
BRANCH  18  19
ATOM     19  C   UNL     1       4.782  -0.221   0.000  0.00  0.00    +0.000 C 
ATOM     20  F   UNL     1       5.589  -0.393   0.000  0.00  0.00    +0.000 F 
ATOM     21  F   UNL     1       4.610  -1.028   0.000  0.00  0.00    +0.000 F 
ATOM     22  F   UNL     1       4.953   0.586   0.000  0.00  0.00    +0.000 F 
ENDBRANCH  18  19
ENDBRANCH  17  18
ENDBRANCH  15  17
BRANCH  15  23
ATOM     23  O   UNL     1       2.787   0.316   0.000  0.00  0.00    +0.000 OA
BRANCH  23  24
ATOM     24  C   UNL     1       3.572   0.571   0.000  0.00  0.00    +0.000 C 
BRANCH  24  25
ATOM     25  C   UNL     1       3.744   1.378   0.000  0.00  0.00    +0.000 C 
ATOM     26  F   UNL     1       3.915   2.185   0.000  0.00  0.00    +0.000 F 
ATOM     27  F   UNL     1       4.551   1.206   0.000  0.00  0.00    +0.000 F 
ATOM     28  F   UNL     1       2.937   1.549   0.000  0.00  0.00    +0.000 F 
ENDBRANCH  24  25
ENDBRANCH  23  24
ENDBRANCH  15  23
ENDBRANCH  14  15
ENDBRANCH  13  14
ENDBRANCH  12  13
ENDBRANCH  11  12
ENDBRANCH   8  11
BRANCH   1  29
ATOM     29  S   UNL     1      -3.071   1.453   0.000  0.00  0.00    +0.000 S 
BRANCH  29  33
ATOM     30  C   UNL     1      -5.215   0.216   0.000  0.00  0.00    +0.000 A 
ATOM     31  C   UNL     1      -5.215   1.041   0.000  0.00  0.00    +0.000 A 
ATOM     32  C   UNL     1      -4.500   1.453   0.000  0.00  0.00    +0.000 A 
ATOM     33  C   UNL     1      -3.786   1.041   0.000  0.00  0.00    +0.000 A 
ATOM     34  C   UNL     1      -3.786   0.216   0.000  0.00  0.00    +0.000 A 
ATOM     35  C   UNL     1      -4.500  -0.197   0.000  0.00  0.00    +0.000 A 
BRANCH  30  37
ATOM     36  C   UNL     1      -5.929  -1.022   0.000  0.00  0.00    +0.000 C 
ATOM     37  O   UNL     1      -5.929  -0.197   0.000  0.00  0.00    +0.000 OA
ENDBRANCH  30  37
ENDBRANCH  29  33
ENDBRANCH   1  29
TORSDOF 14
