REMARK  Name = 
REMARK  5 active torsions:
REMARK  status: ('A' for Active; 'I' for Inactive)
REMARK    1  A    between atoms: C_1  and  S_2
REMARK    2  A    between atoms: S_2  and  N_5
REMARK    3  A    between atoms: C_11  and  N_14
REMARK    4  A    between atoms: N_17  and  C_19
REMARK    5  A    between atoms: C_22  and  C_25
REMARK                            x       y       z     vdW  Elec       q    Type
REMARK                         _______ _______ _______ _____ _____    ______ ____
ROOT
ATOM      1  C   UNL     1      17.733  -9.277   0.000  0.00  0.00    +0.000 A 
ATOM      2  C   UNL     1      17.733 -10.099   0.000  0.00  0.00    +0.000 A 
ATOM      3  C   UNL     1      17.020  -8.860   0.000  0.00  0.00    +0.000 A 
ATOM      4  C   UNL     1      17.020 -10.508   0.000  0.00  0.00    +0.000 A 
ATOM      5  C   UNL     1      16.312  -9.277   0.000  0.00  0.00    +0.000 A 
ATOM      6  C   UNL     1      16.312 -10.099   0.000  0.00  0.00    +0.000 A 
ENDROOT
BRANCH   1   7
ATOM      7  S   UNL     1      18.441  -8.860   0.000  0.00  0.00    +0.000 S 
ATOM      8  O   UNL     1      17.729  -8.276   0.000  0.00  0.00    +0.000 OA
ATOM      9  O   UNL     1      19.179  -8.276   0.000  0.00  0.00    +0.000 OA
BRANCH   7  10
ATOM     10  N   UNL     1      19.157  -9.277   0.000  0.00  0.00    +0.000 NA
ATOM     11  C   UNL     1      19.869  -8.860   0.000  0.00  0.00    +0.000 A 
ATOM     12  C   UNL     1      19.862  -8.039   0.000  0.00  0.00    +0.000 A 
ATOM     13  N   UNL     1      20.581  -9.270   0.000  0.00  0.00    +0.000 NA
ATOM     14  C   UNL     1      20.574  -7.626   0.000  0.00  0.00    +0.000 A 
ATOM     15  C   UNL     1      21.294  -8.857   0.000  0.00  0.00    +0.000 A 
ATOM     16  C   UNL     1      21.290  -8.035   0.000  0.00  0.00    +0.000 A 
ENDBRANCH   7  10
ENDBRANCH   1   7
BRANCH   6  17
ATOM     17  N   UNL     1      15.596 -10.508   0.000  0.00  0.00    +0.000 NA
ATOM     18  N   UNL     1      14.771 -10.073   0.000  0.00  0.00    +0.000 NA
BRANCH  18  19
ATOM     19  C   UNL     1      13.963 -10.541   0.000  0.00  0.00    +0.000 A 
ATOM     20  C   UNL     1      13.963 -11.476   0.000  0.00  0.00    +0.000 A 
ATOM     21  C   UNL     1      13.156 -10.073   0.000  0.00  0.00    +0.000 A 
ATOM     22  C   UNL     1      13.156 -11.943   0.000  0.00  0.00    +0.000 A 
ATOM     23  C   UNL     1      12.345 -10.541   0.000  0.00  0.00    +0.000 A 
ATOM     24  C   UNL     1      12.349 -11.476   0.000  0.00  0.00    +0.000 A 
ATOM     25  O   UNL     1      11.538 -11.947   0.000  0.00  0.00    +0.000 OA
BRANCH  22  26
ATOM     26  C   UNL     1      13.156 -12.878   0.000  0.00  0.00    +0.000 C 
ATOM     27  O   UNL     1      13.967 -13.345   0.000  0.00  0.00    +0.000 OA
ATOM     28  O   UNL     1      12.349 -13.345   0.000  0.00  0.00    +0.000 OA
ENDBRANCH  22  26
ENDBRANCH  18  19
ENDBRANCH   6  17
TORSDOF 5
