REMARK  Name = 
REMARK  2 active torsions:
REMARK  status: ('A' for Active; 'I' for Inactive)
REMARK    1  A    between atoms: C_2  and  C_3
REMARK    2  A    between atoms: N_16  and  C_17
REMARK                            x       y       z     vdW  Elec       q    Type
REMARK                         _______ _______ _______ _____ _____    ______ ____
ROOT
ATOM      1  C   UNL     1       0.000   0.412   0.000  0.00  0.00    +0.000 A 
ATOM      2  C   UNL     1       0.715   0.000   0.000  0.00  0.00    +0.000 A 
ATOM      3  O   UNL     1       0.715  -0.824   0.000  0.00  0.00    +0.000 OA
ATOM      4  C   UNL     1       1.430   0.412   0.000  0.00  0.00    +0.000 A 
ATOM      5  C   UNL     1       1.430   1.241   0.000  0.00  0.00    +0.000 A 
ATOM      6  N   UNL     1       0.715   1.653   0.000  0.00  0.00    +0.000 N 
ATOM      7  C   UNL     1       0.715   2.476   0.000  0.00  0.00    +0.000 C 
ATOM      8  C   UNL     1       0.000   1.241   0.000  0.00  0.00    +0.000 A 
ATOM      9  O   UNL     1      -0.715   1.653   0.000  0.00  0.00    +0.000 OA
ATOM     10  C   UNL     1       2.145   1.653   0.000  0.00  0.00    +0.000 A 
ATOM     11  C   UNL     1       2.860   1.241   0.000  0.00  0.00    +0.000 A 
ATOM     12  C   UNL     1       2.860   0.412   0.000  0.00  0.00    +0.000 A 
ATOM     13  C   UNL     1       2.145   0.000   0.000  0.00  0.00    +0.000 A 
ENDROOT
BRANCH   1  15
ATOM     14  O   UNL     1      -1.430   0.412   0.000  0.00  0.00    +0.000 OA
ATOM     15  C   UNL     1      -0.715   0.000   0.000  0.00  0.00    +0.000 C 
ATOM     16  N   UNL     1      -0.715  -0.824   0.000  0.00  0.00    +0.000 N 
ATOM     17  C   UNL     1       0.000  -1.235   0.000  0.00  0.00    +0.000 C 
BRANCH  16  18
ATOM     18  C   UNL     1      -1.430  -1.235   0.000  0.00  0.00    +0.000 A 
ATOM     19  C   UNL     1      -2.145  -0.824   0.000  0.00  0.00    +0.000 A 
ATOM     20  C   UNL     1      -2.860  -1.235   0.000  0.00  0.00    +0.000 A 
ATOM     21  C   UNL     1      -2.860  -2.065   0.000  0.00  0.00    +0.000 A 
ATOM     22  C   UNL     1      -2.145  -2.476   0.000  0.00  0.00    +0.000 A 
ATOM     23  C   UNL     1      -1.430  -2.065   0.000  0.00  0.00    +0.000 A 
ENDBRANCH  16  18
ENDBRANCH   1  15
TORSDOF 2
