REMARK  Name = 
REMARK  5 active torsions:
REMARK  status: ('A' for Active; 'I' for Inactive)
REMARK    1  A    between atoms: S_2  and  C_5
REMARK    2  A    between atoms: C_5  and  C_6
REMARK    3  A    between atoms: C_6  and  C_7
REMARK    4  A    between atoms: C_7  and  N_8
REMARK    5  A    between atoms: N_8  and  C_9
REMARK                            x       y       z     vdW  Elec       q    Type
REMARK                         _______ _______ _______ _____ _____    ______ ____
ROOT
ATOM      1  C   UNL     1       0.002  -0.007   0.000  0.00  0.00    +0.000 C 
ENDROOT
BRANCH   1   2
ATOM      2  C   UNL     1       0.714   0.405   0.000  0.00  0.00    +0.000 C 
BRANCH   2   3
ATOM      3  C   UNL     1       0.713   1.234   0.000  0.00  0.00    +0.000 C 
BRANCH   3   5
ATOM      4  O   UNL     1       0.973   2.492   0.000  0.00  0.00    +0.000 OA
ATOM      5  S   UNL     1       1.425   1.649   0.000  0.00  0.00    +0.000 S 
ATOM      6  O   UNL     1       2.148   2.066   0.000  0.00  0.00    +0.000 OA
ATOM      7  O   UNL     1       1.841   0.926   0.000  0.00  0.00    +0.000 OA
ENDBRANCH   3   5
ENDBRANCH   2   3
ENDBRANCH   1   2
BRANCH   1   8
ATOM      8  N   UNL     1       0.003  -0.836   0.000  0.00  0.00    +0.000 NA
BRANCH   8   9
ATOM      9  C   UNL     1      -0.721  -1.254   0.000  0.00  0.00    +0.000 C 
ATOM     10  C   UNL     1      -1.433  -0.841   0.000  0.00  0.00    +0.000 C 
ATOM     11  C   UNL     1      -2.148  -1.254   0.000  0.00  0.00    +0.000 C 
ATOM     12  C   UNL     1      -2.148  -2.079   0.000  0.00  0.00    +0.000 C 
ATOM     13  C   UNL     1      -1.433  -2.492   0.000  0.00  0.00    +0.000 C 
ATOM     14  C   UNL     1      -0.721  -2.079   0.000  0.00  0.00    +0.000 C 
ENDBRANCH   8   9
ENDBRANCH   1   8
TORSDOF 5
