REMARK  Name = 
REMARK  4 active torsions:
REMARK  status: ('A' for Active; 'I' for Inactive)
REMARK    1  A    between atoms: N_2  and  C_3
REMARK    2  A    between atoms: C_3  and  C_4
REMARK    3  A    between atoms: C_4  and  C_5
REMARK    4  A    between atoms: C_5  and  P_8
REMARK                            x       y       z     vdW  Elec       q    Type
REMARK                         _______ _______ _______ _____ _____    ______ ____
ROOT
ATOM      1  C   UNL     1      -0.001   0.207   0.000  0.00  0.00    +0.000 C 
ENDROOT
BRANCH   1   2
ATOM      2  C   UNL     1      -0.715  -0.206   0.000  0.00  0.00    +0.000 C 
BRANCH   2   4
ATOM      3  C   UNL     1      -2.143  -0.211   0.000  0.00  0.00    +0.000 C 
ATOM      4  N   UNL     1      -1.429   0.203   0.000  0.00  0.00    +0.000 N 
ATOM      5  O   UNL     1      -2.142  -1.038   0.000  0.00  0.00    +0.000 OA
ATOM      6  O   UNL     1      -1.430   1.029   0.000  0.00  0.00    +0.000 OA
ENDBRANCH   2   4
ENDBRANCH   1   2
BRANCH   1   7
ATOM      7  C   UNL     1       0.713  -0.202   0.000  0.00  0.00    +0.000 C 
BRANCH   7   8
ATOM      8  P   UNL     1       1.428   0.213   0.000  0.00  0.00    +0.000 P 
ATOM      9  O   UNL     1       1.428   1.038   0.000  0.00  0.00    +0.000 OA
ATOM     10  O   UNL     1       2.143  -0.199   0.000  0.00  0.00    +0.000 OA
ATOM     11  O   UNL     1       1.641  -0.584   0.000  0.00  0.00    +0.000 OA
ENDBRANCH   7   8
ENDBRANCH   1   7
TORSDOF 4
