REMARK  Name = 
REMARK  4 active torsions:
REMARK  status: ('A' for Active; 'I' for Inactive)
REMARK    1  A    between atoms: C_3  and  C_18
REMARK    2  A    between atoms: C_14  and  C_15
REMARK    3  A    between atoms: C_20  and  C_24
REMARK    4  A    between atoms: C_24  and  C_27
REMARK                            x       y       z     vdW  Elec       q    Type
REMARK                         _______ _______ _______ _____ _____    ______ ____
ROOT
ATOM      1  C   UNL     1       0.388   1.092   0.000  0.00  0.00    +0.000 C 
ATOM      2  C   UNL     1       0.388   0.267   0.000  0.00  0.00    +0.000 A 
ATOM      3  C   UNL     1       1.055  -0.217   0.000  0.00  0.00    +0.000 A 
ATOM      4  S   UNL     1       0.800  -1.002   0.000  0.00  0.00    +0.000 S 
ATOM      5  C   UNL     1      -0.025  -1.002   0.000  0.00  0.00    +0.000 A 
ATOM      6  N   UNL     1      -0.280  -0.217   0.000  0.00  0.00    +0.000 NA
ATOM      7  N   UNL     1      -0.510  -1.669   0.000  0.00  0.00    +0.000 NA
ATOM      8  C   UNL     1      -1.330  -1.583   0.000  0.00  0.00    +0.000 C 
ATOM      9  O   UNL     1      -1.666  -0.830   0.000  0.00  0.00    +0.000 OA
ATOM     10  N   UNL     1      -1.815  -2.251   0.000  0.00  0.00    +0.000 N 
ATOM     11  C   UNL     1      -1.560  -3.035   0.000  0.00  0.00    +0.000 C 
ATOM     12  C   UNL     1      -2.228  -3.520   0.000  0.00  0.00    +0.000 C 
ATOM     13  C   UNL     1      -2.895  -3.035   0.000  0.00  0.00    +0.000 C 
ATOM     14  C   UNL     1      -2.640  -2.251   0.000  0.00  0.00    +0.000 C 
ENDROOT
BRANCH   3  15
ATOM     15  C   UNL     1       1.839   0.037   0.000  0.00  0.00    +0.000 A 
ATOM     16  C   UNL     1       2.011   0.844   0.000  0.00  0.00    +0.000 A 
ATOM     17  C   UNL     1       2.796   1.099   0.000  0.00  0.00    +0.000 A 
ATOM     18  N   UNL     1       3.409   0.547   0.000  0.00  0.00    +0.000 NA
ATOM     19  C   UNL     1       3.237  -0.260   0.000  0.00  0.00    +0.000 A 
ATOM     20  C   UNL     1       2.453  -0.514   0.000  0.00  0.00    +0.000 A 
BRANCH  17  21
ATOM     21  C   UNL     1       2.967   1.906   0.000  0.00  0.00    +0.000 C 
ATOM     22  C   UNL     1       3.774   1.735   0.000  0.00  0.00    +0.000 C 
ATOM     23  C   UNL     1       2.160   2.078   0.000  0.00  0.00    +0.000 C 
BRANCH  21  24
ATOM     24  C   UNL     1       3.139   2.713   0.000  0.00  0.00    +0.000 C 
ATOM     25  F   UNL     1       3.310   3.520   0.000  0.00  0.00    +0.000 F 
ATOM     26  F   UNL     1       3.946   2.542   0.000  0.00  0.00    +0.000 F 
ATOM     27  F   UNL     1       2.332   2.885   0.000  0.00  0.00    +0.000 F 
ENDBRANCH  21  24
ENDBRANCH  17  21
ENDBRANCH   3  15
BRANCH  14  28
ATOM     28  C   UNL     1      -3.125  -1.583   0.000  0.00  0.00    +0.000 C 
ATOM     29  O   UNL     1      -3.946  -1.669   0.000  0.00  0.00    +0.000 OA
ATOM     30  N   UNL     1      -2.790  -0.830   0.000  0.00  0.00    +0.000 NA
ENDBRANCH  14  28
TORSDOF 4
