REMARK  Name = 
REMARK  9 active torsions:
REMARK  status: ('A' for Active; 'I' for Inactive)
REMARK    1  A    between atoms: O_2  and  C_17
REMARK    2  A    between atoms: O_2  and  C_18
REMARK    3  A    between atoms: N_4  and  C_7
REMARK    4  A    between atoms: N_5  and  C_13
REMARK    5  A    between atoms: C_7  and  C_8
REMARK    6  A    between atoms: C_7  and  C_10
REMARK    7  A    between atoms: C_8  and  C_9
REMARK    8  A    between atoms: C_10  and  C_13
REMARK    9  A    between atoms: C_18  and  C_19
REMARK                            x       y       z     vdW  Elec       q    Type
REMARK                         _______ _______ _______ _____ _____    ______ ____
ROOT
ATOM      1  C   UNL     1      -1.786   0.256   0.000  0.00  0.00    +0.000 C 
ENDROOT
BRANCH   1   3
ATOM      2  O   UNL     1      -0.357   1.081   0.000  0.00  0.00    +0.000 OA
ATOM      3  N   UNL     1      -1.072  -0.157   0.000  0.00  0.00    +0.000 NA
ATOM      4  C   UNL     1      -0.357   0.256   0.000  0.00  0.00    +0.000 C 
BRANCH   4   5
ATOM      5  O   UNL     1       0.357  -0.157   0.000  0.00  0.00    +0.000 OA
BRANCH   5   6
ATOM      6  C   UNL     1       1.072   0.256   0.000  0.00  0.00    +0.000 C 
BRANCH   6   7
ATOM      7  C   UNL     1       1.786  -0.157   0.000  0.00  0.00    +0.000 A 
ATOM      8  C   UNL     1       2.501   0.256   0.000  0.00  0.00    +0.000 A 
ATOM      9  C   UNL     1       1.786  -0.982   0.000  0.00  0.00    +0.000 A 
ATOM     10  C   UNL     1       3.215  -0.157   0.000  0.00  0.00    +0.000 A 
ATOM     11  C   UNL     1       2.501  -1.394   0.000  0.00  0.00    +0.000 A 
ATOM     12  C   UNL     1       3.215  -0.982   0.000  0.00  0.00    +0.000 A 
ENDBRANCH   6   7
ENDBRANCH   5   6
ENDBRANCH   4   5
ENDBRANCH   1   3
BRANCH   1  14
ATOM     13  O   UNL     1      -2.501   1.493   0.000  0.00  0.00    +0.000 OA
ATOM     14  C   UNL     1      -1.786   1.081   0.000  0.00  0.00    +0.000 C 
BRANCH  14  15
ATOM     15  C   UNL     1      -1.072   1.493   0.000  0.00  0.00    +0.000 C 
BRANCH  15  16
ATOM     16  N   UNL     1      -1.072   2.318   0.000  0.00  0.00    +0.000 NA
ATOM     17  N   UNL     1      -1.072   3.143   0.000  0.00  0.00    +0.000 NA
ENDBRANCH  15  16
ENDBRANCH  14  15
ENDBRANCH   1  14
BRANCH   1  18
ATOM     18  C   UNL     1      -2.501  -0.157   0.000  0.00  0.00    +0.000 C 
BRANCH  18  19
ATOM     19  C   UNL     1      -2.501  -0.982   0.000  0.00  0.00    +0.000 A 
ATOM     20  C   UNL     1      -3.215  -1.394   0.000  0.00  0.00    +0.000 A 
ATOM     21  C   UNL     1      -1.786  -1.394   0.000  0.00  0.00    +0.000 A 
ATOM     22  C   UNL     1      -3.215  -2.219   0.000  0.00  0.00    +0.000 A 
ATOM     23  C   UNL     1      -1.786  -2.219   0.000  0.00  0.00    +0.000 A 
ATOM     24  C   UNL     1      -2.501  -2.632   0.000  0.00  0.00    +0.000 A 
ENDBRANCH  18  19
ENDBRANCH   1  18
TORSDOF 9
