REMARK  Name = 
REMARK  15 active torsions:
REMARK  status: ('A' for Active; 'I' for Inactive)
REMARK    1  A    between atoms: C_2  and  C_3
REMARK    2  A    between atoms: C_2  and  C_17
REMARK    3  A    between atoms: C_3  and  C_4
REMARK    4  A    between atoms: C_4  and  C_5
REMARK    5  A    between atoms: N_7  and  C_8
REMARK    6  A    between atoms: C_8  and  C_9
REMARK    7  A    between atoms: C_8  and  C_10
REMARK    8  A    between atoms: C_9  and  S_20
REMARK    9  A    between atoms: N_12  and  CA_13
REMARK   10  A    between atoms: CA_13  and  C_14
REMARK   11  A    between atoms: S_20  and  C_21
REMARK   12  A    between atoms: C_21  and  C_22
REMARK   13  A    between atoms: C_22  and  C_23
REMARK   14  A    between atoms: C_23  and  C_24
REMARK   15  A    between atoms: C_24  and  C_25
REMARK                            x       y       z     vdW  Elec       q    Type
REMARK                         _______ _______ _______ _____ _____    ______ ____
ROOT
ATOM      1  C   UNK A   1       0.357  -0.619   0.000  0.00  0.00    +0.000 C 
ENDROOT
BRANCH   1   2
ATOM      2  C   UNK A   1       1.072  -1.031   0.000  0.00  0.00    +0.000 C 
ATOM      3  O   UNK A   1       1.072  -1.856   0.000  0.00  0.00    +0.000 OA
ATOM      4  N   GLY A   2       1.786  -0.619   0.000  0.00  0.00    +0.000 NA
BRANCH   4   5
ATOM      5  CA  GLY A   2       2.501  -1.031   0.000  0.00  0.00    +0.000 C 
BRANCH   5   6
ATOM      6  C   GLY A   2       3.215  -0.619   0.000  0.00  0.00    +0.000 C 
ATOM      7  O   GLY A   2       3.215   0.206   0.000  0.00  0.00    +0.000 OA
ATOM      8  OXT GLY A   2       3.929  -1.031   0.000  0.00  0.00    +0.000 OA
ENDBRANCH   5   6
ENDBRANCH   4   5
ENDBRANCH   1   2
BRANCH   1  11
ATOM      9  C   UNK A   1      -1.072  -0.619   0.000  0.00  0.00    +0.000 C 
ATOM     10  O   UNK A   1      -1.072   0.206   0.000  0.00  0.00    +0.000 OA
ATOM     11  N   UNK A   1      -0.357  -1.031   0.000  0.00  0.00    +0.000 NA
BRANCH   9  12
ATOM     12  C   UNK A   1      -1.786  -1.031   0.000  0.00  0.00    +0.000 C 
BRANCH  12  13
ATOM     13  C   UNK A   1      -2.501  -0.619   0.000  0.00  0.00    +0.000 C 
BRANCH  13  15
ATOM     14  N   UNK A   1      -3.215  -1.856   0.000  0.00  0.00    +0.000 NA
ATOM     15  C   UNK A   1      -3.215  -1.031   0.000  0.00  0.00    +0.000 C 
BRANCH  15  16
ATOM     16  C   UNK A   1      -3.930  -0.619   0.000  0.00  0.00    +0.000 C 
ATOM     17  O   UNK A   1      -3.930   0.206   0.000  0.00  0.00    +0.000 OA
ATOM     18  O   UNK A   1      -4.644  -1.031   0.000  0.00  0.00    +0.000 OA
ENDBRANCH  15  16
ENDBRANCH  13  15
ENDBRANCH  12  13
ENDBRANCH   9  12
ENDBRANCH   1  11
BRANCH   1  19
ATOM     19  C   UNK A   1       0.357   0.206   0.000  0.00  0.00    +0.000 C 
BRANCH  19  20
ATOM     20  S   UNK A   1       1.072   0.619   0.000  0.00  0.00    +0.000 S 
BRANCH  20  21
ATOM     21  C   UNK A   1       1.072   1.444   0.000  0.00  0.00    +0.000 C 
BRANCH  21  22
ATOM     22  C   UNK A   1       1.786   1.856   0.000  0.00  0.00    +0.000 C 
BRANCH  22  23
ATOM     23  C   UNK A   1       2.501   1.444   0.000  0.00  0.00    +0.000 C 
BRANCH  23  24
ATOM     24  C   UNK A   1       3.215   1.856   0.000  0.00  0.00    +0.000 C 
BRANCH  24  25
ATOM     25  C   UNK A   1       3.929   1.444   0.000  0.00  0.00    +0.000 C 
ATOM     26  C   UNK A   1       4.644   1.856   0.000  0.00  0.00    +0.000 C 
ENDBRANCH  24  25
ENDBRANCH  23  24
ENDBRANCH  22  23
ENDBRANCH  21  22
ENDBRANCH  20  21
ENDBRANCH  19  20
ENDBRANCH   1  19
TORSDOF 15
