REMARK  Name = 
REMARK  6 active torsions:
REMARK  status: ('A' for Active; 'I' for Inactive)
REMARK    1  A    between atoms: C_2  and  N_3
REMARK    2  A    between atoms: N_3  and  C_4
REMARK    3  A    between atoms: C_4  and  C_33
REMARK    4  A    between atoms: N_7  and  C_10
REMARK    5  A    between atoms: N_16  and  C_26
REMARK    6  A    between atoms: C_17  and  C_19
REMARK                            x       y       z     vdW  Elec       q    Type
REMARK                         _______ _______ _______ _____ _____    ______ ____
ROOT
ATOM      1  C   UNL     1       0.715  -0.412   0.000  0.00  0.00    +0.000 A 
ATOM      2  C   UNL     1       0.000   0.000   0.000  0.00  0.00    +0.000 A 
ATOM      3  C   UNL     1       0.000   0.825   0.000  0.00  0.00    +0.000 A 
ATOM      4  N   UNL     1       0.715   1.238   0.000  0.00  0.00    +0.000 NA
ATOM      5  C   UNL     1       1.429   0.825   0.000  0.00  0.00    +0.000 A 
ATOM      6  N   UNL     1       1.429   0.000   0.000  0.00  0.00    +0.000 NA
ATOM      7  N   UNL     1      -0.785   1.080   0.000  0.00  0.00    +0.000 N 
ATOM      8  C   UNL     1      -1.270   0.412   0.000  0.00  0.00    +0.000 A 
ATOM      9  N   UNL     1      -0.785  -0.255   0.000  0.00  0.00    +0.000 NA
ENDROOT
BRANCH   7  10
ATOM     10  C   UNL     1      -1.040   1.865   0.000  0.00  0.00    +0.000 A 
ATOM     11  C   UNL     1      -1.847   2.036   0.000  0.00  0.00    +0.000 A 
ATOM     12  C   UNL     1      -2.102   2.821   0.000  0.00  0.00    +0.000 A 
ATOM     13  C   UNL     1      -1.549   3.434   0.000  0.00  0.00    +0.000 A 
ATOM     14  C   UNL     1      -0.743   3.262   0.000  0.00  0.00    +0.000 A 
ATOM     15  C   UNL     1      -0.487   2.478   0.000  0.00  0.00    +0.000 A 
ATOM     16 CL   UNL     1      -1.804   4.218   0.000  0.00  0.00    +0.000 Cl
ENDBRANCH   7  10
BRANCH   8  17
ATOM     17  C   UNL     1      -2.095   0.412   0.000  0.00  0.00    +0.000 A 
ATOM     18  C   UNL     1      -2.507   1.127   0.000  0.00  0.00    +0.000 A 
ATOM     19  C   UNL     1      -3.332   1.127   0.000  0.00  0.00    +0.000 A 
ATOM     20  C   UNL     1      -3.744   0.412   0.000  0.00  0.00    +0.000 A 
ATOM     21  C   UNL     1      -3.332  -0.302   0.000  0.00  0.00    +0.000 A 
ATOM     22  C   UNL     1      -2.507  -0.302   0.000  0.00  0.00    +0.000 A 
ATOM     23 CL   UNL     1      -2.095  -1.016   0.000  0.00  0.00    +0.000 Cl
ENDBRANCH   8  17
BRANCH   1  27
ATOM     24  C   UNL     1       0.715  -2.888   0.000  0.00  0.00    +0.000 C 
ATOM     25  C   UNL     1       0.000  -2.475   0.000  0.00  0.00    +0.000 C 
ATOM     26  C   UNL     1       0.000  -1.650   0.000  0.00  0.00    +0.000 C 
ATOM     27  N   UNL     1       0.715  -1.238   0.000  0.00  0.00    +0.000 N 
ATOM     28  C   UNL     1       1.429  -1.650   0.000  0.00  0.00    +0.000 C 
ATOM     29  C   UNL     1       1.429  -2.475   0.000  0.00  0.00    +0.000 C 
BRANCH  24  30
ATOM     30  C   UNL     1       0.184  -3.519   0.000  0.00  0.00    +0.000 C 
ATOM     31  O   UNL     1      -0.628  -3.376   0.000  0.00  0.00    +0.000 OA
ATOM     32  N   UNL     1       0.466  -4.295   0.000  0.00  0.00    +0.000 NA
ENDBRANCH  24  30
BRANCH  24  33
ATOM     33  N   UNL     1       1.245  -3.519   0.000  0.00  0.00    +0.000 NA
BRANCH  33  35
ATOM     34  C   UNL     1       2.587  -4.008   0.000  0.00  0.00    +0.000 C 
ATOM     35  C   UNL     1       2.057  -3.376   0.000  0.00  0.00    +0.000 C 
ENDBRANCH  33  35
ENDBRANCH  24  33
ENDBRANCH   1  27
TORSDOF 6
