REMARK  Name = 
REMARK  5 active torsions:
REMARK  status: ('A' for Active; 'I' for Inactive)
REMARK    1  A    between atoms: C_4  and  C_16
REMARK    2  A    between atoms: C_10  and  C_14
REMARK    3  A    between atoms: C_10  and  C_18
REMARK    4  A    between atoms: C_19  and  O_22
REMARK    5  A    between atoms: C_20  and  O_23
REMARK                            x       y       z     vdW  Elec       q    Type
REMARK                         _______ _______ _______ _____ _____    ______ ____
ROOT
ATOM      1  C   UNL     1       1.429   0.000   0.000  0.00  0.00    +0.000 A 
ATOM      2  C   UNL     1       2.858   0.000   0.000  0.00  0.00    +0.000 A 
ATOM      3  C   UNL     1       2.858  -1.650   0.000  0.00  0.00    +0.000 A 
ATOM      4  C   UNL     1       2.143  -0.412   0.000  0.00  0.00    +0.000 A 
ATOM      5  C   UNL     1       0.715  -0.412   0.000  0.00  0.00    +0.000 A 
ATOM      6  C   UNL     1       2.143  -1.238   0.000  0.00  0.00    +0.000 A 
ATOM      7  C   UNL     1       1.429  -1.650   0.000  0.00  0.00    +0.000 A 
ATOM      8  C   UNL     1       3.572  -0.412   0.000  0.00  0.00    +0.000 A 
ATOM      9  C   UNL     1       3.572  -1.238   0.000  0.00  0.00    +0.000 A 
ATOM     10  N   UNL     1       0.715  -1.238   0.000  0.00  0.00    +0.000 NA
ENDROOT
BRANCH   5  12
ATOM     11  C   UNL     1      -0.715  -0.412   0.000  0.00  0.00    +0.000 C 
ATOM     12  C   UNL     1       0.000   0.000   0.000  0.00  0.00    +0.000 C 
ENDBRANCH   5  12
BRANCH   8  14
ATOM     13  C   UNL     1       5.001  -0.412   0.000  0.00  0.00    +0.000 C 
ATOM     14  O   UNL     1       4.287   0.000   0.000  0.00  0.00    +0.000 OA
ENDBRANCH   8  14
BRANCH   9  16
ATOM     15  C   UNL     1       5.001  -1.238   0.000  0.00  0.00    +0.000 C 
ATOM     16  O   UNL     1       4.287  -1.650   0.000  0.00  0.00    +0.000 OA
ENDBRANCH   9  16
BRANCH   7  17
ATOM     17  C   UNL     1       1.429  -2.475   0.000  0.00  0.00    +0.000 C 
BRANCH  17  23
ATOM     18  C   UNL     1      -0.715  -3.712   0.000  0.00  0.00    +0.000 A 
ATOM     19  C   UNL     1       0.000  -4.125   0.000  0.00  0.00    +0.000 A 
ATOM     20  C   UNL     1      -0.715  -2.888   0.000  0.00  0.00    +0.000 A 
ATOM     21  C   UNL     1       0.715  -3.712   0.000  0.00  0.00    +0.000 A 
ATOM     22  C   UNL     1       0.000  -2.475   0.000  0.00  0.00    +0.000 A 
ATOM     23  C   UNL     1       0.715  -2.888   0.000  0.00  0.00    +0.000 A 
ENDBRANCH  17  23
ENDBRANCH   7  17
TORSDOF 5
