REMARK  Name = 
REMARK  0 active torsions:
REMARK  status: ('A' for Active; 'I' for Inactive)
REMARK                            x       y       z     vdW  Elec       q    Type
REMARK                         _______ _______ _______ _____ _____    ______ ____
ROOT
ATOM      1  C   UNL     1       0.000   0.000   0.000  0.00  0.00    +0.000 A 
ATOM      2  N   UNL     1       0.000   0.825   0.000  0.00  0.00    +0.000 N 
ATOM      3  C   UNL     1       0.715  -0.412   0.000  0.00  0.00    +0.000 A 
ATOM      4  N   UNL     1      -0.715  -0.412   0.000  0.00  0.00    +0.000 NA
ATOM      5  C   UNL     1      -0.715   1.238   0.000  0.00  0.00    +0.000 C 
ATOM      6  C   UNL     1       0.715   1.238   0.000  0.00  0.00    +0.000 C 
ATOM      7  C   UNL     1       0.715  -1.238   0.000  0.00  0.00    +0.000 A 
ATOM      8  C   UNL     1      -0.715  -1.238   0.000  0.00  0.00    +0.000 A 
ATOM      9  C   UNL     1      -0.715   2.063   0.000  0.00  0.00    +0.000 C 
ATOM     10  C   UNL     1       0.715   2.063   0.000  0.00  0.00    +0.000 C 
ATOM     11  N   UNL     1       0.000  -1.650   0.000  0.00  0.00    +0.000 N 
ATOM     12  N   UNL     1       1.429  -1.650   0.000  0.00  0.00    +0.000 NA
ATOM     13  N   UNL     1      -1.429  -1.650   0.000  0.00  0.00    +0.000 NA
ATOM     14  C   UNL     1       0.000   2.475   0.000  0.00  0.00    +0.000 C 
ATOM     15  O   UNL     1       0.000  -2.475   0.000  0.00  0.00    +0.000 OA
ENDROOT
TORSDOF 0
