REMARK  Name = 
REMARK  19 active torsions:
REMARK  status: ('A' for Active; 'I' for Inactive)
REMARK    1  A    between atoms: C_1  and  C_138
REMARK    2  A    between atoms: CA_9  and  CB_126
REMARK    3  A    between atoms: C_15  and  C_119
REMARK    4  A    between atoms: CA_21  and  CB_112
REMARK    5  A    between atoms: CA_24  and  CB_104
REMARK    6  A    between atoms: CA_33  and  CB_95
REMARK    7  A    between atoms: CA_45  and  CB_85
REMARK    8  A    between atoms: CA_57  and  CB_73
REMARK    9  A    between atoms: CA_60  and  CB_67
REMARK   10  A    between atoms: CB_67  and  CG_68
REMARK   11  A    between atoms: CG_68  and  CD_69
REMARK   12  A    between atoms: CD_69  and  CE_70
REMARK   13  A    between atoms: CB_73  and  CG_74
REMARK   14  A    between atoms: CG_74  and  CD_75
REMARK   15  A    between atoms: CB_85  and  CG_86
REMARK   16  A    between atoms: CB_95  and  CG_96
REMARK   17  A    between atoms: CB_104  and  CG_105
REMARK   18  A    between atoms: C_119  and  C_120
REMARK   19  A    between atoms: CB_126  and  CG_127
REMARK                            x       y       z     vdW  Elec       q    Type
REMARK                         _______ _______ _______ _____ _____    ______ ____
ROOT
ATOM      1  C   UNK A  19      -0.842   2.580   0.000  0.00  0.00    +0.000 C 
ATOM      2  N   UNK A  18      -3.934   3.394   0.000  0.00  0.00    +0.000 NA
ATOM      3  C   UNK A  18      -3.439   4.162   0.000  0.00  0.00    +0.000 C 
ATOM      4  C   UNK A   1      -3.595   5.362   0.000  0.00  0.00    +0.000 C 
ATOM      5  C   UNK A   1      -4.310   5.775   0.000  0.00  0.00    +0.000 C 
ATOM      6  S   UNK A   1      -2.881   5.775   0.000  0.00  0.00    +0.000 S 
ATOM      7  N   UNK A  19      -1.253   3.605   0.000  0.00  0.00    +0.000 NA
ATOM      8  C   ASN A  17      -5.024   2.887   0.000  0.00  0.00    +0.000 C 
ATOM      9  CA  ASN A  17      -5.024   2.062   0.000  0.00  0.00    +0.000 C 
ATOM     10  N   ASN A  17      -5.739   1.650   0.000  0.00  0.00    +0.000 NA
ATOM     11  C   GLY A  16      -5.739   0.825   0.000  0.00  0.00    +0.000 C 
ATOM     12  CA  GLY A  16      -6.453   0.412   0.000  0.00  0.00    +0.000 C 
ATOM     13  N   GLY A  16      -6.453  -0.412   0.000  0.00  0.00    +0.000 NA
ATOM     14  C   UNK A  15      -5.739  -0.825   0.000  0.00  0.00    +0.000 C 
ATOM     15  C   UNK A  15      -5.739  -1.650   0.000  0.00  0.00    +0.000 C 
ATOM     16  N   UNK A  15      -5.024  -2.062   0.000  0.00  0.00    +0.000 NA
ATOM     17  C   CYS A  14      -5.024  -2.888   0.000  0.00  0.00    +0.000 C 
ATOM     18  CA  CYS A  14      -4.310  -3.300   0.000  0.00  0.00    +0.000 C 
ATOM     19  N   CYS A  14      -4.310  -4.125   0.000  0.00  0.00    +0.000 NA
ATOM     20  C   VAL A  13      -3.595  -4.537   0.000  0.00  0.00    +0.000 C 
ATOM     21  CA  VAL A  13      -3.595  -5.362   0.000  0.00  0.00    +0.000 C 
ATOM     22  N   VAL A  13      -2.881  -5.775   0.000  0.00  0.00    +0.000 NA
ATOM     23  C   PHE A  12      -2.166  -5.362   0.000  0.00  0.00    +0.000 C 
ATOM     24  CA  PHE A  12      -1.452  -5.775   0.000  0.00  0.00    +0.000 C 
ATOM     25  N   PHE A  12      -0.737  -5.362   0.000  0.00  0.00    +0.000 NA
ATOM     26  C   UNK A  11      -0.023  -5.775   0.000  0.00  0.00    +0.000 C 
ATOM     27  C   UNK A  11       0.692  -5.362   0.000  0.00  0.00    +0.000 C 
ATOM     28  C   UNK A   5       0.692  -4.537   0.000  0.00  0.00    +0.000 C 
ATOM     29  C   UNK A   5       1.406  -4.125   0.000  0.00  0.00    +0.000 C 
ATOM     30  S   UNK A   5      -0.023  -4.125   0.000  0.00  0.00    +0.000 S 
ATOM     31  N   UNK A  11       1.406  -5.775   0.000  0.00  0.00    +0.000 NA
ATOM     32  C   PHE A  10       2.120  -5.362   0.000  0.00  0.00    +0.000 C 
ATOM     33  CA  PHE A  10       2.835  -5.775   0.000  0.00  0.00    +0.000 C 
ATOM     34  N   PHE A  10       3.549  -5.362   0.000  0.00  0.00    +0.000 NA
ATOM     35  C   PRO A   9       4.264  -5.775   0.000  0.00  0.00    +0.000 C 
ATOM     36  CA  PRO A   9       4.978  -5.362   0.000  0.00  0.00    +0.000 C 
ATOM     37  N   PRO A   9       4.978  -4.537   0.000  0.00  0.00    +0.000 N 
ATOM     38  CD  PRO A   9       5.763  -4.282   0.000  0.00  0.00    +0.000 C 
ATOM     39  CG  PRO A   9       6.248  -4.950   0.000  0.00  0.00    +0.000 C 
ATOM     40  CB  PRO A   9       5.763  -5.617   0.000  0.00  0.00    +0.000 C 
ATOM     41  C   GLY A   8       4.264  -4.125   0.000  0.00  0.00    +0.000 C 
ATOM     42  CA  GLY A   8       4.264  -3.300   0.000  0.00  0.00    +0.000 C 
ATOM     43  N   GLY A   8       4.978  -2.888   0.000  0.00  0.00    +0.000 NA
ATOM     44  C   PHE A   7       4.978  -2.062   0.000  0.00  0.00    +0.000 C 
ATOM     45  CA  PHE A   7       5.693  -1.650   0.000  0.00  0.00    +0.000 C 
ATOM     46  N   PHE A   7       5.693  -0.825   0.000  0.00  0.00    +0.000 NA
ATOM     47  C   UNK A   6       6.407  -0.412   0.000  0.00  0.00    +0.000 C 
ATOM     48  C   UNK A   6       6.407   0.412   0.000  0.00  0.00    +0.000 C 
ATOM     49  N   UNK A   6       5.693   0.825   0.000  0.00  0.00    +0.000 NA
ATOM     50  C   UNK A   5       5.693   1.650   0.000  0.00  0.00    +0.000 C 
ATOM     51  C   UNK A   5       4.978   2.062   0.000  0.00  0.00    +0.000 C 
ATOM     52  N   UNK A   5       4.978   2.887   0.000  0.00  0.00    +0.000 NA
ATOM     53  C   CYS A   4       4.264   3.300   0.000  0.00  0.00    +0.000 C 
ATOM     54  CA  CYS A   4       4.264   4.125   0.000  0.00  0.00    +0.000 C 
ATOM     55  N   CYS A   4       3.549   4.537   0.000  0.00  0.00    +0.000 NA
ATOM     56  C   GLN A   3       3.549   5.362   0.000  0.00  0.00    +0.000 C 
ATOM     57  CA  GLN A   3       2.835   5.775   0.000  0.00  0.00    +0.000 C 
ATOM     58  N   GLN A   3       2.120   5.362   0.000  0.00  0.00    +0.000 NA
ATOM     59  C   LYS A   2       1.406   5.775   0.000  0.00  0.00    +0.000 C 
ATOM     60  CA  LYS A   2       0.692   5.362   0.000  0.00  0.00    +0.000 C 
ATOM     61  N   LYS A   2      -0.023   5.775   0.000  0.00  0.00    +0.000 NA
ATOM     62  C   UNK A   1      -0.737   5.362   0.000  0.00  0.00    +0.000 C 
ATOM     63  C   UNK A   1      -1.452   5.775   0.000  0.00  0.00    +0.000 C 
ATOM     64  N   UNK A   1      -1.452   6.600   0.000  0.00  0.00    +0.000 NA
ATOM     65  C   UNK A   1      -2.166   5.362   0.000  0.00  0.00    +0.000 C 
ATOM     66  O   UNK A   1      -0.737   4.537   0.000  0.00  0.00    +0.000 OA
ATOM     67  O   LYS A   2       1.406   6.600   0.000  0.00  0.00    +0.000 OA
ATOM     68  O   GLN A   3       4.264   5.775   0.000  0.00  0.00    +0.000 OA
ATOM     69  CB  CYS A   4       4.978   4.537   0.000  0.00  0.00    +0.000 C 
ATOM     70  O   CYS A   4       3.489   3.018   0.000  0.00  0.00    +0.000 OA
ATOM     71  C   UNK A   5       3.383   1.919   0.000  0.00  0.00    +0.000 C 
ATOM     72  O   UNK A   5       6.407   2.062   0.000  0.00  0.00    +0.000 OA
ATOM     73  C   UNK A  19       4.949   0.193   0.000  0.00  0.00    +0.000 C 
ATOM     74  O   UNK A   6       7.122  -0.825   0.000  0.00  0.00    +0.000 OA
ATOM     75  O   PHE A   7       4.264  -1.650   0.000  0.00  0.00    +0.000 OA
ATOM     76  O   GLY A   8       3.549  -4.537   0.000  0.00  0.00    +0.000 OA
ATOM     77  O   PRO A   9       4.264  -6.600   0.000  0.00  0.00    +0.000 OA
ATOM     78  O   PHE A  10       2.120  -4.537   0.000  0.00  0.00    +0.000 OA
ATOM     79  O   UNK A  11      -0.023  -6.600   0.000  0.00  0.00    +0.000 OA
ATOM     80  O   PHE A  12      -2.166  -4.537   0.000  0.00  0.00    +0.000 OA
ATOM     81  O   VAL A  13      -2.881  -4.125   0.000  0.00  0.00    +0.000 OA
ATOM     82  CB  CYS A  14      -3.564  -2.449   0.000  0.00  0.00    +0.000 C 
ATOM     83  SG  CYS A   4       3.787  -1.766   0.000  0.00  0.00    +0.000 S 
ATOM     84  O   CYS A  14      -5.739  -3.300   0.000  0.00  0.00    +0.000 OA
ATOM     85  O   UNK A  15      -5.024  -0.412   0.000  0.00  0.00    +0.000 OA
ATOM     86  O   GLY A  16      -5.024   0.412   0.000  0.00  0.00    +0.000 OA
ATOM     87  O   ASN A  17      -5.739   3.300   0.000  0.00  0.00    +0.000 OA
ATOM     88  C   UNK A  19       0.240   2.256   0.000  0.00  0.00    +0.000 C 
ATOM     89  C   UNK A  19       0.527   1.272   0.000  0.00  0.00    +0.000 C 
ATOM     90  C   UNK A  19       1.798   1.765   0.000  0.00  0.00    +0.000 C 
ATOM     91  C   UNK A  19       2.514   0.762   0.000  0.00  0.00    +0.000 C 
ATOM     92  N   UNK A  19       3.983   1.082   0.000  0.00  0.00    +0.000 NA
ATOM     93  O   UNK A  18      -2.668   2.956   0.000  0.00  0.00    +0.000 OA
ATOM     94  C   UNK A  18      -2.327   3.605   0.000  0.00  0.00    +0.000 C 
ENDROOT
BRANCH   1  97
ATOM     95  O   UNK A  19      -1.268   1.410   0.000  0.00  0.00    +0.000 OA
ATOM     96  O   UNK A  19      -2.347   2.029   0.000  0.00  0.00    +0.000 OA
ATOM     97  C   UNK A  19      -1.564   1.968   0.000  0.00  0.00    +0.000 C 
ENDBRANCH   1  97
BRANCH  21  98
ATOM     98  CB  VAL A  13      -4.310  -5.775   0.000  0.00  0.00    +0.000 C 
ATOM     99  CG1 VAL A  13      -4.310  -6.600   0.000  0.00  0.00    +0.000 C 
ATOM    100  CG2 VAL A  13      -5.024  -5.362   0.000  0.00  0.00    +0.000 C 
ENDBRANCH  21  98
BRANCH  15 101
ATOM    101  C   UNK A  15      -6.453  -2.062   0.000  0.00  0.00    +0.000 C 
ATOM    102  O   UNK A  15      -6.453  -2.888   0.000  0.00  0.00    +0.000 OA
BRANCH 101 103
ATOM    103  C   UNK A  15      -7.168  -1.650   0.000  0.00  0.00    +0.000 C 
ATOM    104  O   UNK A  15      -7.168  -0.825   0.000  0.00  0.00    +0.000 OA
ATOM    105  O   UNK A  15      -7.882  -2.062   0.000  0.00  0.00    +0.000 OA
ENDBRANCH 101 103
ENDBRANCH  15 101
BRANCH  24 106
ATOM    106  CB  PHE A  12      -1.452  -6.600   0.000  0.00  0.00    +0.000 C 
BRANCH 106 107
ATOM    107  CG  PHE A  12      -2.166  -7.012   0.000  0.00  0.00    +0.000 A 
ATOM    108  CD1 PHE A  12      -2.166  -7.837   0.000  0.00  0.00    +0.000 A 
ATOM    109  CE1 PHE A  12      -2.881  -8.250   0.000  0.00  0.00    +0.000 A 
ATOM    110  CZ  PHE A  12      -3.595  -7.837   0.000  0.00  0.00    +0.000 A 
ATOM    111  CE2 PHE A  12      -3.595  -7.012   0.000  0.00  0.00    +0.000 A 
ATOM    112  CD2 PHE A  12      -2.881  -6.600   0.000  0.00  0.00    +0.000 A 
ENDBRANCH 106 107
ENDBRANCH  24 106
BRANCH  60 113
ATOM    113  CB  LYS A   2       0.692   4.537   0.000  0.00  0.00    +0.000 C 
BRANCH 113 114
ATOM    114  CG  LYS A   2       1.406   4.125   0.000  0.00  0.00    +0.000 C 
BRANCH 114 115
ATOM    115  CD  LYS A   2       1.406   3.300   0.000  0.00  0.00    +0.000 C 
BRANCH 115 116
ATOM    116  CE  LYS A   2       2.120   2.887   0.000  0.00  0.00    +0.000 C 
ATOM    117  NZ  LYS A   2       2.835   3.300   0.000  0.00  0.00    +0.000 NA
ENDBRANCH 115 116
ENDBRANCH 114 115
ENDBRANCH 113 114
ENDBRANCH  60 113
BRANCH  45 118
ATOM    118  CB  PHE A   7       6.505  -1.793   0.000  0.00  0.00    +0.000 C 
BRANCH 118 119
ATOM    119  CG  PHE A   7       6.787  -2.568   0.000  0.00  0.00    +0.000 A 
ATOM    120  CD1 PHE A   7       6.257  -3.200   0.000  0.00  0.00    +0.000 A 
ATOM    121  CE1 PHE A   7       6.539  -3.976   0.000  0.00  0.00    +0.000 A 
ATOM    122  CZ  PHE A   7       7.352  -4.119   0.000  0.00  0.00    +0.000 A 
ATOM    123  CE2 PHE A   7       7.882  -3.487   0.000  0.00  0.00    +0.000 A 
ATOM    124  CD2 PHE A   7       7.600  -2.712   0.000  0.00  0.00    +0.000 A 
ENDBRANCH 118 119
ENDBRANCH  45 118
BRANCH   9 125
ATOM    125  CB  ASN A  17      -4.355   0.575   0.000  0.00  0.00    +0.000 C 
BRANCH 125 126
ATOM    126  CG  ASN A  17      -3.123   0.209   0.000  0.00  0.00    +0.000 C 
ATOM    127  OD1 ASN A  17      -2.719   0.928   0.000  0.00  0.00    +0.000 OA
ATOM    128  ND2 ASN A  17      -2.702  -0.500   0.000  0.00  0.00    +0.000 NA
ENDBRANCH 125 126
ENDBRANCH   9 125
BRANCH  57 129
ATOM    129  CB  GLN A   3       2.835   6.600   0.000  0.00  0.00    +0.000 C 
BRANCH 129 130
ATOM    130  CG  GLN A   3       3.549   7.012   0.000  0.00  0.00    +0.000 C 
BRANCH 130 131
ATOM    131  CD  GLN A   3       3.549   7.837   0.000  0.00  0.00    +0.000 C 
ATOM    132  OE1 GLN A   3       2.835   8.250   0.000  0.00  0.00    +0.000 OA
ATOM    133  NE2 GLN A   3       4.264   8.250   0.000  0.00  0.00    +0.000 NA
ENDBRANCH 130 131
ENDBRANCH 129 130
ENDBRANCH  57 129
BRANCH  33 134
ATOM    134  CB  PHE A  10       2.835  -6.600   0.000  0.00  0.00    +0.000 C 
BRANCH 134 135
ATOM    135  CG  PHE A  10       2.120  -7.012   0.000  0.00  0.00    +0.000 A 
ATOM    136  CD1 PHE A  10       1.406  -6.600   0.000  0.00  0.00    +0.000 A 
ATOM    137  CE1 PHE A  10       0.692  -7.012   0.000  0.00  0.00    +0.000 A 
ATOM    138  CZ  PHE A  10       0.692  -7.837   0.000  0.00  0.00    +0.000 A 
ATOM    139  CE2 PHE A  10       1.406  -8.250   0.000  0.00  0.00    +0.000 A 
ATOM    140  CD2 PHE A  10       2.120  -7.837   0.000  0.00  0.00    +0.000 A 
ENDBRANCH 134 135
ENDBRANCH  33 134
TORSDOF 19
