REMARK  Name = 
REMARK  2 active torsions:
REMARK  status: ('A' for Active; 'I' for Inactive)
REMARK    1  A    between atoms: C_1  and  C_8
REMARK    2  A    between atoms: C_7  and  C_12
REMARK                            x       y       z     vdW  Elec       q    Type
REMARK                         _______ _______ _______ _____ _____    ______ ____
ROOT
ATOM      1  C   UNL     1      -0.357   0.000   0.000  0.00  0.00    +0.000 A 
ATOM      2  C   UNL     1      -1.072   0.412   0.000  0.00  0.00    +0.000 A 
ATOM      3  C   UNL     1      -0.357  -0.825   0.000  0.00  0.00    +0.000 A 
ATOM      4  C   UNL     1      -1.072  -1.237   0.000  0.00  0.00    +0.000 A 
ATOM      5  C   UNL     1      -1.786   0.000   0.000  0.00  0.00    +0.000 A 
ATOM      6  C   UNL     1      -1.786  -0.825   0.000  0.00  0.00    +0.000 A 
ATOM      7  O   UNL     1      -2.501  -1.237   0.000  0.00  0.00    +0.000 OA
ENDROOT
BRANCH   1   8
ATOM      8  C   UNL     1       0.357   0.412   0.000  0.00  0.00    +0.000 C 
ATOM      9  C   UNL     1       1.072   0.000   0.000  0.00  0.00    +0.000 C 
BRANCH   9  10
ATOM     10  C   UNL     1       1.786   0.412   0.000  0.00  0.00    +0.000 C 
ATOM     11  O   UNL     1       2.501   0.000   0.000  0.00  0.00    +0.000 OA
ATOM     12  O   UNL     1       1.786   1.237   0.000  0.00  0.00    +0.000 OA
ENDBRANCH   9  10
ENDBRANCH   1   8
TORSDOF 2
