REMARK  Name = 
REMARK  6 active torsions:
REMARK  status: ('A' for Active; 'I' for Inactive)
REMARK    1  A    between atoms: C_2  and  C_3
REMARK    2  A    between atoms: C_3  and  N_4
REMARK    3  A    between atoms: N_10  and  C_11
REMARK    4  A    between atoms: C_14  and  O_15
REMARK    5  A    between atoms: O_15  and  C_16
REMARK    6  A    between atoms: N_19  and  C_22
REMARK                            x       y       z     vdW  Elec       q    Type
REMARK                         _______ _______ _______ _____ _____    ______ ____
ROOT
ATOM      1  C   UNL     1      -1.429   7.767   0.000  0.00  0.00    +0.000 A 
ATOM      2  C   UNL     1      -0.715   8.179   0.000  0.00  0.00    +0.000 A 
ATOM      3  C   UNL     1       0.000   7.767   0.000  0.00  0.00    +0.000 A 
ATOM      4  C   UNL     1       0.000   6.942   0.000  0.00  0.00    +0.000 A 
ATOM      5  C   UNL     1      -0.715   6.529   0.000  0.00  0.00    +0.000 A 
ATOM      6  C   UNL     1      -1.429   6.942   0.000  0.00  0.00    +0.000 A 
ENDROOT
BRANCH   1   9
ATOM      7  O   UNL     1      -2.858   6.942   0.000  0.00  0.00    +0.000 OA
ATOM      8  C   UNL     1      -2.858   7.767   0.000  0.00  0.00    +0.000 C 
ATOM      9  N   UNL     1      -2.143   8.179   0.000  0.00  0.00    +0.000 NA
BRANCH   8  10
ATOM     10  C   UNL     1      -3.572   8.179   0.000  0.00  0.00    +0.000 C 
BRANCH  10  11
ATOM     11  N   UNL     1      -4.287   7.767   0.000  0.00  0.00    +0.000 NA
ATOM     12  C   UNL     1      -4.287   6.942   0.000  0.00  0.00    +0.000 C 
ATOM     13  C   UNL     1      -5.001   6.529   0.000  0.00  0.00    +0.000 C 
ATOM     14  O   UNL     1      -5.716   6.942   0.000  0.00  0.00    +0.000 OA
ATOM     15  C   UNL     1      -5.716   7.767   0.000  0.00  0.00    +0.000 C 
ATOM     16  C   UNL     1      -5.001   8.179   0.000  0.00  0.00    +0.000 C 
ENDBRANCH  10  11
ENDBRANCH   8  10
ENDBRANCH   1   9
BRANCH   4  17
ATOM     17  O   UNL     1       0.715   6.529   0.000  0.00  0.00    +0.000 OA
BRANCH  17  18
ATOM     18  C   UNL     1       0.715   5.704   0.000  0.00  0.00    +0.000 C 
ATOM     19  C   UNL     1       1.429   5.292   0.000  0.00  0.00    +0.000 C 
ATOM     20  C   UNL     1       1.429   4.467   0.000  0.00  0.00    +0.000 C 
ATOM     21  N   UNL     1       0.715   4.054   0.000  0.00  0.00    +0.000 NA
ATOM     22  C   UNL     1       0.000   4.467   0.000  0.00  0.00    +0.000 C 
ATOM     23  C   UNL     1       0.000   5.292   0.000  0.00  0.00    +0.000 C 
BRANCH  21  24
ATOM     24  C   UNL     1       0.715   3.229   0.000  0.00  0.00    +0.000 C 
ATOM     25  C   UNL     1       1.298   2.646   0.000  0.00  0.00    +0.000 C 
ATOM     26  C   UNL     1       0.715   2.062   0.000  0.00  0.00    +0.000 C 
ATOM     27  C   UNL     1       0.131   2.646   0.000  0.00  0.00    +0.000 C 
ENDBRANCH  21  24
ENDBRANCH  17  18
ENDBRANCH   4  17
TORSDOF 6
