REMARK  Name = 
REMARK  2 active torsions:
REMARK  status: ('A' for Active; 'I' for Inactive)
REMARK    1  A    between atoms: C_3  and  N_7
REMARK    2  A    between atoms: C_3  and  C_8
REMARK                            x       y       z     vdW  Elec       q    Type
REMARK                         _______ _______ _______ _____ _____    ______ ____
ROOT
ATOM      1  C   UNL     1      -0.715  -0.569   0.000  0.00  0.00    +0.000 C 
ATOM      2  C   UNL     1      -0.715  -1.394   0.000  0.00  0.00    +0.000 C 
ATOM      3  C   UNL     1       0.000  -0.157   0.000  0.00  0.00    +0.000 C 
ATOM      4  C   UNL     1       0.000  -1.807   0.000  0.00  0.00    +0.000 C 
ATOM      5  C   UNL     1       0.714  -0.569   0.000  0.00  0.00    +0.000 C 
ATOM      6  C   UNL     1       0.714  -1.394   0.000  0.00  0.00    +0.000 C 
ENDROOT
BRANCH   3   7
ATOM      7  N   UNL     1       0.583   0.426   0.000  0.00  0.00    +0.000 NA
ATOM      8  C   UNL     1       1.380   0.213   0.000  0.00  0.00    +0.000 C 
ATOM      9  C   UNL     1       0.370   1.223   0.000  0.00  0.00    +0.000 C 
ATOM     10  C   UNL     1       1.964   0.796   0.000  0.00  0.00    +0.000 C 
ATOM     11  C   UNL     1       0.953   1.807   0.000  0.00  0.00    +0.000 C 
ATOM     12  C   UNL     1       1.750   1.593   0.000  0.00  0.00    +0.000 C 
ENDBRANCH   3   7
BRANCH   3  13
ATOM     13  C   UNL     1      -0.583   0.426   0.000  0.00  0.00    +0.000 A 
ATOM     14  C   UNL     1      -0.370   1.223   0.000  0.00  0.00    +0.000 A 
ATOM     15  C   UNL     1      -1.380   0.213   0.000  0.00  0.00    +0.000 A 
ATOM     16  C   UNL     1      -0.953   1.807   0.000  0.00  0.00    +0.000 A 
ATOM     17  C   UNL     1      -1.964   0.796   0.000  0.00  0.00    +0.000 A 
ATOM     18  C   UNL     1      -1.750   1.593   0.000  0.00  0.00    +0.000 A 
ENDBRANCH   3  13
TORSDOF 2
