REMARK  Name = 
REMARK  9 active torsions:
REMARK  status: ('A' for Active; 'I' for Inactive)
REMARK    1  A    between atoms: C_1  and  O_7
REMARK    2  A    between atoms: C_2  and  O_9
REMARK    3  A    between atoms: C_4  and  C_11
REMARK    4  A    between atoms: C_11  and  C_12
REMARK    5  A    between atoms: C_12  and  N_13
REMARK    6  A    between atoms: N_16  and  C_19
REMARK    7  A    between atoms: C_19  and  C_20
REMARK    8  A    between atoms: C_20  and  C_21
REMARK    9  A    between atoms: C_21  and  C_22
REMARK                            x       y       z     vdW  Elec       q    Type
REMARK                         _______ _______ _______ _____ _____    ______ ____
ROOT
ATOM      1  N   UNL     1       0.788   1.404   0.000  0.00  0.00    +0.000 NA
ATOM      2  C   UNL     1       0.788   2.229   0.000  0.00  0.00    +0.000 C 
ATOM      3  C   UNL     1       0.073   2.642   0.000  0.00  0.00    +0.000 C 
ATOM      4  N   UNL     1      -0.641   2.229   0.000  0.00  0.00    +0.000 NA
ATOM      5  C   UNL     1      -0.641   1.404   0.000  0.00  0.00    +0.000 C 
ATOM      6  C   UNL     1       0.073   0.992   0.000  0.00  0.00    +0.000 C 
ENDROOT
BRANCH   1   7
ATOM      7  C   UNL     1       1.502   0.990   0.000  0.00  0.00    +0.000 C 
BRANCH   7   8
ATOM      8  C   UNL     1       1.500   0.165   0.000  0.00  0.00    +0.000 C 
BRANCH   8  12
ATOM      9  C   UNL     1       3.643  -1.075   0.000  0.00  0.00    +0.000 A 
ATOM     10  C   UNL     1       2.929  -1.487   0.000  0.00  0.00    +0.000 A 
ATOM     11  C   UNL     1       2.215  -1.075   0.000  0.00  0.00    +0.000 A 
ATOM     12  C   UNL     1       2.214  -0.249   0.000  0.00  0.00    +0.000 A 
ATOM     13  C   UNL     1       2.929   0.163   0.000  0.00  0.00    +0.000 A 
ATOM     14  C   UNL     1       3.643  -0.250   0.000  0.00  0.00    +0.000 A 
BRANCH   9  15
ATOM     15  O   UNL     1       4.359  -1.486   0.000  0.00  0.00    +0.000 OA
ATOM     16  C   UNL     1       4.930  -1.155   0.000  0.00  0.00    +0.000 C 
ENDBRANCH   9  15
BRANCH  10  17
ATOM     17  O   UNL     1       2.927  -2.312   0.000  0.00  0.00    +0.000 OA
ATOM     18  C   UNL     1       2.355  -2.642   0.000  0.00  0.00    +0.000 C 
ENDBRANCH  10  17
ENDBRANCH   8  12
ENDBRANCH   7   8
ENDBRANCH   1   7
BRANCH   4  19
ATOM     19  C   UNL     1      -1.357   2.640   0.000  0.00  0.00    +0.000 C 
BRANCH  19  20
ATOM     20  C   UNL     1      -2.071   2.227   0.000  0.00  0.00    +0.000 C 
BRANCH  20  21
ATOM     21  C   UNL     1      -2.787   2.638   0.000  0.00  0.00    +0.000 C 
BRANCH  21  22
ATOM     22  C   UNL     1      -3.501   2.224   0.000  0.00  0.00    +0.000 A 
ATOM     23  C   UNL     1      -4.217   2.634   0.000  0.00  0.00    +0.000 A 
ATOM     24  C   UNL     1      -4.930   2.219   0.000  0.00  0.00    +0.000 A 
ATOM     25  C   UNL     1      -4.927   1.394   0.000  0.00  0.00    +0.000 A 
ATOM     26  C   UNL     1      -4.212   0.984   0.000  0.00  0.00    +0.000 A 
ATOM     27  C   UNL     1      -3.498   1.399   0.000  0.00  0.00    +0.000 A 
ENDBRANCH  21  22
ENDBRANCH  20  21
ENDBRANCH  19  20
ENDBRANCH   4  19
TORSDOF 9
