REMARK  Name = 
REMARK  3 active torsions:
REMARK  status: ('A' for Active; 'I' for Inactive)
REMARK    1  A    between atoms: C_4  and  O_21
REMARK    2  A    between atoms: C_6  and  C_7
REMARK    3  A    between atoms: O_21  and  P_22
REMARK                            x       y       z     vdW  Elec       q    Type
REMARK                         _______ _______ _______ _____ _____    ______ ____
ROOT
ATOM      1  C   UNL     1       0.715  -1.238   0.000  0.00  0.00    +0.000 A 
ATOM      2  C   UNL     1       0.715  -0.412   0.000  0.00  0.00    +0.000 A 
ATOM      3  C   UNL     1       1.429   0.000   0.000  0.00  0.00    +0.000 A 
ATOM      4  O   UNL     1       1.429   0.825   0.000  0.00  0.00    +0.000 OA
ATOM      5  C   UNL     1       2.143  -0.412   0.000  0.00  0.00    +0.000 A 
ATOM      6  C   UNL     1       2.858   0.000   0.000  0.00  0.00    +0.000 A 
ATOM      7  C   UNL     1       3.572  -0.412   0.000  0.00  0.00    +0.000 A 
ATOM      8  C   UNL     1       3.572  -1.238   0.000  0.00  0.00    +0.000 A 
ATOM      9  C   UNL     1       2.858  -1.650   0.000  0.00  0.00    +0.000 A 
ATOM     10  C   UNL     1       2.143  -1.238   0.000  0.00  0.00    +0.000 A 
ATOM     11  O   UNL     1       1.429  -1.650   0.000  0.00  0.00    +0.000 OA
ATOM     12  O   UNL     1       4.287  -1.650   0.000  0.00  0.00    +0.000 OA
ATOM     13  O   UNL     1       2.858   0.825   0.000  0.00  0.00    +0.000 OA
ATOM     14  O   UNL     1       0.000   0.000   0.000  0.00  0.00    +0.000 OA
ENDROOT
BRANCH   1  20
ATOM     15  C   UNL     1       0.000  -2.475   0.000  0.00  0.00    +0.000 A 
ATOM     16  C   UNL     1      -0.715  -2.888   0.000  0.00  0.00    +0.000 A 
ATOM     17  C   UNL     1      -1.429  -2.475   0.000  0.00  0.00    +0.000 A 
ATOM     18  C   UNL     1      -1.429  -1.650   0.000  0.00  0.00    +0.000 A 
ATOM     19  C   UNL     1      -0.715  -1.238   0.000  0.00  0.00    +0.000 A 
ATOM     20  C   UNL     1       0.000  -1.650   0.000  0.00  0.00    +0.000 A 
ATOM     21  O   UNL     1      -2.143  -2.888   0.000  0.00  0.00    +0.000 OA
BRANCH  18  22
ATOM     22  O   UNL     1      -2.143  -1.238   0.000  0.00  0.00    +0.000 OA
BRANCH  22  23
ATOM     23  P   UNL     1      -2.858  -1.650   0.000  0.00  0.00    +0.000 P 
ATOM     24  O   UNL     1      -3.572  -2.062   0.000  0.00  0.00    +0.000 OA
ATOM     25  O   UNL     1      -3.270  -0.935   0.000  0.00  0.00    +0.000 OA
ATOM     26  O   UNL     1      -2.445  -2.365   0.000  0.00  0.00    +0.000 OA
ENDBRANCH  22  23
ENDBRANCH  18  22
ENDBRANCH   1  20
TORSDOF 3
