REMARK  Name = 
REMARK  4 active torsions:
REMARK  status: ('A' for Active; 'I' for Inactive)
REMARK    1  A    between atoms: C_2  and  C_3
REMARK    2  A    between atoms: C_3  and  N_5
REMARK    3  A    between atoms: C_14  and  C_15
REMARK    4  A    between atoms: C_18  and  O_22
REMARK                            x       y       z     vdW  Elec       q    Type
REMARK                         _______ _______ _______ _____ _____    ______ ____
ROOT
ATOM      1  N   UNL     1       3.279   2.062   0.000  0.00  0.00    +0.000 NA
ATOM      2  C   UNL     1       3.279   1.238   0.000  0.00  0.00    +0.000 A 
ATOM      3  N   UNL     1       3.993   0.825   0.000  0.00  0.00    +0.000 NA
ATOM      4  C   UNL     1       3.993   0.000   0.000  0.00  0.00    +0.000 A 
ATOM      5  N   UNL     1       3.279  -0.412   0.000  0.00  0.00    +0.000 NA
ATOM      6  C   UNL     1       2.564   0.000   0.000  0.00  0.00    +0.000 A 
ATOM      7  N   UNL     1       2.564   0.825   0.000  0.00  0.00    +0.000 N 
ATOM      8  N   UNL     1       1.780   1.080   0.000  0.00  0.00    +0.000 NA
ATOM      9  C   UNL     1       1.295   0.412   0.000  0.00  0.00    +0.000 A 
ATOM     10  C   UNL     1       1.780  -0.255   0.000  0.00  0.00    +0.000 A 
ATOM     11  C   UNL     1       0.470   0.412   0.000  0.00  0.00    +0.000 C 
ATOM     12  C   UNL     1       4.708  -0.412   0.000  0.00  0.00    +0.000 C 
ENDROOT
BRANCH  10  13
ATOM     13  C   UNL     1       1.525  -1.040   0.000  0.00  0.00    +0.000 A 
ATOM     14  C   UNL     1       2.077  -1.653   0.000  0.00  0.00    +0.000 A 
ATOM     15  C   UNL     1       1.822  -2.437   0.000  0.00  0.00    +0.000 A 
ATOM     16  C   UNL     1       1.015  -2.609   0.000  0.00  0.00    +0.000 A 
ATOM     17  N   UNL     1       0.463  -1.996   0.000  0.00  0.00    +0.000 NA
ATOM     18  C   UNL     1       0.718  -1.211   0.000  0.00  0.00    +0.000 A 
ATOM     19  C   UNL     1       0.166  -0.598   0.000  0.00  0.00    +0.000 C 
BRANCH  16  20
ATOM     20  O   UNL     1       0.760  -3.393   0.000  0.00  0.00    +0.000 OA
ATOM     21  C   UNL     1       1.312  -4.006   0.000  0.00  0.00    +0.000 C 
ENDBRANCH  16  20
ENDBRANCH  10  13
BRANCH   1  22
ATOM     22  C   UNL     1       3.993   2.475   0.000  0.00  0.00    +0.000 C 
ATOM     23  C   UNL     1       4.708   2.062   0.000  0.00  0.00    +0.000 C 
BRANCH  22  25
ATOM     24  C   UNL     1       4.708   3.712   0.000  0.00  0.00    +0.000 C 
ATOM     25  C   UNL     1       3.993   3.300   0.000  0.00  0.00    +0.000 C 
ENDBRANCH  22  25
ENDBRANCH   1  22
TORSDOF 4
