REMARK  Name = 
REMARK  5 active torsions:
REMARK  status: ('A' for Active; 'I' for Inactive)
REMARK    1  A    between atoms: C_5  and  N_7
REMARK    2  A    between atoms: C_5  and  C_29
REMARK    3  A    between atoms: C_8  and  C_10
REMARK    4  A    between atoms: C_33  and  C_34
REMARK    5  A    between atoms: C_34  and  C_35
REMARK                            x       y       z     vdW  Elec       q    Type
REMARK                         _______ _______ _______ _____ _____    ______ ____
ROOT
ATOM      1  O   UNL     1       1.989   2.709   0.000  0.00  0.00    +0.000 OA
ATOM      2  C   UNL     1       1.164   2.709   0.000  0.00  0.00    +0.000 C 
ATOM      3  N   UNL     1       0.341   2.707   0.000  0.00  0.00    +0.000 N 
ATOM      4  C   UNL     1       0.341   1.280   0.000  0.00  0.00    +0.000 C 
ATOM      5  C   UNL     1       1.164   1.282   0.000  0.00  0.00    +0.000 C 
ATOM      6  O   UNL     1       1.576   1.994   0.000  0.00  0.00    +0.000 OA
ATOM      7  O   UNL     1      -0.244   0.696   0.000  0.00  0.00    +0.000 OA
ATOM      8  C   UNL     1      -0.072   3.423   0.000  0.00  0.00    +0.000 C 
ATOM      9  C   UNL     1       0.341   4.140   0.000  0.00  0.00    +0.000 C 
ATOM     10  N   UNL     1       1.164   4.140   0.000  0.00  0.00    +0.000 N 
ATOM     11  C   UNL     1       1.576   3.421   0.000  0.00  0.00    +0.000 C 
ATOM     12  C   UNL     1       2.401   3.421   0.000  0.00  0.00    +0.000 C 
ATOM     13  C   UNL     1       2.401   4.854   0.000  0.00  0.00    +0.000 C 
ATOM     14  C   UNL     1       1.576   4.854   0.000  0.00  0.00    +0.000 C 
ATOM     15  O   UNL     1      -0.060   4.861   0.000  0.00  0.00    +0.000 OA
ENDROOT
BRANCH   5  16
ATOM     16  N   UNL     1       1.164   0.121   0.000  0.00  0.00    +0.000 NA
ATOM     17  C   UNL     1       0.450  -0.293   0.000  0.00  0.00    +0.000 C 
ATOM     18  O   UNL     1      -0.265   0.121   0.000  0.00  0.00    +0.000 OA
BRANCH  17  19
ATOM     19  C   UNL     1       0.450  -1.118   0.000  0.00  0.00    +0.000 C 
ATOM     20  C   UNL     1      -0.263  -1.534   0.000  0.00  0.00    +0.000 C 
ATOM     21  C   UNL     1      -0.263  -2.365   0.000  0.00  0.00    +0.000 C 
ATOM     22  C   UNL     1      -0.976  -2.780   0.000  0.00  0.00    +0.000 A 
ATOM     23  C   UNL     1      -0.976  -3.612   0.000  0.00  0.00    +0.000 A 
ATOM     24  C   UNL     1      -0.263  -4.027   0.000  0.00  0.00    +0.000 A 
ATOM     25  C   UNL     1       0.450  -3.612   0.000  0.00  0.00    +0.000 C 
ATOM     26  C   UNL     1       0.450  -2.780   0.000  0.00  0.00    +0.000 C 
ATOM     27  N   UNL     1       1.162  -2.365   0.000  0.00  0.00    +0.000 NA
ATOM     28  C   UNL     1       1.162  -1.534   0.000  0.00  0.00    +0.000 C 
ATOM     29  C   UNL     1       1.876  -2.778   0.000  0.00  0.00    +0.000 C 
ATOM     30  C   UNL     1      -0.263  -4.861   0.000  0.00  0.00    +0.000 A 
ATOM     31  N   UNL     1      -1.688  -4.861   0.000  0.00  0.00    +0.000 NA
ATOM     32  C   UNL     1      -1.688  -4.027   0.000  0.00  0.00    +0.000 A 
ATOM     33  C   UNL     1      -2.401  -3.612   0.000  0.00  0.00    +0.000 A 
ATOM     34  C   UNL     1      -2.401  -2.780   0.000  0.00  0.00    +0.000 A 
ATOM     35  C   UNL     1      -1.688  -2.365   0.000  0.00  0.00    +0.000 A 
ENDBRANCH  17  19
ENDBRANCH   5  16
BRANCH   5  36
ATOM     36  C   UNL     1       1.989   1.282   0.000  0.00  0.00    +0.000 C 
ATOM     37  C   UNL     1       2.401   1.994   0.000  0.00  0.00    +0.000 C 
ATOM     38  C   UNL     1       2.401   0.567   0.000  0.00  0.00    +0.000 C 
ENDBRANCH   5  36
BRANCH   8  39
ATOM     39  C   UNL     1      -0.900   3.423   0.000  0.00  0.00    +0.000 C 
ATOM     40  C   UNL     1      -1.311   2.709   0.000  0.00  0.00    +0.000 C 
BRANCH  39  41
ATOM     41  C   UNL     1      -1.311   4.138   0.000  0.00  0.00    +0.000 C 
ATOM     42  C   UNL     1      -2.026   3.724   0.000  0.00  0.00    +0.000 C 
ENDBRANCH  39  41
ENDBRANCH   8  39
TORSDOF 5
