REMARK  Name = 
REMARK  13 active torsions:
REMARK  status: ('A' for Active; 'I' for Inactive)
REMARK    1  A    between atoms: C_1  and  C_29
REMARK    2  A    between atoms: C_3  and  C_7
REMARK    3  A    between atoms: P_9  and  C_11
REMARK    4  A    between atoms: P_9  and  C_33
REMARK    5  A    between atoms: C_11  and  C_12
REMARK    6  A    between atoms: C_11  and  N_15
REMARK    7  A    between atoms: N_15  and  S_16
REMARK    8  A    between atoms: S_16  and  C_19
REMARK    9  A    between atoms: C_19  and  C_20
REMARK   10  A    between atoms: C_20  and  C_21
REMARK   11  A    between atoms: C_21  and  C_22
REMARK   12  A    between atoms: C_29  and  C_30
REMARK   13  A    between atoms: C_29  and  C_33
REMARK                            x       y       z     vdW  Elec       q    Type
REMARK                         _______ _______ _______ _____ _____    ______ ____
ROOT
ATOM      1  C   UNL     1       0.357  -1.031   0.000  0.00  0.00    +0.000 C 
ENDROOT
BRANCH   1   2
ATOM      2  P   UNL     1       1.072  -0.619   0.000  0.00  0.00    +0.000 P 
ATOM      3  O   UNL     1       0.659   0.096   0.000  0.00  0.00    +0.000 OA
ATOM      4  O   UNL     1       1.484  -1.333   0.000  0.00  0.00    +0.000 OA
BRANCH   2   5
ATOM      5  C   UNL     1       1.786  -0.206   0.000  0.00  0.00    +0.000 C 
BRANCH   5   6
ATOM      6  C   UNL     1       1.786   0.619   0.000  0.00  0.00    +0.000 C 
BRANCH   6   7
ATOM      7  C   UNL     1       2.501   1.031   0.000  0.00  0.00    +0.000 A 
ATOM      8  C   UNL     1       3.215   0.619   0.000  0.00  0.00    +0.000 A 
ATOM      9  C   UNL     1       3.930   1.031   0.000  0.00  0.00    +0.000 A 
ATOM     10  C   UNL     1       3.930   1.856   0.000  0.00  0.00    +0.000 A 
ATOM     11  C   UNL     1       3.215   2.269   0.000  0.00  0.00    +0.000 A 
ATOM     12  C   UNL     1       2.501   1.856   0.000  0.00  0.00    +0.000 A 
BRANCH   9  13
ATOM     13  C   UNL     1       4.644   0.619   0.000  0.00  0.00    +0.000 C 
ATOM     14  N   UNL     1       5.359   1.031   0.000  0.00  0.00    +0.000 NA
ENDBRANCH   9  13
ENDBRANCH   6   7
BRANCH   6  15
ATOM     15  C   UNL     1       1.137   1.140   0.000  0.00  0.00    +0.000 C 
ATOM     16  O   UNL     1       0.357   0.619   0.000  0.00  0.00    +0.000 OA
ATOM     17  O   UNL     1       1.072   1.856   0.000  0.00  0.00    +0.000 OA
ENDBRANCH   6  15
ENDBRANCH   5   6
ENDBRANCH   2   5
ENDBRANCH   1   2
BRANCH   1  18
ATOM     18  C   UNL     1       0.357  -1.856   0.000  0.00  0.00    +0.000 C 
ATOM     19  C   UNL     1       1.072  -2.269   0.000  0.00  0.00    +0.000 C 
ATOM     20  C   UNL     1      -0.357  -2.269   0.000  0.00  0.00    +0.000 C 
ENDBRANCH   1  18
BRANCH   1  21
ATOM     21  N   UNL     1      -0.357  -0.619   0.000  0.00  0.00    +0.000 NA
BRANCH  21  22
ATOM     22  S   UNL     1      -1.072  -1.031   0.000  0.00  0.00    +0.000 S 
ATOM     23  O   UNL     1      -1.484  -0.317   0.000  0.00  0.00    +0.000 OA
ATOM     24  O   UNL     1      -0.659  -1.746   0.000  0.00  0.00    +0.000 OA
BRANCH  22  25
ATOM     25  C   UNL     1      -1.786  -1.444   0.000  0.00  0.00    +0.000 C 
BRANCH  25  26
ATOM     26  C   UNL     1      -2.501  -1.031   0.000  0.00  0.00    +0.000 C 
BRANCH  26  27
ATOM     27  C   UNL     1      -3.215  -1.444   0.000  0.00  0.00    +0.000 C 
BRANCH  27  28
ATOM     28  C   UNL     1      -3.930  -1.031   0.000  0.00  0.00    +0.000 A 
ATOM     29  C   UNL     1      -4.644  -1.444   0.000  0.00  0.00    +0.000 A 
ATOM     30  C   UNL     1      -5.359  -1.031   0.000  0.00  0.00    +0.000 A 
ATOM     31  C   UNL     1      -5.359  -0.206   0.000  0.00  0.00    +0.000 A 
ATOM     32  C   UNL     1      -4.644   0.206   0.000  0.00  0.00    +0.000 A 
ATOM     33  C   UNL     1      -3.930  -0.206   0.000  0.00  0.00    +0.000 A 
ENDBRANCH  27  28
ENDBRANCH  26  27
ENDBRANCH  25  26
ENDBRANCH  22  25
ENDBRANCH  21  22
ENDBRANCH   1  21
TORSDOF 13
