REMARK  Name = 
REMARK  14 active torsions:
REMARK  status: ('A' for Active; 'I' for Inactive)
REMARK    1  A    between atoms: C_2  and  C_4
REMARK    2  A    between atoms: C_4  and  N_5
REMARK    3  A    between atoms: C_4  and  C_25
REMARK    4  A    between atoms: C_7  and  C_8
REMARK    5  A    between atoms: C_8  and  O_9
REMARK    6  A    between atoms: O_9  and  C_10
REMARK    7  A    between atoms: C_17  and  S_19
REMARK    8  A    between atoms: N_27  and  CA_28
REMARK    9  A    between atoms: CA_28  and  C_29
REMARK   10  A    between atoms: CA_28  and  C_40
REMARK   11  A    between atoms: C_29  and  C_30
REMARK   12  A    between atoms: C_33  and  O_34
REMARK   13  A    between atoms: O_34  and  C_35
REMARK   14  A    between atoms: C_35  and  C_36
REMARK                            x       y       z     vdW  Elec       q    Type
REMARK                         _______ _______ _______ _____ _____    ______ ____
ROOT
ATOM      1  C   UNL     1       4.270  -1.046   0.000  0.00  0.00    +0.000 C 
ENDROOT
BRANCH   1   2
ATOM      2  N   UNL     1       3.857  -1.761   0.000  0.00  0.00    +0.000 N 
ATOM      3  C   UNL     1       4.193  -2.514   0.000  0.00  0.00    +0.000 A 
ATOM      4  C   UNL     1       3.580  -3.066   0.000  0.00  0.00    +0.000 A 
ATOM      5  N   UNL     1       2.865  -2.654   0.000  0.00  0.00    +0.000 NA
ATOM      6  N   UNL     1       3.037  -1.847   0.000  0.00  0.00    +0.000 NA
BRANCH   4   7
ATOM      7  C   UNL     1       3.666  -3.887   0.000  0.00  0.00    +0.000 C 
BRANCH   7   8
ATOM      8  O   UNL     1       2.998  -4.372   0.000  0.00  0.00    +0.000 OA
BRANCH   8   9
ATOM      9  C   UNL     1       2.245  -4.036   0.000  0.00  0.00    +0.000 A 
ATOM     10  C   UNL     1       1.577  -4.521   0.000  0.00  0.00    +0.000 A 
ATOM     11  C   UNL     1       0.824  -4.186   0.000  0.00  0.00    +0.000 A 
ATOM     12  C   UNL     1       0.737  -3.365   0.000  0.00  0.00    +0.000 A 
ATOM     13  C   UNL     1       1.405  -2.880   0.000  0.00  0.00    +0.000 A 
ATOM     14  C   UNL     1       2.159  -3.216   0.000  0.00  0.00    +0.000 A 
ATOM     15  N   UNL     1      -0.070  -3.194   0.000  0.00  0.00    +0.000 NA
ATOM     16  C   UNL     1      -0.482  -3.908   0.000  0.00  0.00    +0.000 A 
ATOM     17  S   UNL     1       0.070  -4.521   0.000  0.00  0.00    +0.000 S 
BRANCH  16  18
ATOM     18  S   UNL     1      -1.303  -3.994   0.000  0.00  0.00    +0.000 S 
ATOM     19  N   UNL     1      -2.123  -4.080   0.000  0.00  0.00    +0.000 NA
ATOM     20  O   UNL     1      -1.216  -4.815   0.000  0.00  0.00    +0.000 OA
ATOM     21  O   UNL     1      -1.389  -3.174   0.000  0.00  0.00    +0.000 OA
ENDBRANCH  16  18
ENDBRANCH   8   9
ENDBRANCH   7   8
ENDBRANCH   4   7
ENDBRANCH   1   2
BRANCH   1  22
ATOM     22  C   UNL     1       5.095  -1.046   0.000  0.00  0.00    +0.000 C 
ATOM     23  O   UNL     1       5.507  -1.761   0.000  0.00  0.00    +0.000 OA
ATOM     24  N   UNL     1       5.507  -0.332   0.000  0.00  0.00    +0.000 NA
BRANCH  24  25
ATOM     25  CA  UNL     1       6.332  -0.332   0.000  0.00  0.00    +0.000 C 
BRANCH  25  26
ATOM     26  C   UNL     1       6.745  -1.046   0.000  0.00  0.00    +0.000 C 
ATOM     27  O   UNL     1       7.570  -1.046   0.000  0.00  0.00    +0.000 OA
ATOM     28  OXT UNL     1       6.332  -1.761   0.000  0.00  0.00    +0.000 OA
ENDBRANCH  25  26
BRANCH  25  29
ATOM     29  C   UNL     1       6.745   0.383   0.000  0.00  0.00    +0.000 C 
BRANCH  29  30
ATOM     30  C   UNL     1       7.570   0.383   0.000  0.00  0.00    +0.000 A 
ATOM     31  C   UNL     1       7.982   1.097   0.000  0.00  0.00    +0.000 A 
ATOM     32  C   UNL     1       8.807   1.097   0.000  0.00  0.00    +0.000 A 
ATOM     33  C   UNL     1       9.220   0.383   0.000  0.00  0.00    +0.000 A 
ATOM     34  C   UNL     1       8.807  -0.332   0.000  0.00  0.00    +0.000 A 
ATOM     35  C   UNL     1       7.982  -0.332   0.000  0.00  0.00    +0.000 A 
BRANCH  33  36
ATOM     36  O   UNL     1      10.045   0.383   0.000  0.00  0.00    +0.000 OA
BRANCH  36  37
ATOM     37  C   UNL     1      10.457   1.097   0.000  0.00  0.00    +0.000 C 
BRANCH  37  38
ATOM     38  C   UNL     1      11.282   1.097   0.000  0.00  0.00    +0.000 C 
ATOM     39  F   UNL     1      11.695   1.812   0.000  0.00  0.00    +0.000 F 
ENDBRANCH  37  38
ENDBRANCH  36  37
ENDBRANCH  33  36
ENDBRANCH  29  30
ENDBRANCH  25  29
ENDBRANCH  24  25
ENDBRANCH   1  22
BRANCH   1  41
ATOM     40  C   UNL     1       4.270   0.383   0.000  0.00  0.00    +0.000 C 
ATOM     41  C   UNL     1       3.857  -0.332   0.000  0.00  0.00    +0.000 C 
ATOM     42  C   UNL     1       3.032  -0.332   0.000  0.00  0.00    +0.000 C 
ENDBRANCH   1  41
TORSDOF 14
