REMARK  Name = 
REMARK  6 active torsions:
REMARK  status: ('A' for Active; 'I' for Inactive)
REMARK    1  A    between atoms: C_1  and  C_2
REMARK    2  A    between atoms: C_1  and  C_3
REMARK    3  A    between atoms: C_2  and  C_5
REMARK    4  A    between atoms: N_8  and  C_11
REMARK    5  A    between atoms: C_11  and  C_12
REMARK    6  A    between atoms: C_12  and  C_13
REMARK                            x       y       z     vdW  Elec       q    Type
REMARK                         _______ _______ _______ _____ _____    ______ ____
ROOT
ATOM      1  C   UNL     1      -0.358   0.158   0.000  0.00  0.00    +0.000 C 
ATOM      2  N   UNL     1       0.364  -0.245   0.000  0.00  0.00    +0.000 NA
ATOM      3  O   UNL     1      -0.366   0.989   0.000  0.00  0.00    +0.000 OA
ENDROOT
BRANCH   1   4
ATOM      4  C   UNL     1      -1.061  -0.273   0.000  0.00  0.00    +0.000 C 
ATOM      5  O   UNL     1      -1.047  -1.025   0.000  0.00  0.00    +0.000 OA
BRANCH   4   6
ATOM      6  C   UNL     1      -1.783   0.120   0.000  0.00  0.00    +0.000 C 
ATOM      7  C   UNL     1      -2.186  -0.602   0.000  0.00  0.00    +0.000 C 
ATOM      8  C   UNL     1      -1.394   0.842   0.000  0.00  0.00    +0.000 C 
BRANCH   6   9
ATOM      9  C   UNL     1      -2.512   0.516   0.000  0.00  0.00    +0.000 C 
ATOM     10  O   UNL     1      -3.209   0.081   0.000  0.00  0.00    +0.000 OA
ENDBRANCH   6   9
ENDBRANCH   4   6
ENDBRANCH   1   4
BRANCH   2  11
ATOM     11  C   UNL     1       1.061   0.180   0.000  0.00  0.00    +0.000 C 
BRANCH  11  12
ATOM     12  C   UNL     1       1.783  -0.220   0.000  0.00  0.00    +0.000 C 
BRANCH  12  13
ATOM     13  C   UNL     1       2.487   0.194   0.000  0.00  0.00    +0.000 C 
ATOM     14  O   UNL     1       3.209  -0.205   0.000  0.00  0.00    +0.000 OA
ATOM     15  O   UNL     1       2.478   1.025   0.000  0.00  0.00    +0.000 OA
ENDBRANCH  12  13
ENDBRANCH  11  12
ENDBRANCH   2  11
TORSDOF 6
