REMARK  Name = 
REMARK  1 active torsions:
REMARK  status: ('A' for Active; 'I' for Inactive)
REMARK    1  A    between atoms: C_2  and  C_3
REMARK                            x       y       z     vdW  Elec       q    Type
REMARK                         _______ _______ _______ _____ _____    ______ ____
ROOT
ATOM      1  O   UNL     1       1.813   1.249   0.000  0.00  0.00    +0.000 OA
ATOM      2  C   UNL     1       1.098   0.837   0.000  0.00  0.00    +0.000 C 
ATOM      3  C   UNL     1       0.386   0.422   0.000  0.00  0.00    +0.000 C 
ATOM      4  C   UNL     1       1.811   0.422   0.000  0.00  0.00    +0.000 C 
ATOM      5  C   UNL     1       0.386   1.247   0.000  0.00  0.00    +0.000 C 
ATOM      6  C   UNL     1       0.386  -0.411   0.000  0.00  0.00    +0.000 C 
ATOM      7  C   UNL     1      -0.326   0.837   0.000  0.00  0.00    +0.000 C 
ATOM      8  C   UNL     1       2.527   0.833   0.000  0.00  0.00    +0.000 C 
ATOM      9  C   UNL     1       1.811  -0.411   0.000  0.00  0.00    +0.000 C 
ATOM     10  C   UNL     1      -0.326  -0.827   0.000  0.00  0.00    +0.000 C 
ATOM     11  C   UNL     1      -1.039   0.422   0.000  0.00  0.00    +0.000 C 
ATOM     12  C   UNL     1      -1.039  -0.411   0.000  0.00  0.00    +0.000 C 
ATOM     13  C   UNL     1      -0.326  -1.658   0.000  0.00  0.00    +0.000 C 
ATOM     14  C   UNL     1      -1.752  -0.827   0.000  0.00  0.00    +0.000 C 
ATOM     15  C   UNL     1      -1.039  -2.074   0.000  0.00  0.00    +0.000 C 
ATOM     16  C   UNL     1      -1.752  -1.658   0.000  0.00  0.00    +0.000 C 
ATOM     17  C   UNL     1      -2.464  -0.411   0.000  0.00  0.00    +0.000 C 
ATOM     18  C   UNL     1      -2.464  -2.074   0.000  0.00  0.00    +0.000 C 
ATOM     19  C   UNL     1      -3.177  -0.827   0.000  0.00  0.00    +0.000 C 
ATOM     20  C   UNL     1      -3.177  -1.658   0.000  0.00  0.00    +0.000 C 
ATOM     21  O   UNL     1      -3.893  -2.070   0.000  0.00  0.00    +0.000 OA
ENDROOT
BRANCH   2  22
ATOM     22  C   UNL     1       1.098   1.662   0.000  0.00  0.00    +0.000 C 
ATOM     23  C   UNL     1       1.813   2.074   0.000  0.00  0.00    +0.000 C 
ATOM     24  O   UNL     1       0.384   2.074   0.000  0.00  0.00    +0.000 OA
ENDBRANCH   2  22
TORSDOF 1
