REMARK  Name = 
REMARK  4 active torsions:
REMARK  status: ('A' for Active; 'I' for Inactive)
REMARK    1  A    between atoms: C_2  and  C_5
REMARK    2  A    between atoms: C_7  and  C_16
REMARK    3  A    between atoms: C_9  and  C_12
REMARK    4  A    between atoms: C_19  and  C_20
REMARK                            x       y       z     vdW  Elec       q    Type
REMARK                         _______ _______ _______ _____ _____    ______ ____
ROOT
ATOM      1  C   UNL     1      -0.608   4.353   0.000  0.00  0.00    +0.000 A 
ATOM      2  C   UNL     1      -0.608   3.528   0.000  0.00  0.00    +0.000 A 
ATOM      3  C   UNL     1      -1.322   3.115   0.000  0.00  0.00    +0.000 A 
ATOM      4  C   UNL     1      -2.037   3.528   0.000  0.00  0.00    +0.000 A 
ATOM      5  C   UNL     1      -2.037   4.353   0.000  0.00  0.00    +0.000 A 
ATOM      6  C   UNL     1      -1.322   4.765   0.000  0.00  0.00    +0.000 A 
ATOM      7  O   UNL     1      -1.322   5.590   0.000  0.00  0.00    +0.000 OA
ENDROOT
BRANCH   3   8
ATOM      8  C   UNL     1      -1.322   2.290   0.000  0.00  0.00    +0.000 A 
ATOM      9  C   UNL     1      -0.655   1.805   0.000  0.00  0.00    +0.000 A 
ATOM     10  S   UNL     1      -0.910   1.021   0.000  0.00  0.00    +0.000 S 
ATOM     11  C   UNL     1      -1.735   1.021   0.000  0.00  0.00    +0.000 A 
ATOM     12  N   UNL     1      -1.990   1.805   0.000  0.00  0.00    +0.000 NA
BRANCH  11  13
ATOM     13  C   UNL     1      -2.220   0.353   0.000  0.00  0.00    +0.000 C 
ATOM     14  N   UNL     1      -1.884  -0.401   0.000  0.00  0.00    +0.000 NA
ENDBRANCH  11  13
ENDBRANCH   3   8
BRANCH   1  16
ATOM     15  C   UNL     1       0.821   5.178   0.000  0.00  0.00    +0.000 C 
ATOM     16  C   UNL     1       0.107   4.765   0.000  0.00  0.00    +0.000 C 
ATOM     17  C   UNL     1      -0.306   5.480   0.000  0.00  0.00    +0.000 C 
ATOM     18  C   UNL     1       0.519   4.051   0.000  0.00  0.00    +0.000 C 
ENDBRANCH   1  16
BRANCH   5  19
ATOM     19  C   UNL     1      -2.751   4.765   0.000  0.00  0.00    +0.000 C 
ATOM     20  C   UNL     1      -3.466   5.178   0.000  0.00  0.00    +0.000 C 
ATOM     21  C   UNL     1      -2.339   5.480   0.000  0.00  0.00    +0.000 C 
ATOM     22  C   UNL     1      -3.164   4.051   0.000  0.00  0.00    +0.000 C 
ENDBRANCH   5  19
TORSDOF 4
