REMARK  Name = 
REMARK  5 active torsions:
REMARK  status: ('A' for Active; 'I' for Inactive)
REMARK    1  A    between atoms: N_1  and  C_6
REMARK    2  A    between atoms: C_14  and  S_15
REMARK    3  A    between atoms: S_15  and  C_17
REMARK    4  A    between atoms: C_17  and  C_18
REMARK    5  A    between atoms: C_22  and  O_25
REMARK                            x       y       z     vdW  Elec       q    Type
REMARK                         _______ _______ _______ _____ _____    ______ ____
ROOT
ATOM      1  C   UNL     1      -2.608   0.083   0.000  0.00  0.00    +0.000 A 
ATOM      2  C   UNL     1      -1.893  -0.329   0.000  0.00  0.00    +0.000 A 
ATOM      3  C   UNL     1      -1.893   1.321   0.000  0.00  0.00    +0.000 A 
ATOM      4  C   UNL     1      -2.608   0.908   0.000  0.00  0.00    +0.000 A 
ATOM      5  N   UNL     1      -0.394   1.163   0.000  0.00  0.00    +0.000 NA
ATOM      6  C   UNL     1      -1.179   0.908   0.000  0.00  0.00    +0.000 A 
ATOM      7  C   UNL     1      -1.179   0.083   0.000  0.00  0.00    +0.000 A 
ATOM      8  N   UNL     1      -0.394  -0.172   0.000  0.00  0.00    +0.000 NA
ATOM      9  C   UNL     1       0.090   0.496   0.000  0.00  0.00    +0.000 A 
ENDROOT
BRANCH   1  10
ATOM     10  N   UNL     1      -3.322  -0.329   0.000  0.00  0.00    +0.000 N 
ATOM     11  C   UNL     1      -4.076   0.007   0.000  0.00  0.00    +0.000 A 
ATOM     12  C   UNL     1      -4.628  -0.606   0.000  0.00  0.00    +0.000 A 
ATOM     13  C   UNL     1      -4.216  -1.321   0.000  0.00  0.00    +0.000 A 
ATOM     14  C   UNL     1      -3.409  -1.149   0.000  0.00  0.00    +0.000 A 
ENDBRANCH   1  10
BRANCH   9  15
ATOM     15  S   UNL     1       0.915   0.496   0.000  0.00  0.00    +0.000 S 
ATOM     16  O   UNL     1       1.328   1.210   0.000  0.00  0.00    +0.000 OA
BRANCH  15  17
ATOM     17  C   UNL     1       1.328  -0.219   0.000  0.00  0.00    +0.000 C 
BRANCH  17  18
ATOM     18  C   UNL     1       2.153  -0.219   0.000  0.00  0.00    +0.000 A 
ATOM     19  N   UNL     1       2.566  -0.933   0.000  0.00  0.00    +0.000 NA
ATOM     20  C   UNL     1       3.390  -0.933   0.000  0.00  0.00    +0.000 A 
ATOM     21  C   UNL     1       3.803  -0.219   0.000  0.00  0.00    +0.000 A 
ATOM     22  C   UNL     1       3.391   0.496   0.000  0.00  0.00    +0.000 A 
ATOM     23  C   UNL     1       2.566   0.496   0.000  0.00  0.00    +0.000 A 
ATOM     24  C   UNL     1       2.153   1.210   0.000  0.00  0.00    +0.000 C 
BRANCH  22  25
ATOM     25  O   UNL     1       3.803   1.210   0.000  0.00  0.00    +0.000 OA
ATOM     26  C   UNL     1       4.628   1.210   0.000  0.00  0.00    +0.000 C 
ENDBRANCH  22  25
ENDBRANCH  17  18
ENDBRANCH  15  17
ENDBRANCH   9  15
TORSDOF 5
