REMARK  Name = 
REMARK  4 active torsions:
REMARK  status: ('A' for Active; 'I' for Inactive)
REMARK    1  A    between atoms: N_1  and  C_4
REMARK    2  A    between atoms: C_4  and  C_8
REMARK    3  A    between atoms: N_11  and  C_13
REMARK    4  A    between atoms: C_13  and  C_14
REMARK                            x       y       z     vdW  Elec       q    Type
REMARK                         _______ _______ _______ _____ _____    ______ ____
ROOT
ATOM      1  C   UNL     1       0.675  -0.603   0.000  0.00  0.00    +0.000 C 
ATOM      2  N   UNL     1       0.675   0.222   0.000  0.00  0.00    +0.000 NA
ATOM      3  O   UNL     1       1.390  -1.015   0.000  0.00  0.00    +0.000 OA
ENDROOT
BRANCH   1   4
ATOM      4  C   UNL     1      -0.039  -1.015   0.000  0.00  0.00    +0.000 C 
BRANCH   4   5
ATOM      5  N   UNL     1      -0.039  -1.840   0.000  0.00  0.00    +0.000 N 
ATOM      6  C   UNL     1      -0.707  -2.325   0.000  0.00  0.00    +0.000 A 
ATOM      7  C   UNL     1       0.628  -2.325   0.000  0.00  0.00    +0.000 A 
ATOM      8  N   UNL     1      -0.452  -3.110   0.000  0.00  0.00    +0.000 NA
ATOM      9  N   UNL     1      -1.491  -2.070   0.000  0.00  0.00    +0.000 N 
ATOM     10  C   UNL     1       0.373  -3.110   0.000  0.00  0.00    +0.000 A 
ATOM     11  O   UNL     1      -2.104  -2.622   0.000  0.00  0.00    +0.000 OA
ATOM     12  O   UNL     1      -1.663  -1.263   0.000  0.00  0.00    +0.000 OA
ENDBRANCH   4   5
ENDBRANCH   1   4
BRANCH   2  13
ATOM     13  C   UNL     1       1.390   0.635   0.000  0.00  0.00    +0.000 C 
BRANCH  13  14
ATOM     14  C   UNL     1       1.390   1.460   0.000  0.00  0.00    +0.000 A 
ATOM     15  C   UNL     1       2.104   1.872   0.000  0.00  0.00    +0.000 A 
ATOM     16  C   UNL     1       0.675   1.872   0.000  0.00  0.00    +0.000 A 
ATOM     17  C   UNL     1       2.104   2.697   0.000  0.00  0.00    +0.000 A 
ATOM     18  C   UNL     1       0.675   2.697   0.000  0.00  0.00    +0.000 A 
ATOM     19  C   UNL     1       1.390   3.110   0.000  0.00  0.00    +0.000 A 
ENDBRANCH  13  14
ENDBRANCH   2  13
TORSDOF 4
