REMARK  Name = 
REMARK  5 active torsions:
REMARK  status: ('A' for Active; 'I' for Inactive)
REMARK    1  A    between atoms: C_1  and  C_4
REMARK    2  A    between atoms: C_4  and  C_5
REMARK    3  A    between atoms: C_5  and  C_6
REMARK    4  A    between atoms: C_7  and  C_8
REMARK    5  A    between atoms: C_9  and  C_10
REMARK                            x       y       z     vdW  Elec       q    Type
REMARK                         _______ _______ _______ _____ _____    ______ ____
ROOT
ATOM      1  C   UNL     1       0.016   0.707   0.000  0.00  0.00    +0.000 C 
ATOM      2  C   UNL     1      -0.809   0.707   0.000  0.00  0.00    +0.000 C 
ENDROOT
BRANCH   2   3
ATOM      3  C   UNL     1      -1.222  -0.008   0.000  0.00  0.00    +0.000 C 
ATOM      4  C   UNL     1      -2.047  -0.008   0.000  0.00  0.00    +0.000 C 
BRANCH   4   5
ATOM      5  C   UNL     1      -2.459  -0.722   0.000  0.00  0.00    +0.000 C 
ATOM      6  C   UNL     1      -2.047  -1.437   0.000  0.00  0.00    +0.000 C 
ENDBRANCH   4   5
ENDBRANCH   2   3
BRANCH   1   7
ATOM      7  C   UNL     1       0.428  -0.008   0.000  0.00  0.00    +0.000 C 
BRANCH   7   8
ATOM      8  C   UNL     1       1.253  -0.008   0.000  0.00  0.00    +0.000 C 
BRANCH   8   9
ATOM      9  C   UNL     1       1.666  -0.722   0.000  0.00  0.00    +0.000 C 
ATOM     10  C   UNL     1       2.491  -0.722   0.000  0.00  0.00    +0.000 C 
ATOM     11  O   UNL     1       1.253  -1.437   0.000  0.00  0.00    +0.000 OA
ENDBRANCH   8   9
ENDBRANCH   7   8
ENDBRANCH   1   7
TORSDOF 5
