REMARK  Name = 
REMARK  16 active torsions:
REMARK  status: ('A' for Active; 'I' for Inactive)
REMARK    1  A    between atoms: C_3  and  O_7
REMARK    2  A    between atoms: C_6  and  C_11
REMARK    3  A    between atoms: O_7  and  C_8
REMARK    4  A    between atoms: C_8  and  C_9
REMARK    5  A    between atoms: C_8  and  C_25
REMARK    6  A    between atoms: C_11  and  C_12
REMARK    7  A    between atoms: C_12  and  C_13
REMARK    8  A    between atoms: C_12  and  N_19
REMARK    9  A    between atoms: N_15  and  C_16
REMARK   10  A    between atoms: C_16  and  C_17
REMARK   11  A    between atoms: C_17  and  C_18
REMARK   12  A    between atoms: C_18  and  C_32
REMARK   13  A    between atoms: C_22  and  CA_29
REMARK   14  A    between atoms: N_28  and  CA_29
REMARK   15  A    between atoms: CA_29  and  CB_31
REMARK   16  A    between atoms: CB_31  and  CG_34
REMARK                            x       y       z     vdW  Elec       q    Type
REMARK                         _______ _______ _______ _____ _____    ______ ____
ROOT
ATOM      1  C   UNK A   0       0.000   1.030   0.000  0.00  0.00    +0.000 C 
ENDROOT
BRANCH   1   2
ATOM      2  N   UNK A   0       0.710   1.440   0.000  0.00  0.00    +0.000 NA
ATOM      3  C   UNK A   0       1.430   1.030   0.000  0.00  0.00    +0.000 C 
ATOM      4  O   UNK A   0       1.430   0.200   0.000  0.00  0.00    +0.000 OA
ATOM      5  N   PHE A   1       2.140   1.440   0.000  0.00  0.00    +0.000 NA
BRANCH   5   6
ATOM      6  CA  PHE A   1       2.860   1.030   0.000  0.00  0.00    +0.000 C 
BRANCH   6   7
ATOM      7  C   PHE A   1       3.570   1.440   0.000  0.00  0.00    +0.000 C 
ATOM      8  O   PHE A   1       3.570   2.270   0.000  0.00  0.00    +0.000 OA
ATOM      9  OXT PHE A   1       4.290   1.030   0.000  0.00  0.00    +0.000 OA
ENDBRANCH   6   7
BRANCH   6  10
ATOM     10  CB  PHE A   1       2.860   0.200   0.000  0.00  0.00    +0.000 C 
BRANCH  10  11
ATOM     11  CG  PHE A   1       3.570  -0.210   0.000  0.00  0.00    +0.000 A 
ATOM     12  CD1 PHE A   1       4.290   0.200   0.000  0.00  0.00    +0.000 A 
ATOM     13  CD2 PHE A   1       3.570  -1.030   0.000  0.00  0.00    +0.000 A 
ATOM     14  CE2 PHE A   1       4.290  -1.450   0.000  0.00  0.00    +0.000 A 
ATOM     15  CZ  PHE A   1       5.000  -1.030   0.000  0.00  0.00    +0.000 A 
ATOM     16  CE1 PHE A   1       5.000  -0.210   0.000  0.00  0.00    +0.000 A 
ENDBRANCH  10  11
ENDBRANCH   6  10
ENDBRANCH   5   6
ENDBRANCH   1   2
BRANCH   1  17
ATOM     17  C   UNK A   0       0.000   0.200   0.000  0.00  0.00    +0.000 C 
ATOM     18  O   UNK A   0      -0.710  -0.210   0.000  0.00  0.00    +0.000 OA
ATOM     19  N   UNK A   0       0.710  -0.210   0.000  0.00  0.00    +0.000 NA
BRANCH  19  20
ATOM     20  C   UNK A   0       0.710  -1.030   0.000  0.00  0.00    +0.000 C 
BRANCH  20  21
ATOM     21  C   UNK A   0       1.430  -1.450   0.000  0.00  0.00    +0.000 C 
BRANCH  21  22
ATOM     22  C   UNK A   0       2.140  -1.030   0.000  0.00  0.00    +0.000 C 
BRANCH  22  23
ATOM     23  C   UNK A   0       2.860  -1.450   0.000  0.00  0.00    +0.000 C 
ATOM     24  C   UNK A   0       2.860  -2.270   0.000  0.00  0.00    +0.000 C 
ENDBRANCH  22  23
ENDBRANCH  21  22
ENDBRANCH  20  21
ENDBRANCH  19  20
ENDBRANCH   1  17
BRANCH   1  25
ATOM     25  C   UNK A   0      -0.710   1.440   0.000  0.00  0.00    +0.000 C 
BRANCH  25  31
ATOM     26  C   UNK A   0      -2.140   1.440   0.000  0.00  0.00    +0.000 A 
ATOM     27  C   UNK A   0      -2.860   1.030   0.000  0.00  0.00    +0.000 A 
ATOM     28  C   UNK A   0      -2.860   0.200   0.000  0.00  0.00    +0.000 A 
ATOM     29  C   UNK A   0      -2.140  -0.210   0.000  0.00  0.00    +0.000 A 
ATOM     30  C   UNK A   0      -1.430   0.200   0.000  0.00  0.00    +0.000 A 
ATOM     31  C   UNK A   0      -1.430   1.030   0.000  0.00  0.00    +0.000 A 
BRANCH  28  32
ATOM     32  O   UNK A   0      -3.570  -0.210   0.000  0.00  0.00    +0.000 OA
BRANCH  32  33
ATOM     33  C   UNK A   0      -3.570  -1.030   0.000  0.00  0.00    +0.000 C 
BRANCH  33  34
ATOM     34  C   UNK A   0      -4.290  -1.450   0.000  0.00  0.00    +0.000 C 
ATOM     35  O   UNK A   0      -4.290  -2.270   0.000  0.00  0.00    +0.000 OA
ATOM     36  O   UNK A   0      -5.000  -1.030   0.000  0.00  0.00    +0.000 OA
ENDBRANCH  33  34
BRANCH  33  37
ATOM     37  C   UNK A   0      -2.860  -1.450   0.000  0.00  0.00    +0.000 C 
ATOM     38  O   UNK A   0      -2.860  -2.270   0.000  0.00  0.00    +0.000 OA
ATOM     39  O   UNK A   0      -2.140  -1.030   0.000  0.00  0.00    +0.000 OA
ENDBRANCH  33  37
ENDBRANCH  32  33
ENDBRANCH  28  32
ENDBRANCH  25  31
ENDBRANCH   1  25
TORSDOF 16
