REMARK  Name = 
REMARK  7 active torsions:
REMARK  status: ('A' for Active; 'I' for Inactive)
REMARK    1  A    between atoms: C_2  and  O_4
REMARK    2  A    between atoms: O_4  and  C_5
REMARK    3  A    between atoms: C_7  and  O_26
REMARK    4  A    between atoms: N_15  and  C_16
REMARK    5  A    between atoms: O_26  and  C_27
REMARK    6  A    between atoms: C_27  and  C_28
REMARK    7  A    between atoms: C_28  and  N_29
REMARK                            x       y       z     vdW  Elec       q    Type
REMARK                         _______ _______ _______ _____ _____    ______ ____
ROOT
ATOM      1  C   UNL     1       1.850   6.188   0.000  0.00  0.00    +0.000 A 
ATOM      2  C   UNL     1       1.850   7.013   0.000  0.00  0.00    +0.000 A 
ATOM      3  C   UNL     1       1.135   7.425   0.000  0.00  0.00    +0.000 A 
ATOM      4  C   UNL     1       0.421   7.013   0.000  0.00  0.00    +0.000 A 
ATOM      5  C   UNL     1       0.421   6.188   0.000  0.00  0.00    +0.000 A 
ATOM      6  C   UNL     1       1.135   5.775   0.000  0.00  0.00    +0.000 A 
ATOM      7  C   UNL     1       1.135   4.950   0.000  0.00  0.00    +0.000 A 
ATOM      8  N   UNL     1       0.421   4.537   0.000  0.00  0.00    +0.000 NA
ATOM      9  C   UNL     1      -0.293   4.950   0.000  0.00  0.00    +0.000 A 
ATOM     10  N   UNL     1      -0.293   5.775   0.000  0.00  0.00    +0.000 NA
ATOM     11  N   UNL     1       1.850   4.537   0.000  0.00  0.00    +0.000 NA
ENDROOT
BRANCH  11  12
ATOM     12  C   UNL     1       1.850   3.712   0.000  0.00  0.00    +0.000 A 
ATOM     13  C   UNL     1       2.564   3.300   0.000  0.00  0.00    +0.000 A 
ATOM     14  C   UNL     1       2.564   2.475   0.000  0.00  0.00    +0.000 A 
ATOM     15  N   UNL     1       1.850   2.062   0.000  0.00  0.00    +0.000 NA
ATOM     16  C   UNL     1       1.135   2.475   0.000  0.00  0.00    +0.000 A 
ATOM     17  C   UNL     1       1.135   3.300   0.000  0.00  0.00    +0.000 A 
ATOM     18  O   UNL     1       0.351   3.555   0.000  0.00  0.00    +0.000 OA
ATOM     19  C   UNL     1      -0.134   2.888   0.000  0.00  0.00    +0.000 C 
ATOM     20  O   UNL     1       0.351   2.220   0.000  0.00  0.00    +0.000 OA
ATOM     21 CL   UNL     1       3.279   3.712   0.000  0.00  0.00    +0.000 Cl
ENDBRANCH  11  12
BRANCH   1  22
ATOM     22  O   UNL     1       2.564   5.775   0.000  0.00  0.00    +0.000 OA
BRANCH  22  24
ATOM     23  C   UNL     1       3.993   5.775   0.000  0.00  0.00    +0.000 C 
ATOM     24  C   UNL     1       3.279   6.188   0.000  0.00  0.00    +0.000 C 
ATOM     25  C   UNL     1       3.279   7.013   0.000  0.00  0.00    +0.000 C 
ENDBRANCH  22  24
ENDBRANCH   1  22
BRANCH   3  26
ATOM     26  O   UNL     1       1.135   8.250   0.000  0.00  0.00    +0.000 OA
BRANCH  26  27
ATOM     27  C   UNL     1       1.850   8.662   0.000  0.00  0.00    +0.000 C 
BRANCH  27  28
ATOM     28  C   UNL     1       1.850   9.488   0.000  0.00  0.00    +0.000 C 
BRANCH  28  29
ATOM     29  N   UNL     1       2.564   9.900   0.000  0.00  0.00    +0.000 NA
ATOM     30  C   UNL     1       2.564  10.725   0.000  0.00  0.00    +0.000 C 
ATOM     31  C   UNL     1       3.279  11.137   0.000  0.00  0.00    +0.000 C 
ATOM     32  N   UNL     1       3.993  10.725   0.000  0.00  0.00    +0.000 N 
ATOM     33  C   UNL     1       3.993   9.900   0.000  0.00  0.00    +0.000 C 
ATOM     34  C   UNL     1       3.279   9.488   0.000  0.00  0.00    +0.000 C 
ATOM     35  C   UNL     1       4.708  11.137   0.000  0.00  0.00    +0.000 C 
ATOM     36  O   UNL     1       4.708  11.963   0.000  0.00  0.00    +0.000 OA
ATOM     37  C   UNL     1       5.422  10.725   0.000  0.00  0.00    +0.000 C 
ENDBRANCH  28  29
ENDBRANCH  27  28
ENDBRANCH  26  27
ENDBRANCH   3  26
TORSDOF 7
