REMARK  Name = 
REMARK  1 active torsions:
REMARK  status: ('A' for Active; 'I' for Inactive)
REMARK    1  A    between atoms: S_1  and  S_2
REMARK                            x       y       z     vdW  Elec       q    Type
REMARK                         _______ _______ _______ _____ _____    ______ ____
ROOT
ATOM      1  S   UNL     1       0.825   0.000   0.000  0.00  0.00    +0.000 S 
ATOM      2 CL   UNL     1       0.000   0.000   0.000  0.00  0.00    +0.000 Cl
ENDROOT
BRANCH   1   3
ATOM      3  S   UNL     1       1.238  -0.715   0.000  0.00  0.00    +0.000 S 
ATOM      4 CL   UNL     1       2.062  -0.715   0.000  0.00  0.00    +0.000 Cl
ENDBRANCH   1   3
TORSDOF 1
