REMARK  Name = 
REMARK  31 active torsions:
REMARK  status: ('A' for Active; 'I' for Inactive)
REMARK    1  A    between atoms: C_2  and  C_3
REMARK    2  A    between atoms: C_3  and  C_4
REMARK    3  A    between atoms: C_7  and  N_8
REMARK    4  A    between atoms: C_17  and  C_18
REMARK    5  A    between atoms: C_18  and  C_19
REMARK    6  A    between atoms: C_22  and  N_23
REMARK    7  A    between atoms: C_24  and  C_26
REMARK    8  A    between atoms: C_39  and  N_80
REMARK    9  A    between atoms: C_44  and  C_65
REMARK   10  A    between atoms: C_48  and  C_62
REMARK   11  A    between atoms: C_53  and  C_54
REMARK   12  A    between atoms: C_54  and  C_55
REMARK   13  A    between atoms: C_55  and  C_56
REMARK   14  A    between atoms: C_56  and  C_57
REMARK   15  A    between atoms: N_67  and  C_68
REMARK   16  A    between atoms: C_68  and  C_69
REMARK   17  A    between atoms: C_68  and  C_77
REMARK   18  A    between atoms: C_69  and  C_70
REMARK   19  A    between atoms: C_81  and  C_83
REMARK   20  A    between atoms: C_83  and  C_84
REMARK   21  A    between atoms: C_83  and  N_92
REMARK   22  A    between atoms: C_84  and  C_85
REMARK   23  A    between atoms: C_93  and  C_95
REMARK   24  A    between atoms: C_95  and  C_96
REMARK   25  A    between atoms: C_96  and  C_97
REMARK   26  A    between atoms: C_97  and  N_98
REMARK   27  A    between atoms: C_97  and  C_115
REMARK   28  A    between atoms: N_101  and  C_102
REMARK   29  A    between atoms: C_102  and  C_103
REMARK   30  A    between atoms: N_108  and  C_109
REMARK   31  A    between atoms: C_109  and  C_110
REMARK                            x       y       z     vdW  Elec       q    Type
REMARK                         _______ _______ _______ _____ _____    ______ ____
ROOT
ATOM      1  C   UNL     1       3.093   5.759   0.000  0.00  0.00    +0.000 C 
ATOM      2  N   UNL     1       3.852   6.081   0.000  0.00  0.00    +0.000 NA
ATOM      3  C   UNL     1       4.511   5.584   0.000  0.00  0.00    +0.000 C 
ATOM      4  O   UNL     1       5.271   5.905   0.000  0.00  0.00    +0.000 OA
ATOM      5  C   UNL     1       4.409   4.765   0.000  0.00  0.00    +0.000 C 
ATOM      6  N   UNL     1       3.650   4.444   0.000  0.00  0.00    +0.000 NA
ATOM      7  C   UNL     1       3.548   3.625   0.000  0.00  0.00    +0.000 C 
ATOM      8  O   UNL     1       4.207   3.128   0.000  0.00  0.00    +0.000 OA
ATOM      9  C   UNL     1       2.788   3.303   0.000  0.00  0.00    +0.000 C 
ATOM     10  C   UNL     1       2.687   2.485   0.000  0.00  0.00    +0.000 C 
ATOM     11  S   UNL     1       1.927   2.163   0.000  0.00  0.00    +0.000 S 
ATOM     12  S   UNL     1       1.826   1.344   0.000  0.00  0.00    +0.000 S 
ATOM     13  C   UNL     1       1.066   1.022   0.000  0.00  0.00    +0.000 C 
ATOM     14  C   UNL     1       0.408   1.520   0.000  0.00  0.00    +0.000 C 
ATOM     15  N   UNL     1       0.509   2.338   0.000  0.00  0.00    +0.000 NA
ATOM     16  C   UNL     1      -0.149   2.836   0.000  0.00  0.00    +0.000 C 
ATOM     17  O   UNL     1      -0.909   2.514   0.000  0.00  0.00    +0.000 OA
ATOM     18  C   UNL     1      -0.048   3.654   0.000  0.00  0.00    +0.000 C 
ATOM     19  N   UNL     1       0.712   3.976   0.000  0.00  0.00    +0.000 NA
ATOM     20  C   UNL     1       0.813   4.795   0.000  0.00  0.00    +0.000 C 
ATOM     21  O   UNL     1       0.155   5.292   0.000  0.00  0.00    +0.000 OA
ATOM     22  C   UNL     1       1.573   5.116   0.000  0.00  0.00    +0.000 C 
ATOM     23  N   UNL     1       1.675   5.935   0.000  0.00  0.00    +0.000 NA
ATOM     24  C   UNL     1       2.434   6.257   0.000  0.00  0.00    +0.000 C 
ATOM     25  O   UNL     1       2.536   7.075   0.000  0.00  0.00    +0.000 OA
ENDROOT
BRANCH  18  26
ATOM     26  C   UNL     1      -0.706   4.152   0.000  0.00  0.00    +0.000 C 
ATOM     27  C   UNL     1      -1.466   3.830   0.000  0.00  0.00    +0.000 C 
ATOM     28  O   UNL     1      -0.605   4.970   0.000  0.00  0.00    +0.000 OA
ENDBRANCH  18  26
BRANCH  14  29
ATOM     29  C   UNL     1      -0.352   1.198   0.000  0.00  0.00    +0.000 C 
ATOM     30  O   UNL     1      -1.010   1.695   0.000  0.00  0.00    +0.000 OA
ATOM     31  N   UNL     1      -0.453   0.379   0.000  0.00  0.00    +0.000 NA
BRANCH  31  32
ATOM     32  C   UNL     1      -1.213   0.058   0.000  0.00  0.00    +0.000 C 
BRANCH  32  33
ATOM     33  C   UNL     1      -1.314  -0.761   0.000  0.00  0.00    +0.000 C 
ATOM     34  N   UNL     1      -0.656  -1.258   0.000  0.00  0.00    +0.000 NA
ATOM     35  O   UNL     1      -2.074  -1.083   0.000  0.00  0.00    +0.000 OA
ENDBRANCH  32  33
BRANCH  32  36
ATOM     36  C   UNL     1      -1.871   0.555   0.000  0.00  0.00    +0.000 C 
BRANCH  36  37
ATOM     37  C   UNL     1      -2.631   0.233   0.000  0.00  0.00    +0.000 A 
ATOM     38  C   UNL     1      -2.732  -0.585   0.000  0.00  0.00    +0.000 A 
ATOM     39  C   UNL     1      -3.492  -0.907   0.000  0.00  0.00    +0.000 A 
ATOM     40  C   UNL     1      -4.151  -0.410   0.000  0.00  0.00    +0.000 A 
ATOM     41  O   UNL     1      -4.910  -0.731   0.000  0.00  0.00    +0.000 OA
ATOM     42  C   UNL     1      -4.049   0.409   0.000  0.00  0.00    +0.000 A 
ATOM     43  C   UNL     1      -3.289   0.731   0.000  0.00  0.00    +0.000 A 
ENDBRANCH  36  37
ENDBRANCH  32  36
ENDBRANCH  31  32
ENDBRANCH  14  29
BRANCH   9  44
ATOM     44  N   UNL     1       3.447   2.806   0.000  0.00  0.00    +0.000 NA
ATOM     45  C   UNL     1       4.194   2.457   0.000  0.00  0.00    +0.000 C 
ATOM     46  O   UNL     1       4.870   2.929   0.000  0.00  0.00    +0.000 OA
BRANCH  45  47
ATOM     47  C   UNL     1       4.265   1.635   0.000  0.00  0.00    +0.000 C 
BRANCH  47  48
ATOM     48  N   UNL     1       4.987   2.034   0.000  0.00  0.00    +0.000 NA
ATOM     49  C   UNL     1       5.694   1.608   0.000  0.00  0.00    +0.000 C 
ATOM     50  O   UNL     1       5.679   0.783   0.000  0.00  0.00    +0.000 OA
BRANCH  49  51
ATOM     51  C   UNL     1       6.416   2.008   0.000  0.00  0.00    +0.000 C 
BRANCH  51  52
ATOM     52  C   UNL     1       7.123   1.582   0.000  0.00  0.00    +0.000 C 
BRANCH  52  53
ATOM     53  C   UNL     1       7.845   1.981   0.000  0.00  0.00    +0.000 C 
BRANCH  53  54
ATOM     54  N   UNL     1       8.551   1.556   0.000  0.00  0.00    +0.000 NA
ATOM     55  C   UNL     1       9.193   2.074   0.000  0.00  0.00    +0.000 C 
ATOM     56  C   UNL     1      10.018   2.059   0.000  0.00  0.00    +0.000 C 
ATOM     57  N   UNL     1      10.640   1.517   0.000  0.00  0.00    +0.000 NA
ATOM     58  C   UNL     1      10.768   0.702   0.000  0.00  0.00    +0.000 C 
ATOM     59  C   UNL     1      10.343  -0.005   0.000  0.00  0.00    +0.000 C 
ATOM     60  N   UNL     1       9.562  -0.273   0.000  0.00  0.00    +0.000 NA
ATOM     61  C   UNL     1       8.792   0.024   0.000  0.00  0.00    +0.000 C 
ATOM     62  C   UNL     1       8.393   0.746   0.000  0.00  0.00    +0.000 C 
BRANCH  57  63
ATOM     63  C   UNL     1      11.362   1.916   0.000  0.00  0.00    +0.000 C 
BRANCH  63  64
ATOM     64  C   UNL     1      12.069   1.491   0.000  0.00  0.00    +0.000 C 
ATOM     65  O   UNL     1      12.791   1.890   0.000  0.00  0.00    +0.000 OA
ATOM     66  O   UNL     1      12.053   0.666   0.000  0.00  0.00    +0.000 OA
ENDBRANCH  63  64
ENDBRANCH  57  63
BRANCH  60  67
ATOM     67  C   UNL     1       9.547  -1.097   0.000  0.00  0.00    +0.000 C 
BRANCH  67  68
ATOM     68  C   UNL     1      10.254  -1.523   0.000  0.00  0.00    +0.000 C 
ATOM     69  O   UNL     1      10.976  -1.124   0.000  0.00  0.00    +0.000 OA
ATOM     70  O   UNL     1      10.239  -2.348   0.000  0.00  0.00    +0.000 OA
ENDBRANCH  67  68
ENDBRANCH  60  67
ENDBRANCH  53  54
BRANCH  53  71
ATOM     71  C   UNL     1       7.860   2.806   0.000  0.00  0.00    +0.000 C 
ATOM     72  O   UNL     1       8.582   3.205   0.000  0.00  0.00    +0.000 OA
ATOM     73  O   UNL     1       7.153   3.232   0.000  0.00  0.00    +0.000 OA
ENDBRANCH  53  71
ENDBRANCH  52  53
ENDBRANCH  51  52
ENDBRANCH  49  51
ENDBRANCH  47  48
BRANCH  47  74
ATOM     74  C   UNL     1       4.250   0.810   0.000  0.00  0.00    +0.000 C 
BRANCH  74  75
ATOM     75  C   UNL     1       3.528   0.411   0.000  0.00  0.00    +0.000 A 
ATOM     76  C   UNL     1       3.513  -0.414   0.000  0.00  0.00    +0.000 A 
ATOM     77  C   UNL     1       2.791  -0.814   0.000  0.00  0.00    +0.000 A 
ATOM     78  C   UNL     1       2.084  -0.388   0.000  0.00  0.00    +0.000 A 
ATOM     79 CL   UNL     1       1.362  -0.787   0.000  0.00  0.00    +0.000 Cl
ATOM     80  C   UNL     1       2.099   0.437   0.000  0.00  0.00    +0.000 A 
ATOM     81  C   UNL     1       2.821   0.836   0.000  0.00  0.00    +0.000 A 
ENDBRANCH  74  75
ENDBRANCH  47  74
ENDBRANCH  45  47
ENDBRANCH   9  44
BRANCH  22  82
ATOM     82  C   UNL     1       0.915   5.613   0.000  0.00  0.00    +0.000 C 
BRANCH  82  83
ATOM     83  C   UNL     1       1.016   6.432   0.000  0.00  0.00    +0.000 C 
BRANCH  83  84
ATOM     84  C   UNL     1       1.776   6.754   0.000  0.00  0.00    +0.000 C 
BRANCH  84  85
ATOM     85  C   UNL     1       1.877   7.572   0.000  0.00  0.00    +0.000 C 
ATOM     86  N   UNL     1       1.219   8.070   0.000  0.00  0.00    +0.000 NA
ENDBRANCH  84  85
ENDBRANCH  83  84
ENDBRANCH  82  83
ENDBRANCH  22  82
BRANCH   1  87
ATOM     87  C   UNL     1       3.194   6.578   0.000  0.00  0.00    +0.000 C 
BRANCH  87  88
ATOM     88  C   UNL     1       3.954   6.900   0.000  0.00  0.00    +0.000 A 
ATOM     89  C   UNL     1       4.055   7.718   0.000  0.00  0.00    +0.000 A 
ATOM     90  C   UNL     1       4.815   8.040   0.000  0.00  0.00    +0.000 A 
ATOM     91  C   UNL     1       5.473   7.543   0.000  0.00  0.00    +0.000 A 
ATOM     92  C   UNL     1       5.372   6.724   0.000  0.00  0.00    +0.000 A 
ATOM     93  C   UNL     1       4.612   6.403   0.000  0.00  0.00    +0.000 A 
BRANCH  91  94
ATOM     94  N   UNL     1       6.233   7.864   0.000  0.00  0.00    +0.000 NA
ATOM     95  C   UNL     1       6.334   8.683   0.000  0.00  0.00    +0.000 C 
ATOM     96  N   UNL     1       5.676   9.181   0.000  0.00  0.00    +0.000 NA
ATOM     97  O   UNL     1       7.094   9.005   0.000  0.00  0.00    +0.000 OA
ENDBRANCH  91  94
ENDBRANCH  87  88
ENDBRANCH   1  87
BRANCH   5  98
ATOM     98  C   UNL     1       5.068   4.268   0.000  0.00  0.00    +0.000 C 
BRANCH  98  99
ATOM     99  C   UNL     1       5.827   4.590   0.000  0.00  0.00    +0.000 A 
ATOM    100  C   UNL     1       5.929   5.408   0.000  0.00  0.00    +0.000 A 
ATOM    101  C   UNL     1       6.689   5.730   0.000  0.00  0.00    +0.000 A 
ATOM    102  C   UNL     1       7.347   5.233   0.000  0.00  0.00    +0.000 A 
ATOM    103  C   UNL     1       7.246   4.414   0.000  0.00  0.00    +0.000 A 
ATOM    104  C   UNL     1       6.486   4.092   0.000  0.00  0.00    +0.000 A 
BRANCH 102 105
ATOM    105  N   UNL     1       8.107   5.554   0.000  0.00  0.00    +0.000 NA
ATOM    106  C   UNL     1       8.765   5.057   0.000  0.00  0.00    +0.000 C 
ATOM    107  O   UNL     1       8.664   4.238   0.000  0.00  0.00    +0.000 OA
BRANCH 106 108
ATOM    108  C   UNL     1       9.525   5.379   0.000  0.00  0.00    +0.000 C 
ATOM    109  C   UNL     1      10.183   4.882   0.000  0.00  0.00    +0.000 C 
ATOM    110  C   UNL     1      10.943   5.203   0.000  0.00  0.00    +0.000 C 
ATOM    111  O   UNL     1      11.601   4.706   0.000  0.00  0.00    +0.000 OA
ATOM    112  N   UNL     1      11.044   6.022   0.000  0.00  0.00    +0.000 NA
ATOM    113  C   UNL     1      10.386   6.519   0.000  0.00  0.00    +0.000 C 
ATOM    114  O   UNL     1      10.487   7.338   0.000  0.00  0.00    +0.000 OA
ATOM    115  N   UNL     1       9.626   6.197   0.000  0.00  0.00    +0.000 NA
ENDBRANCH 106 108
ENDBRANCH 102 105
ENDBRANCH  98  99
ENDBRANCH   5  98
TORSDOF 31
