REMARK  Name = 
REMARK  6 active torsions:
REMARK  status: ('A' for Active; 'I' for Inactive)
REMARK    1  A    between atoms: C_4  and  C_9
REMARK    2  A    between atoms: N_11  and  C_12
REMARK    3  A    between atoms: C_15  and  N_18
REMARK    4  A    between atoms: C_19  and  C_21
REMARK    5  A    between atoms: C_22  and  O_28
REMARK    6  A    between atoms: O_28  and  C_29
REMARK                            x       y       z     vdW  Elec       q    Type
REMARK                         _______ _______ _______ _____ _____    ______ ____
ROOT
ATOM      1  N   UNL     1       1.429  -9.075   0.000  0.00  0.00    +0.000 NA
ATOM      2  C   UNL     1       2.143  -8.662   0.000  0.00  0.00    +0.000 C 
ATOM      3  O   UNL     1       2.143  -7.838   0.000  0.00  0.00    +0.000 OA
ENDROOT
BRANCH   2   4
ATOM      4  C   UNL     1       2.858  -9.075   0.000  0.00  0.00    +0.000 A 
ATOM      5  C   UNL     1       3.572  -8.662   0.000  0.00  0.00    +0.000 A 
ATOM      6  N   UNL     1       4.287  -9.075   0.000  0.00  0.00    +0.000 NA
ATOM      7  C   UNL     1       4.287  -9.900   0.000  0.00  0.00    +0.000 A 
ATOM      8  C   UNL     1       3.572 -10.312   0.000  0.00  0.00    +0.000 A 
ATOM      9  C   UNL     1       2.858  -9.900   0.000  0.00  0.00    +0.000 A 
ATOM     10  F   UNL     1       3.572 -11.137   0.000  0.00  0.00    +0.000 F 
BRANCH   5  11
ATOM     11  O   UNL     1       3.572  -7.838   0.000  0.00  0.00    +0.000 OA
BRANCH  11  12
ATOM     12  C   UNL     1       4.287  -7.425   0.000  0.00  0.00    +0.000 A 
ATOM     13  C   UNL     1       4.287  -6.600   0.000  0.00  0.00    +0.000 A 
ATOM     14  C   UNL     1       5.001  -6.188   0.000  0.00  0.00    +0.000 A 
ATOM     15  C   UNL     1       5.716  -6.600   0.000  0.00  0.00    +0.000 A 
ATOM     16  C   UNL     1       5.716  -7.425   0.000  0.00  0.00    +0.000 A 
ATOM     17  C   UNL     1       5.001  -7.838   0.000  0.00  0.00    +0.000 A 
ATOM     18  F   UNL     1       6.430  -6.188   0.000  0.00  0.00    +0.000 F 
ATOM     19  F   UNL     1       5.001  -5.362   0.000  0.00  0.00    +0.000 F 
ENDBRANCH  11  12
ENDBRANCH   5  11
ENDBRANCH   2   4
BRANCH   1  23
ATOM     20  C   UNL     1      -0.715  -7.838   0.000  0.00  0.00    +0.000 C 
ATOM     21  C   UNL     1       0.000  -7.425   0.000  0.00  0.00    +0.000 C 
ATOM     22  C   UNL     1       0.715  -7.838   0.000  0.00  0.00    +0.000 C 
ATOM     23  C   UNL     1       0.715  -8.662   0.000  0.00  0.00    +0.000 C 
ATOM     24  C   UNL     1       0.000  -9.075   0.000  0.00  0.00    +0.000 C 
ATOM     25  C   UNL     1      -0.715  -8.662   0.000  0.00  0.00    +0.000 C 
BRANCH  20  28
ATOM     26  C   UNL     1      -2.143  -7.838   0.000  0.00  0.00    +0.000 C 
ATOM     27  O   UNL     1      -2.143  -8.662   0.000  0.00  0.00    +0.000 OA
ATOM     28  N   UNL     1      -1.429  -7.425   0.000  0.00  0.00    +0.000 NA
BRANCH  26  32
ATOM     29  C   UNL     1      -3.572  -5.362   0.000  0.00  0.00    +0.000 C 
ATOM     30  C   UNL     1      -3.572  -6.188   0.000  0.00  0.00    +0.000 A 
ATOM     31  C   UNL     1      -2.858  -6.600   0.000  0.00  0.00    +0.000 A 
ATOM     32  C   UNL     1      -2.858  -7.425   0.000  0.00  0.00    +0.000 A 
ATOM     33  C   UNL     1      -3.572  -7.838   0.000  0.00  0.00    +0.000 A 
ATOM     34  C   UNL     1      -4.287  -7.425   0.000  0.00  0.00    +0.000 A 
ATOM     35  C   UNL     1      -4.287  -6.600   0.000  0.00  0.00    +0.000 A 
ATOM     36  O   UNL     1      -3.572  -8.662   0.000  0.00  0.00    +0.000 OA
ENDBRANCH  26  32
ENDBRANCH  20  28
ENDBRANCH   1  23
TORSDOF 6
