REMARK  Name = 
REMARK  7 active torsions:
REMARK  status: ('A' for Active; 'I' for Inactive)
REMARK    1  A    between atoms: C_5  and  C_75
REMARK    2  A    between atoms: C_10  and  N_11
REMARK    3  A    between atoms: C_12  and  C_14
REMARK    4  A    between atoms: C_37  and  C_71
REMARK    5  A    between atoms: C_42  and  N_58
REMARK    6  A    between atoms: C_52  and  S_53
REMARK    7  A    between atoms: C_59  and  C_61
REMARK                            x       y       z     vdW  Elec       q    Type
REMARK                         _______ _______ _______ _____ _____    ______ ____
ROOT
ATOM      1  O   UNL     1       0.273   1.464   0.000  0.00  0.00    +0.000 OA
ATOM      2  C   UNL     1       0.654   2.194   0.000  0.00  0.00    +0.000 C 
ATOM      3  N   UNL     1       1.417   2.510   0.000  0.00  0.00    +0.000 N 
ATOM      4  C   UNL     1       1.522   3.328   0.000  0.00  0.00    +0.000 C 
ATOM      5  C   UNL     1       2.069   2.008   0.000  0.00  0.00    +0.000 C 
ATOM      6  C   UNL     1       1.958   1.195   0.000  0.00  0.00    +0.000 C 
ATOM      7  O   UNL     1       1.196   0.874   0.000  0.00  0.00    +0.000 OA
ATOM      8  O   UNL     1       2.611   0.688   0.000  0.00  0.00    +0.000 OA
ATOM      9  C   UNL     1       2.500  -0.126   0.000  0.00  0.00    +0.000 C 
ATOM     10  C   UNL     1       3.152  -0.632   0.000  0.00  0.00    +0.000 C 
ATOM     11  C   UNL     1       3.047  -1.446   0.000  0.00  0.00    +0.000 C 
ATOM     12  O   UNL     1       3.694  -1.948   0.000  0.00  0.00    +0.000 OA
ATOM     13  N   UNL     1       2.285  -1.762   0.000  0.00  0.00    +0.000 NA
ATOM     14  C   UNL     1       2.174  -2.580   0.000  0.00  0.00    +0.000 C 
ATOM     15  C   UNL     1       1.417  -2.891   0.000  0.00  0.00    +0.000 C 
ATOM     16  O   UNL     1       1.306  -3.705   0.000  0.00  0.00    +0.000 OA
ATOM     17  N   UNL     1       0.760  -2.389   0.000  0.00  0.00    +0.000 N 
ATOM     18  C   UNL     1       0.843  -1.776   0.000  0.00  0.00    +0.000 C 
ATOM     19  C   UNL     1      -0.003  -2.706   0.000  0.00  0.00    +0.000 C 
ATOM     20  C   UNL     1      -0.654  -2.199   0.000  0.00  0.00    +0.000 C 
ATOM     21  O   UNL     1      -0.544  -1.385   0.000  0.00  0.00    +0.000 OA
ATOM     22  N   UNL     1      -1.417  -2.515   0.000  0.00  0.00    +0.000 N 
ATOM     23  C   UNL     1      -1.522  -3.333   0.000  0.00  0.00    +0.000 C 
ATOM     24  C   UNL     1      -2.064  -2.013   0.000  0.00  0.00    +0.000 C 
ATOM     25  C   UNL     1      -1.958  -1.195   0.000  0.00  0.00    +0.000 C 
ATOM     26  O   UNL     1      -1.201  -0.883   0.000  0.00  0.00    +0.000 OA
ATOM     27  O   UNL     1      -2.610  -0.693   0.000  0.00  0.00    +0.000 OA
ATOM     28  C   UNL     1      -2.505   0.126   0.000  0.00  0.00    +0.000 C 
ATOM     29  C   UNL     1      -3.152   0.623   0.000  0.00  0.00    +0.000 C 
ATOM     30  C   UNL     1      -3.047   1.446   0.000  0.00  0.00    +0.000 C 
ATOM     31  O   UNL     1      -3.699   1.943   0.000  0.00  0.00    +0.000 OA
ATOM     32  N   UNL     1      -2.285   1.757   0.000  0.00  0.00    +0.000 NA
ATOM     33  C   UNL     1      -2.174   2.575   0.000  0.00  0.00    +0.000 C 
ATOM     34  C   UNL     1      -1.417   2.887   0.000  0.00  0.00    +0.000 C 
ATOM     35  O   UNL     1      -1.306   3.705   0.000  0.00  0.00    +0.000 OA
ATOM     36  N   UNL     1      -0.760   2.385   0.000  0.00  0.00    +0.000 N 
ATOM     37  C   UNL     1      -0.870   1.571   0.000  0.00  0.00    +0.000 C 
ATOM     38  C   UNL     1      -0.003   2.701   0.000  0.00  0.00    +0.000 C 
ATOM     39  C   UNL     1      -1.233   0.653   0.000  0.00  0.00    +0.000 C 
ATOM     40  S   UNL     1      -1.135  -0.219   0.000  0.00  0.00    +0.000 S 
ATOM     41  C   UNL     1       0.593  -1.413   0.000  0.00  0.00    +0.000 C 
ATOM     42  C   UNL     1      -2.831   3.077   0.000  0.00  0.00    +0.000 C 
ATOM     43  C   UNL     1       2.831  -3.082   0.000  0.00  0.00    +0.000 C 
ENDROOT
BRANCH  29  44
ATOM     44  N   UNL     1      -3.920   0.311   0.000  0.00  0.00    +0.000 NA
ATOM     45  C   UNL     1      -4.566   0.813   0.000  0.00  0.00    +0.000 C 
ATOM     46  O   UNL     1      -4.461   1.631   0.000  0.00  0.00    +0.000 OA
BRANCH  45  47
ATOM     47  C   UNL     1      -5.329   0.497   0.000  0.00  0.00    +0.000 A 
ATOM     48  N   UNL     1      -5.986   1.004   0.000  0.00  0.00    +0.000 NA
ATOM     49  C   UNL     1      -6.741   0.688   0.000  0.00  0.00    +0.000 A 
ATOM     50  C   UNL     1      -6.850  -0.126   0.000  0.00  0.00    +0.000 A 
ATOM     51  N   UNL     1      -6.197  -0.632   0.000  0.00  0.00    +0.000 NA
ATOM     52  C   UNL     1      -5.439  -0.316   0.000  0.00  0.00    +0.000 A 
ATOM     53  C   UNL     1      -7.616  -0.442   0.000  0.00  0.00    +0.000 A 
ATOM     54  C   UNL     1      -8.268   0.060   0.000  0.00  0.00    +0.000 A 
ATOM     55  C   UNL     1      -8.158   0.874   0.000  0.00  0.00    +0.000 A 
ATOM     56  C   UNL     1      -7.400   1.195   0.000  0.00  0.00    +0.000 A 
ENDBRANCH  45  47
ENDBRANCH  29  44
BRANCH  10  57
ATOM     57  N   UNL     1       3.920  -0.316   0.000  0.00  0.00    +0.000 NA
ATOM     58  C   UNL     1       4.567  -0.823   0.000  0.00  0.00    +0.000 C 
ATOM     59  O   UNL     1       4.461  -1.636   0.000  0.00  0.00    +0.000 OA
BRANCH  58  60
ATOM     60  C   UNL     1       5.329  -0.502   0.000  0.00  0.00    +0.000 A 
ATOM     61  N   UNL     1       5.981  -1.009   0.000  0.00  0.00    +0.000 NA
ATOM     62  C   UNL     1       6.744  -0.693   0.000  0.00  0.00    +0.000 A 
ATOM     63  C   UNL     1       6.854   0.126   0.000  0.00  0.00    +0.000 A 
ATOM     64  N   UNL     1       6.202   0.623   0.000  0.00  0.00    +0.000 NA
ATOM     65  C   UNL     1       5.439   0.311   0.000  0.00  0.00    +0.000 A 
ATOM     66  C   UNL     1       7.616   0.437   0.000  0.00  0.00    +0.000 A 
ATOM     67  C   UNL     1       8.268  -0.065   0.000  0.00  0.00    +0.000 A 
ATOM     68  C   UNL     1       8.158  -0.883   0.000  0.00  0.00    +0.000 A 
ATOM     69  C   UNL     1       7.400  -1.195   0.000  0.00  0.00    +0.000 A 
ENDBRANCH  58  60
ENDBRANCH  10  57
BRANCH  24  70
ATOM     70  C   UNL     1      -2.831  -2.324   0.000  0.00  0.00    +0.000 C 
ATOM     71  C   UNL     1      -2.937  -3.143   0.000  0.00  0.00    +0.000 C 
ATOM     72  C   UNL     1      -3.478  -1.822   0.000  0.00  0.00    +0.000 C 
ENDBRANCH  24  70
BRANCH   5  73
ATOM     73  C   UNL     1       2.831   2.319   0.000  0.00  0.00    +0.000 C 
ATOM     74  C   UNL     1       2.937   3.138   0.000  0.00  0.00    +0.000 C 
ATOM     75  C   UNL     1       3.478   1.817   0.000  0.00  0.00    +0.000 C 
ENDBRANCH   5  73
BRANCH  39  76
ATOM     76  S   UNL     1      -0.210   0.672   0.000  0.00  0.00    +0.000 S 
ATOM     77  C   UNL     1       0.372  -0.172   0.000  0.00  0.00    +0.000 C 
ENDBRANCH  39  76
TORSDOF 7
