REMARK  Name = 
REMARK  10 active torsions:
REMARK  status: ('A' for Active; 'I' for Inactive)
REMARK    1  A    between atoms: C_1  and  O_28
REMARK    2  A    between atoms: C_4  and  C_17
REMARK    3  A    between atoms: C_5  and  N_9
REMARK    4  A    between atoms: C_17  and  O_18
REMARK    5  A    between atoms: O_18  and  P_23
REMARK    6  A    between atoms: O_19  and  P_23
REMARK    7  A    between atoms: O_19  and  P_25
REMARK    8  A    between atoms: O_28  and  P_33
REMARK    9  A    between atoms: O_29  and  P_33
REMARK   10  A    between atoms: O_29  and  P_35
REMARK                            x       y       z     vdW  Elec       q    Type
REMARK                         _______ _______ _______ _____ _____    ______ ____
ROOT
ATOM      1  C   UNL     1      -0.065   0.895   0.000  0.00  0.00    +0.000 C 
ATOM      2  C   UNL     1       0.760   0.895   0.000  0.00  0.00    +0.000 C 
ATOM      3  O   UNL     1       1.173   0.180   0.000  0.00  0.00    +0.000 OA
ATOM      4  C   UNL     1      -0.319   1.679   0.000  0.00  0.00    +0.000 C 
ATOM      5  C   UNL     1       1.015   1.679   0.000  0.00  0.00    +0.000 C 
ATOM      6  O   UNL     1       0.348   2.164   0.000  0.00  0.00    +0.000 OA
ENDROOT
BRANCH   5  10
ATOM      7  C   UNL     1       2.067   2.678   0.000  0.00  0.00    +0.000 A 
ATOM      8  C   UNL     1       2.480   1.408   0.000  0.00  0.00    +0.000 A 
ATOM      9  C   UNL     1       3.147   1.893   0.000  0.00  0.00    +0.000 A 
ATOM     10  N   UNL     1       1.812   1.893   0.000  0.00  0.00    +0.000 N 
ATOM     11  N   UNL     1       2.892   2.678   0.000  0.00  0.00    +0.000 NA
ATOM     12  N   UNL     1       2.566   0.588   0.000  0.00  0.00    +0.000 NA
ATOM     13  C   UNL     1       3.901   1.557   0.000  0.00  0.00    +0.000 A 
ATOM     14  O   UNL     1       4.558   2.067   0.000  0.00  0.00    +0.000 OA
ATOM     15  C   UNL     1       3.320   0.252   0.000  0.00  0.00    +0.000 A 
ATOM     16  N   UNL     1       3.411  -0.594   0.000  0.00  0.00    +0.000 NA
ATOM     17  N   UNL     1       3.987   0.737   0.000  0.00  0.00    +0.000 NA
ENDBRANCH   5  10
BRANCH   4  18
ATOM     18  C   UNL     1      -1.116   1.893   0.000  0.00  0.00    +0.000 C 
BRANCH  18  19
ATOM     19  O   UNL     1      -1.700   1.310   0.000  0.00  0.00    +0.000 OA
BRANCH  19  21
ATOM     20  O   UNL     1      -2.414   2.547   0.000  0.00  0.00    +0.000 OA
ATOM     21  P   UNL     1      -2.414   1.722   0.000  0.00  0.00    +0.000 P 
ATOM     22  O   UNL     1      -2.628   0.925   0.000  0.00  0.00    +0.000 OA
BRANCH  21  23
ATOM     23  O   UNL     1      -3.129   1.310   0.000  0.00  0.00    +0.000 OA
BRANCH  23  26
ATOM     24  O   UNL     1      -4.558   1.310   0.000  0.00  0.00    +0.000 OA
ATOM     25  O   UNL     1      -3.843   2.547   0.000  0.00  0.00    +0.000 OA
ATOM     26  P   UNL     1      -3.843   1.722   0.000  0.00  0.00    +0.000 P 
ATOM     27  O   UNL     1      -4.057   0.925   0.000  0.00  0.00    +0.000 OA
ENDBRANCH  23  26
ENDBRANCH  21  23
ENDBRANCH  19  21
ENDBRANCH  18  19
ENDBRANCH   4  18
BRANCH   1  28
ATOM     28  O   UNL     1      -0.477   0.180   0.000  0.00  0.00    +0.000 OA
BRANCH  28  30
ATOM     29  O   UNL     1       0.760  -0.534   0.000  0.00  0.00    +0.000 OA
ATOM     30  P   UNL     1      -0.065  -0.534   0.000  0.00  0.00    +0.000 P 
ATOM     31  O   UNL     1      -0.861  -0.748   0.000  0.00  0.00    +0.000 OA
BRANCH  30  32
ATOM     32  O   UNL     1      -0.477  -1.248   0.000  0.00  0.00    +0.000 OA
BRANCH  32  35
ATOM     33  O   UNL     1      -0.477  -2.677   0.000  0.00  0.00    +0.000 OA
ATOM     34  O   UNL     1       0.760  -1.963   0.000  0.00  0.00    +0.000 OA
ATOM     35  P   UNL     1      -0.065  -1.963   0.000  0.00  0.00    +0.000 P 
ATOM     36  O   UNL     1      -0.861  -2.176   0.000  0.00  0.00    +0.000 OA
ENDBRANCH  32  35
ENDBRANCH  30  32
ENDBRANCH  28  30
ENDBRANCH   1  28
TORSDOF 10
