REMARK  Name = 
REMARK  4 active torsions:
REMARK  status: ('A' for Active; 'I' for Inactive)
REMARK    1  A    between atoms: N_6  and  C_9
REMARK    2  A    between atoms: C_8  and  C_9
REMARK    3  A    between atoms: C_11  and  C_16
REMARK    4  A    between atoms: C_16  and  C_17
REMARK                            x       y       z     vdW  Elec       q    Type
REMARK                         _______ _______ _______ _____ _____    ______ ____
ROOT
ATOM      1  C   UNL     1      -0.365  -0.898   0.000  0.00  0.00    +0.000 A 
ATOM      2  C   UNL     1      -0.365  -0.073   0.000  0.00  0.00    +0.000 A 
ATOM      3  N   UNL     1       0.349  -1.311   0.000  0.00  0.00    +0.000 NA
ATOM      4  C   UNL     1       1.063  -0.898   0.000  0.00  0.00    +0.000 A 
ATOM      5  N   UNL     1       1.063  -0.073   0.000  0.00  0.00    +0.000 NA
ATOM      6  C   UNL     1       0.349   0.339   0.000  0.00  0.00    +0.000 A 
ATOM      7  N   UNL     1       0.349   1.164   0.000  0.00  0.00    +0.000 NA
ENDROOT
BRANCH   2   8
ATOM      8  C   UNL     1      -1.080   0.339   0.000  0.00  0.00    +0.000 C 
BRANCH   8  14
ATOM      9  C   UNL     1      -2.509   0.339   0.000  0.00  0.00    +0.000 A 
ATOM     10  C   UNL     1      -3.223  -0.073   0.000  0.00  0.00    +0.000 A 
ATOM     11  C   UNL     1      -3.223  -0.898   0.000  0.00  0.00    +0.000 A 
ATOM     12  C   UNL     1      -2.509  -1.311   0.000  0.00  0.00    +0.000 A 
ATOM     13  C   UNL     1      -1.794  -0.898   0.000  0.00  0.00    +0.000 A 
ATOM     14  N   UNL     1      -1.794  -0.073   0.000  0.00  0.00    +0.000 N 
ATOM     15  C   UNL     1      -2.509   1.164   0.000  0.00  0.00    +0.000 C 
ENDBRANCH   8  14
ENDBRANCH   2   8
BRANCH   4  16
ATOM     16  C   UNL     1       1.794  -1.311   0.000  0.00  0.00    +0.000 C 
BRANCH  16  17
ATOM     17  C   UNL     1       2.509  -0.898   0.000  0.00  0.00    +0.000 C 
ATOM     18  C   UNL     1       3.223  -1.311   0.000  0.00  0.00    +0.000 C 
ENDBRANCH  16  17
ENDBRANCH   4  16
TORSDOF 4
REMARK  Name = 
REMARK  4 active torsions:
REMARK  status: ('A' for Active; 'I' for Inactive)
REMARK    1  A    between atoms: N_6  and  C_9
REMARK    2  A    between atoms: C_8  and  C_9
REMARK    3  A    between atoms: C_11  and  C_16
REMARK    4  A    between atoms: C_16  and  C_17
REMARK                            x       y       z     vdW  Elec       q    Type
REMARK                         _______ _______ _______ _____ _____    ______ ____
ROOT
ATOM      1 CL   UNL     1      -1.021   1.311   0.000  0.00  0.00    +0.000 Cl
ENDROOT
TORSDOF 0
