REMARK  Name = 
REMARK  4 active torsions:
REMARK  status: ('A' for Active; 'I' for Inactive)
REMARK    1  A    between atoms: C_3  and  C_14
REMARK    2  A    between atoms: C_6  and  C_7
REMARK    3  A    between atoms: C_7  and  N_8
REMARK    4  A    between atoms: N_19  and  C_22
REMARK                            x       y       z     vdW  Elec       q    Type
REMARK                         _______ _______ _______ _____ _____    ______ ____
ROOT
ATOM      1  C   UNL     1      -0.715   7.965   0.000  0.00  0.00    +0.000 A 
ATOM      2  C   UNL     1       0.000   7.553   0.000  0.00  0.00    +0.000 A 
ATOM      3  C   UNL     1       0.000   6.728   0.000  0.00  0.00    +0.000 A 
ATOM      4  C   UNL     1      -0.715   6.315   0.000  0.00  0.00    +0.000 A 
ATOM      5  C   UNL     1      -1.429   6.728   0.000  0.00  0.00    +0.000 A 
ATOM      6  C   UNL     1      -1.429   7.553   0.000  0.00  0.00    +0.000 A 
ENDROOT
BRANCH   3   7
ATOM      7  C   UNL     1       0.715   6.315   0.000  0.00  0.00    +0.000 C 
ATOM      8  O   UNL     1       1.429   6.728   0.000  0.00  0.00    +0.000 OA
ATOM      9  N   UNL     1       0.715   5.490   0.000  0.00  0.00    +0.000 N 
ATOM     10  C   UNL     1       1.429   5.078   0.000  0.00  0.00    +0.000 C 
ATOM     11  C   UNL     1       1.429   4.253   0.000  0.00  0.00    +0.000 C 
ATOM     12  N   UNL     1       0.715   3.840   0.000  0.00  0.00    +0.000 NA
ATOM     13  C   UNL     1       0.000   4.253   0.000  0.00  0.00    +0.000 C 
ATOM     14  C   UNL     1       0.000   5.078   0.000  0.00  0.00    +0.000 C 
BRANCH  12  15
ATOM     15  C   UNL     1       0.715   3.015   0.000  0.00  0.00    +0.000 C 
ATOM     16  C   UNL     1       1.127   2.301   0.000  0.00  0.00    +0.000 C 
ATOM     17  C   UNL     1       0.302   2.301   0.000  0.00  0.00    +0.000 C 
ENDBRANCH  12  15
ENDBRANCH   3   7
BRANCH   6  18
ATOM     18  C   UNL     1      -2.143   7.965   0.000  0.00  0.00    +0.000 C 
BRANCH  18  19
ATOM     19  N   UNL     1      -2.858   7.553   0.000  0.00  0.00    +0.000 NA
ATOM     20  C   UNL     1      -2.858   6.728   0.000  0.00  0.00    +0.000 C 
ATOM     21  C   UNL     1      -3.572   6.315   0.000  0.00  0.00    +0.000 C 
ATOM     22  O   UNL     1      -4.287   6.728   0.000  0.00  0.00    +0.000 OA
ATOM     23  C   UNL     1      -4.287   7.553   0.000  0.00  0.00    +0.000 C 
ATOM     24  C   UNL     1      -3.572   7.965   0.000  0.00  0.00    +0.000 C 
ENDBRANCH  18  19
ENDBRANCH   6  18
TORSDOF 4
