REMARK  Name = 
REMARK  1 active torsions:
REMARK  status: ('A' for Active; 'I' for Inactive)
REMARK    1  A    between atoms: C_1  and  C_6
REMARK                            x       y       z     vdW  Elec       q    Type
REMARK                         _______ _______ _______ _____ _____    ______ ____
ROOT
ATOM      1  C   UNL     1       0.715   0.704   0.000  0.00  0.00    +0.000 C 
ATOM      2  C   UNL     1       0.000   1.116   0.000  0.00  0.00    +0.000 C 
ATOM      3  C   UNL     1       0.715  -0.121   0.000  0.00  0.00    +0.000 C 
ATOM      4  C   UNL     1      -0.715   0.704   0.000  0.00  0.00    +0.000 C 
ATOM      5  C   UNL     1       0.000  -0.534   0.000  0.00  0.00    +0.000 C 
ATOM      6  F   UNL     1      -1.429   1.116   0.000  0.00  0.00    +0.000 F 
ATOM      7  F   UNL     1       0.530  -1.166   0.000  0.00  0.00    +0.000 F 
ATOM      8  O   UNL     1       1.429   1.116   0.000  0.00  0.00    +0.000 OA
ATOM      9  O   UNL     1       0.000   1.941   0.000  0.00  0.00    +0.000 OA
ATOM     10  O   UNL     1       1.429  -0.534   0.000  0.00  0.00    +0.000 OA
ATOM     11  O   UNL     1      -0.715  -0.121   0.000  0.00  0.00    +0.000 OA
ENDROOT
BRANCH   5  12
ATOM     12  C   UNL     1      -0.530  -1.166   0.000  0.00  0.00    +0.000 C 
ATOM     13  O   UNL     1      -0.248  -1.941   0.000  0.00  0.00    +0.000 OA
ENDBRANCH   5  12
TORSDOF 1
