REMARK  Name = 
REMARK  7 active torsions:
REMARK  status: ('A' for Active; 'I' for Inactive)
REMARK    1  A    between atoms: C_1  and  C_3
REMARK    2  A    between atoms: C_2  and  C_3
REMARK    3  A    between atoms: C_2  and  C_9
REMARK    4  A    between atoms: C_4  and  C_14
REMARK    5  A    between atoms: N_7  and  C_15
REMARK    6  A    between atoms: C_14  and  C_16
REMARK    7  A    between atoms: C_15  and  C_16
REMARK                            x       y       z     vdW  Elec       q    Type
REMARK                         _______ _______ _______ _____ _____    ______ ____
ROOT
ATOM      1  C   UNL     1       0.722   1.448   0.000  0.00  0.00    +0.000 C 
ATOM      2  O   UNL     1       0.722   2.277   0.000  0.00  0.00    +0.000 OA
ATOM      3  N   UNL     1       1.441   1.044   0.000  0.00  0.00    +0.000 NA
ENDROOT
BRANCH   1   4
ATOM      4  C   UNL     1       0.003   1.044   0.000  0.00  0.00    +0.000 C 
ATOM      5  O   UNL     1       0.003   0.205   0.000  0.00  0.00    +0.000 OA
BRANCH   4   6
ATOM      6  C   UNL     1      -0.717   1.448   0.000  0.00  0.00    +0.000 C 
ATOM      7  C   UNL     1      -1.101   2.143   0.000  0.00  0.00    +0.000 C 
ATOM      8  C   UNL     1      -0.157   2.138   0.000  0.00  0.00    +0.000 C 
BRANCH   6  10
ATOM      9  O   UNL     1      -2.150   1.448   0.000  0.00  0.00    +0.000 OA
ATOM     10  C   UNL     1      -1.431   1.044   0.000  0.00  0.00    +0.000 C 
ENDBRANCH   6  10
ENDBRANCH   4   6
ENDBRANCH   1   4
BRANCH   3  11
ATOM     11  C   UNL     1       1.441   0.205   0.000  0.00  0.00    +0.000 C 
BRANCH  11  12
ATOM     12  C   UNL     1       2.150  -0.210   0.000  0.00  0.00    +0.000 C 
BRANCH  12  13
ATOM     13  C   UNL     1       2.150  -1.039   0.000  0.00  0.00    +0.000 C 
BRANCH  13  14
ATOM     14  C   UNL     1       1.441  -1.443   0.000  0.00  0.00    +0.000 C 
ATOM     15  O   UNL     1       1.441  -2.277   0.000  0.00  0.00    +0.000 OA
ATOM     16  O   UNL     1       0.722  -1.039   0.000  0.00  0.00    +0.000 OA
ENDBRANCH  13  14
ENDBRANCH  12  13
ENDBRANCH  11  12
ENDBRANCH   3  11
TORSDOF 7
