REMARK  Name = 
REMARK  6 active torsions:
REMARK  status: ('A' for Active; 'I' for Inactive)
REMARK    1  A    between atoms: C_1  and  C_2
REMARK    2  A    between atoms: C_1  and  C_13
REMARK    3  A    between atoms: C_2  and  C_20
REMARK    4  A    between atoms: C_13  and  N_24
REMARK    5  A    between atoms: C_16  and  C_20
REMARK    6  A    between atoms: C_17  and  C_21
REMARK                            x       y       z     vdW  Elec       q    Type
REMARK                         _______ _______ _______ _____ _____    ______ ____
ROOT
ATOM      1  C   UNL     1       5.716   0.000   0.000  0.00  0.00    +0.000 C 
ATOM      2  C   UNL     1       6.430  -1.238   0.000  0.00  0.00    +0.000 C 
ATOM      3  C   UNL     1       5.001  -0.412   0.000  0.00  0.00    +0.000 C 
ATOM      4  C   UNL     1       5.716  -1.650   0.000  0.00  0.00    +0.000 C 
ATOM      5  C   UNL     1       6.430  -0.412   0.000  0.00  0.00    +0.000 C 
ATOM      6  N   UNL     1       5.001  -1.238   0.000  0.00  0.00    +0.000 NA
ATOM      7  O   UNL     1       7.255  -0.384   0.000  0.00  0.00    +0.000 OA
ENDROOT
BRANCH   5  12
ATOM      8  C   UNL     1       7.692   0.258   0.000  0.00  0.00    +0.000 A 
ATOM      9  C   UNL     1       6.480   1.016   0.000  0.00  0.00    +0.000 A 
ATOM     10  C   UNL     1       8.129   0.958   0.000  0.00  0.00    +0.000 A 
ATOM     11  C   UNL     1       6.917   1.715   0.000  0.00  0.00    +0.000 A 
ATOM     12  C   UNL     1       6.867   0.287   0.000  0.00  0.00    +0.000 A 
ATOM     13  C   UNL     1       7.742   1.686   0.000  0.00  0.00    +0.000 A 
ATOM     14 BR   UNL     1       8.179   2.386   0.000  0.00  0.00    +0.000 Br
ENDBRANCH   5  12
BRANCH   6  15
ATOM     15  C   UNL     1       4.287  -1.650   0.000  0.00  0.00    +0.000 C 
BRANCH  15  16
ATOM     16  C   UNL     1       3.572  -1.238   0.000  0.00  0.00    +0.000 C 
BRANCH  16  17
ATOM     17  C   UNL     1       2.858  -1.650   0.000  0.00  0.00    +0.000 C 
BRANCH  17  18
ATOM     18  C   UNL     1       2.143  -1.238   0.000  0.00  0.00    +0.000 C 
ATOM     19  O   UNL     1       2.143  -0.412   0.000  0.00  0.00    +0.000 OA
BRANCH  18  24
ATOM     20  C   UNL     1       0.715  -1.238   0.000  0.00  0.00    +0.000 A 
ATOM     21  C   UNL     1       1.429  -2.475   0.000  0.00  0.00    +0.000 A 
ATOM     22  C   UNL     1       0.000  -1.650   0.000  0.00  0.00    +0.000 A 
ATOM     23  C   UNL     1       0.715  -2.888   0.000  0.00  0.00    +0.000 A 
ATOM     24  C   UNL     1       1.429  -1.650   0.000  0.00  0.00    +0.000 A 
ATOM     25  C   UNL     1       0.000  -2.475   0.000  0.00  0.00    +0.000 A 
ATOM     26  F   UNL     1      -0.715  -2.888   0.000  0.00  0.00    +0.000 F 
ENDBRANCH  18  24
ENDBRANCH  17  18
ENDBRANCH  16  17
ENDBRANCH  15  16
ENDBRANCH   6  15
TORSDOF 6
