REMARK  Name = 
REMARK  6 active torsions:
REMARK  status: ('A' for Active; 'I' for Inactive)
REMARK    1  A    between atoms: N_5  and  C_8
REMARK    2  A    between atoms: C_11  and  N_12
REMARK    3  A    between atoms: C_15  and  O_16
REMARK    4  A    between atoms: O_16  and  C_17
REMARK    5  A    between atoms: C_21  and  N_22
REMARK    6  A    between atoms: C_23  and  C_25
REMARK                            x       y       z     vdW  Elec       q    Type
REMARK                         _______ _______ _______ _____ _____    ______ ____
ROOT
ATOM      1  N   UNL     1       0.992   0.412   0.000  0.00  0.00    +0.000 NA
ATOM      2  C   UNL     1       0.278   0.000   0.000  0.00  0.00    +0.000 A 
ATOM      3  N   UNL     1       0.278  -0.825   0.000  0.00  0.00    +0.000 NA
ATOM      4  C   UNL     1      -0.437  -1.238   0.000  0.00  0.00    +0.000 A 
ATOM      5  C   UNL     1      -1.151  -0.825   0.000  0.00  0.00    +0.000 A 
ATOM      6  S   UNL     1      -1.936  -1.080   0.000  0.00  0.00    +0.000 S 
ATOM      7  C   UNL     1      -2.421  -0.412   0.000  0.00  0.00    +0.000 A 
ATOM      8  C   UNL     1      -1.936   0.255   0.000  0.00  0.00    +0.000 A 
ATOM      9  C   UNL     1      -1.151   0.000   0.000  0.00  0.00    +0.000 A 
ATOM     10  N   UNL     1      -0.437   0.412   0.000  0.00  0.00    +0.000 NA
ENDROOT
BRANCH   1  14
ATOM     11  C   UNL     1       0.992   2.888   0.000  0.00  0.00    +0.000 A 
ATOM     12  C   UNL     1       1.706   2.475   0.000  0.00  0.00    +0.000 A 
ATOM     13  C   UNL     1       1.706   1.650   0.000  0.00  0.00    +0.000 A 
ATOM     14  C   UNL     1       0.992   1.238   0.000  0.00  0.00    +0.000 A 
ATOM     15  C   UNL     1       0.278   1.650   0.000  0.00  0.00    +0.000 A 
ATOM     16  C   UNL     1       0.278   2.475   0.000  0.00  0.00    +0.000 A 
BRANCH  11  21
ATOM     17  C   UNL     1       0.992   6.188   0.000  0.00  0.00    +0.000 C 
ATOM     18  N   UNL     1       0.992   5.362   0.000  0.00  0.00    +0.000 NA
ATOM     19  C   UNL     1       1.706   4.950   0.000  0.00  0.00    +0.000 C 
ATOM     20  C   UNL     1       1.706   4.125   0.000  0.00  0.00    +0.000 C 
ATOM     21  N   UNL     1       0.992   3.712   0.000  0.00  0.00    +0.000 N 
ATOM     22  C   UNL     1       0.278   4.125   0.000  0.00  0.00    +0.000 C 
ATOM     23  C   UNL     1       0.278   4.950   0.000  0.00  0.00    +0.000 C 
ENDBRANCH  11  21
ENDBRANCH   1  14
BRANCH   4  24
ATOM     24  O   UNL     1      -0.437  -2.062   0.000  0.00  0.00    +0.000 OA
BRANCH  24  25
ATOM     25  C   UNL     1       0.278  -2.475   0.000  0.00  0.00    +0.000 A 
ATOM     26  C   UNL     1       0.992  -2.062   0.000  0.00  0.00    +0.000 A 
ATOM     27  C   UNL     1       1.706  -2.475   0.000  0.00  0.00    +0.000 A 
ATOM     28  C   UNL     1       1.706  -3.300   0.000  0.00  0.00    +0.000 A 
ATOM     29  C   UNL     1       0.992  -3.712   0.000  0.00  0.00    +0.000 A 
ATOM     30  C   UNL     1       0.278  -3.300   0.000  0.00  0.00    +0.000 A 
BRANCH  29  31
ATOM     31  N   UNL     1       0.992  -4.537   0.000  0.00  0.00    +0.000 NA
ATOM     32  C   UNL     1       1.706  -4.950   0.000  0.00  0.00    +0.000 C 
ATOM     33  O   UNL     1       2.421  -4.537   0.000  0.00  0.00    +0.000 OA
BRANCH  32  34
ATOM     34  C   UNL     1       1.706  -5.775   0.000  0.00  0.00    +0.000 C 
ATOM     35  C   UNL     1       2.421  -6.188   0.000  0.00  0.00    +0.000 C 
ENDBRANCH  32  34
ENDBRANCH  29  31
ENDBRANCH  24  25
ENDBRANCH   4  24
TORSDOF 6
