REMARK  Name = 
REMARK  10 active torsions:
REMARK  status: ('A' for Active; 'I' for Inactive)
REMARK    1  A    between atoms: C_6  and  C_8
REMARK    2  A    between atoms: C_14  and  O_33
REMARK    3  A    between atoms: C_17  and  C_18
REMARK    4  A    between atoms: C_17  and  C_23
REMARK    5  A    between atoms: C_18  and  C_19
REMARK    6  A    between atoms: C_19  and  C_22
REMARK    7  A    between atoms: C_22  and  C_29
REMARK    8  A    between atoms: O_33  and  C_34
REMARK    9  A    between atoms: C_34  and  C_35
REMARK   10  A    between atoms: C_35  and  C_36
REMARK                            x       y       z     vdW  Elec       q    Type
REMARK                         _______ _______ _______ _____ _____    ______ ____
ROOT
ATOM      1  C   UNL     1      -1.464   2.760   0.000  0.00  0.00    +0.000 C 
ATOM      2  C   UNL     1      -1.464   1.110   0.000  0.00  0.00    +0.000 C 
ATOM      3  C   UNL     1       0.035   1.268   0.000  0.00  0.00    +0.000 C 
ATOM      4  C   UNL     1       0.520   1.935   0.000  0.00  0.00    +0.000 C 
ATOM      5  C   UNL     1      -2.179   2.348   0.000  0.00  0.00    +0.000 C 
ATOM      6  C   UNL     1      -1.464   0.285   0.000  0.00  0.00    +0.000 C 
ATOM      7  C   UNL     1      -2.179   1.523   0.000  0.00  0.00    +0.000 C 
ATOM      8  C   UNL     1       0.035   2.603   0.000  0.00  0.00    +0.000 C 
ATOM      9  C   UNL     1      -0.750   1.523   0.000  0.00  0.00    +0.000 C 
ATOM     10  C   UNL     1      -0.750   2.348   0.000  0.00  0.00    +0.000 C 
ATOM     11  C   UNL     1      -0.750   3.173   0.000  0.00  0.00    +0.000 C 
ENDROOT
BRANCH   6  12
ATOM     12  C   UNL     1      -2.179  -0.127   0.000  0.00  0.00    +0.000 C 
ATOM     13  C   UNL     1      -2.179  -0.952   0.000  0.00  0.00    +0.000 C 
ATOM     14  C   UNL     1      -1.464  -1.365   0.000  0.00  0.00    +0.000 C 
ATOM     15  C   UNL     1      -2.893  -1.365   0.000  0.00  0.00    +0.000 C 
ATOM     16  C   UNL     1      -0.750  -0.952   0.000  0.00  0.00    +0.000 C 
ATOM     17  C   UNL     1      -2.893  -2.190   0.000  0.00  0.00    +0.000 C 
ATOM     18  C   UNL     1      -2.179  -2.602   0.000  0.00  0.00    +0.000 C 
ATOM     19  O   UNL     1      -3.607  -2.602   0.000  0.00  0.00    +0.000 OA
ATOM     20  C   UNL     1      -1.464  -2.190   0.000  0.00  0.00    +0.000 C 
ATOM     21  O   UNL     1      -0.750  -2.602   0.000  0.00  0.00    +0.000 OA
BRANCH  18  22
ATOM     22  O   UNL     1      -2.179  -3.428   0.000  0.00  0.00    +0.000 OA
BRANCH  22  23
ATOM     23  C   UNL     1      -1.464  -3.840   0.000  0.00  0.00    +0.000 C 
BRANCH  23  24
ATOM     24  C   UNL     1      -0.750  -3.428   0.000  0.00  0.00    +0.000 C 
BRANCH  24  25
ATOM     25  C   UNL     1      -0.035  -3.840   0.000  0.00  0.00    +0.000 C 
ATOM     26  O   UNL     1       0.679  -3.428   0.000  0.00  0.00    +0.000 OA
ENDBRANCH  24  25
ENDBRANCH  23  24
ENDBRANCH  22  23
ENDBRANCH  18  22
ENDBRANCH   6  12
BRANCH   8  28
ATOM     27  C   UNL     1      -0.679   3.840   0.000  0.00  0.00    +0.000 C 
ATOM     28  C   UNL     1       0.035   3.428   0.000  0.00  0.00    +0.000 C 
BRANCH  28  29
ATOM     29  C   UNL     1       0.750   3.840   0.000  0.00  0.00    +0.000 C 
BRANCH  29  30
ATOM     30  C   UNL     1       1.464   3.428   0.000  0.00  0.00    +0.000 C 
BRANCH  30  31
ATOM     31  C   UNL     1       2.179   3.840   0.000  0.00  0.00    +0.000 C 
BRANCH  31  34
ATOM     32  C   UNL     1       3.607   3.840   0.000  0.00  0.00    +0.000 C 
ATOM     33  C   UNL     1       2.893   2.603   0.000  0.00  0.00    +0.000 C 
ATOM     34  C   UNL     1       2.893   3.428   0.000  0.00  0.00    +0.000 C 
ATOM     35  O   UNL     1       3.607   3.015   0.000  0.00  0.00    +0.000 OA
ENDBRANCH  31  34
ENDBRANCH  30  31
ENDBRANCH  29  30
ENDBRANCH  28  29
ENDBRANCH   8  28
TORSDOF 10
