REMARK  Name = 
REMARK  13 active torsions:
REMARK  status: ('A' for Active; 'I' for Inactive)
REMARK    1  A    between atoms: O_2  and  C_3
REMARK    2  A    between atoms: C_3  and  C_4
REMARK    3  A    between atoms: C_4  and  N_5
REMARK    4  A    between atoms: N_5  and  C_6
REMARK    5  A    between atoms: C_6  and  C_7
REMARK    6  A    between atoms: C_10  and  C_13
REMARK    7  A    between atoms: C_18  and  O_22
REMARK    8  A    between atoms: O_22  and  C_23
REMARK    9  A    between atoms: C_26  and  N_30
REMARK   10  A    between atoms: N_30  and  C_31
REMARK   11  A    between atoms: C_31  and  N_33
REMARK   12  A    between atoms: C_34  and  C_36
REMARK   13  A    between atoms: C_36  and  C_37
REMARK                            x       y       z     vdW  Elec       q    Type
REMARK                         _______ _______ _______ _____ _____    ______ ____
ROOT
ATOM      1  O   UNL     1       1.356   0.952   0.000  0.00  0.00    +0.000 OA
ENDROOT
BRANCH   1   7
ATOM      2  C   UNL     1      -0.628  -0.698   0.000  0.00  0.00    +0.000 A 
ATOM      3  C   UNL     1      -0.143  -1.365   0.000  0.00  0.00    +0.000 A 
ATOM      4  C   UNL     1       0.641  -1.110   0.000  0.00  0.00    +0.000 A 
ATOM      5  C   UNL     1       0.641  -0.285   0.000  0.00  0.00    +0.000 A 
ATOM      6  S   UNL     1      -0.143  -0.030   0.000  0.00  0.00    +0.000 S 
ATOM      7  C   UNL     1       1.356   0.127   0.000  0.00  0.00    +0.000 A 
ATOM      8  C   UNL     1       2.070  -0.285   0.000  0.00  0.00    +0.000 A 
ATOM      9  C   UNL     1       2.070  -1.110   0.000  0.00  0.00    +0.000 A 
ATOM     10  N   UNL     1       1.356  -1.523   0.000  0.00  0.00    +0.000 NA
BRANCH   2  14
ATOM     11  C   UNL     1      -3.103  -0.698   0.000  0.00  0.00    +0.000 A 
ATOM     12  C   UNL     1      -2.691   0.017   0.000  0.00  0.00    +0.000 A 
ATOM     13  C   UNL     1      -1.866   0.017   0.000  0.00  0.00    +0.000 A 
ATOM     14  C   UNL     1      -1.453  -0.698   0.000  0.00  0.00    +0.000 A 
ATOM     15  N   UNL     1      -1.866  -1.412   0.000  0.00  0.00    +0.000 NA
ATOM     16  C   UNL     1      -2.691  -1.412   0.000  0.00  0.00    +0.000 A 
BRANCH  11  17
ATOM     17  C   UNL     1      -3.928  -0.698   0.000  0.00  0.00    +0.000 C 
BRANCH  17  18
ATOM     18  N   UNL     1      -4.341  -1.412   0.000  0.00  0.00    +0.000 NA
BRANCH  18  19
ATOM     19  C   UNL     1      -5.166  -1.412   0.000  0.00  0.00    +0.000 C 
BRANCH  19  20
ATOM     20  C   UNL     1      -5.578  -2.127   0.000  0.00  0.00    +0.000 C 
BRANCH  20  22
ATOM     21  C   UNL     1      -6.816  -2.841   0.000  0.00  0.00    +0.000 C 
ATOM     22  O   UNL     1      -6.403  -2.127   0.000  0.00  0.00    +0.000 OA
ENDBRANCH  20  22
ENDBRANCH  19  20
ENDBRANCH  18  19
ENDBRANCH  17  18
ENDBRANCH  11  17
ENDBRANCH   2  14
ENDBRANCH   1   7
BRANCH   1  23
ATOM     23  C   UNL     1       2.070   1.365   0.000  0.00  0.00    +0.000 A 
ATOM     24  C   UNL     1       2.070   2.190   0.000  0.00  0.00    +0.000 A 
ATOM     25  C   UNL     1       2.784   2.602   0.000  0.00  0.00    +0.000 A 
ATOM     26  C   UNL     1       3.499   2.190   0.000  0.00  0.00    +0.000 A 
ATOM     27  C   UNL     1       3.499   1.365   0.000  0.00  0.00    +0.000 A 
ATOM     28  C   UNL     1       2.784   0.952   0.000  0.00  0.00    +0.000 A 
ATOM     29  F   UNL     1       2.784   0.127   0.000  0.00  0.00    +0.000 F 
BRANCH  26  30
ATOM     30  N   UNL     1       4.213   2.602   0.000  0.00  0.00    +0.000 NA
BRANCH  30  31
ATOM     31  C   UNL     1       4.928   2.190   0.000  0.00  0.00    +0.000 C 
ATOM     32  S   UNL     1       4.928   1.365   0.000  0.00  0.00    +0.000 S 
BRANCH  31  33
ATOM     33  N   UNL     1       5.642   2.602   0.000  0.00  0.00    +0.000 NA
ATOM     34  C   UNL     1       6.357   2.190   0.000  0.00  0.00    +0.000 C 
ATOM     35  O   UNL     1       6.357   1.365   0.000  0.00  0.00    +0.000 OA
BRANCH  34  36
ATOM     36  C   UNL     1       7.071   2.602   0.000  0.00  0.00    +0.000 C 
BRANCH  36  37
ATOM     37  C   UNL     1       7.786   2.190   0.000  0.00  0.00    +0.000 A 
ATOM     38  C   UNL     1       8.500   2.602   0.000  0.00  0.00    +0.000 A 
ATOM     39  C   UNL     1       9.215   2.190   0.000  0.00  0.00    +0.000 A 
ATOM     40  C   UNL     1       9.215   1.365   0.000  0.00  0.00    +0.000 A 
ATOM     41  C   UNL     1       8.500   0.952   0.000  0.00  0.00    +0.000 A 
ATOM     42  C   UNL     1       7.786   1.365   0.000  0.00  0.00    +0.000 A 
ATOM     43  F   UNL     1       9.929   0.952   0.000  0.00  0.00    +0.000 F 
ENDBRANCH  36  37
ENDBRANCH  34  36
ENDBRANCH  31  33
ENDBRANCH  30  31
ENDBRANCH  26  30
ENDBRANCH   1  23
TORSDOF 13
