REMARK  Name = 
REMARK  11 active torsions:
REMARK  status: ('A' for Active; 'I' for Inactive)
REMARK    1  A    between atoms: S_1  and  S_2
REMARK    2  A    between atoms: S_1  and  C_23
REMARK    3  A    between atoms: S_2  and  C_28
REMARK    4  A    between atoms: N_8  and  C_14
REMARK    5  A    between atoms: N_9  and  C_21
REMARK    6  A    between atoms: N_12  and  C_29
REMARK    7  A    between atoms: C_13  and  C_19
REMARK    8  A    between atoms: C_20  and  C_22
REMARK    9  A    between atoms: C_21  and  C_23
REMARK   10  A    between atoms: CA_24  and  C_26
REMARK   11  A    between atoms: C_28  and  C_29
REMARK                            x       y       z     vdW  Elec       q    Type
REMARK                         _______ _______ _______ _____ _____    ______ ____
ROOT
ATOM      1  C   UNL     1       0.493   0.825   0.000  0.00  0.00    +0.000 C 
ATOM      2  C   UNL     1       0.493   2.475   0.000  0.00  0.00    +0.000 C 
ATOM      3  C   UNL     1      -0.222   1.238   0.000  0.00  0.00    +0.000 C 
ATOM      4  C   UNL     1       1.207   1.238   0.000  0.00  0.00    +0.000 C 
ATOM      5  C   UNL     1      -0.222   2.062   0.000  0.00  0.00    +0.000 C 
ATOM      6  C   UNL     1       1.207   2.062   0.000  0.00  0.00    +0.000 C 
ENDROOT
BRANCH   1   9
ATOM      7  O   UNL     1       1.207  -0.412   0.000  0.00  0.00    +0.000 OA
ATOM      8  N   UNL     1      -0.222  -0.412   0.000  0.00  0.00    +0.000 NA
ATOM      9  C   UNL     1       0.493   0.000   0.000  0.00  0.00    +0.000 C 
BRANCH   8  10
ATOM     10  C   UNL     1      -0.222  -1.238   0.000  0.00  0.00    +0.000 C 
BRANCH  10  11
ATOM     11  C   UNL     1      -0.936  -1.650   0.000  0.00  0.00    +0.000 C 
BRANCH  11  12
ATOM     12  S   UNL     1      -0.936  -2.475   0.000  0.00  0.00    +0.000 S 
BRANCH  12  13
ATOM     13  S   UNL     1      -1.650  -2.888   0.000  0.00  0.00    +0.000 S 
BRANCH  13  14
ATOM     14  C   UNL     1      -1.650  -3.712   0.000  0.00  0.00    +0.000 C 
BRANCH  14  15
ATOM     15  C   UNL     1      -2.365  -4.125   0.000  0.00  0.00    +0.000 C 
BRANCH  15  17
ATOM     16  O   UNL     1      -3.794  -4.950   0.000  0.00  0.00    +0.000 OA
ATOM     17  N   UNL     1      -2.365  -4.950   0.000  0.00  0.00    +0.000 NA
ATOM     18  C   UNL     1      -3.079  -5.363   0.000  0.00  0.00    +0.000 C 
ATOM     19  C   UNL     1      -3.079  -6.188   0.000  0.00  0.00    +0.000 C 
ENDBRANCH  15  17
ENDBRANCH  14  15
ENDBRANCH  13  14
ENDBRANCH  12  13
ENDBRANCH  11  12
ENDBRANCH  10  11
ENDBRANCH   8  10
ENDBRANCH   1   9
BRANCH   2  21
ATOM     20  O   UNL     1       1.922   3.300   0.000  0.00  0.00    +0.000 OA
ATOM     21  N   UNL     1       0.493   3.300   0.000  0.00  0.00    +0.000 NA
ATOM     22  C   UNL     1       1.207   3.712   0.000  0.00  0.00    +0.000 C 
BRANCH  22  25
ATOM     23  N   UNL     1       0.493   4.950   0.000  0.00  0.00    +0.000 NA
ATOM     24  N   UNL     1       1.922   5.775   0.000  0.00  0.00    +0.000 NA
ATOM     25  C   UNL     1       1.207   4.537   0.000  0.00  0.00    +0.000 A 
ATOM     26  CA  UNL     1       1.922   4.950   0.000  0.00  0.00    +0.000 A 
ATOM     27  C   UNL     1       0.493   5.775   0.000  0.00  0.00    +0.000 A 
ATOM     28  C   UNL     1       1.207   6.188   0.000  0.00  0.00    +0.000 A 
BRANCH  26  31
ATOM     29  O   UNL     1       3.351   4.950   0.000  0.00  0.00    +0.000 OA
ATOM     30  OXT UNL     1       2.636   3.712   0.000  0.00  0.00    +0.000 OA
ATOM     31  C   UNL     1       2.636   4.537   0.000  0.00  0.00    +0.000 C 
ENDBRANCH  26  31
ENDBRANCH  22  25
ENDBRANCH   2  21
TORSDOF 11
