REMARK  Name = 
REMARK  5 active torsions:
REMARK  status: ('A' for Active; 'I' for Inactive)
REMARK    1  A    between atoms: CA_1  and  N_13
REMARK    2  A    between atoms: CA_5  and  C_10
REMARK    3  A    between atoms: C_16  and  CA_18
REMARK    4  A    between atoms: CA_18  and  C_19
REMARK    5  A    between atoms: CA_18  and  N_25
REMARK                            x       y       z     vdW  Elec       q    Type
REMARK                         _______ _______ _______ _____ _____    ______ ____
ROOT
ATOM      1  CA  UNL     1       0.737   0.414   0.000  0.00  0.00    +0.000 C 
ATOM      2  C   UNL     1       0.737  -0.411   0.000  0.00  0.00    +0.000 C 
ATOM      3  C   UNL     1       1.562   0.414   0.000  0.00  0.00    +0.000 C 
ATOM      4  N   UNL     1       1.562  -0.411   0.000  0.00  0.00    +0.000 N 
ATOM      5  CA  UNL     1       2.346  -0.666   0.000  0.00  0.00    +0.000 C 
ATOM      6  C   UNL     1       2.831   0.001   0.000  0.00  0.00    +0.000 C 
ATOM      7  S   UNL     1       2.346   0.669   0.000  0.00  0.00    +0.000 S 
ATOM      8  C   UNL     1       3.550  -0.404   0.000  0.00  0.00    +0.000 C 
ATOM      9  C   UNL     1       3.550   0.406   0.000  0.00  0.00    +0.000 C 
ATOM     10  O   UNL     1       0.153  -0.995   0.000  0.00  0.00    +0.000 OA
ENDROOT
BRANCH   5  11
ATOM     11  C   UNL     1       2.601  -1.451   0.000  0.00  0.00    +0.000 C 
ATOM     12  O   UNL     1       3.408  -1.622   0.000  0.00  0.00    +0.000 OA
ATOM     13  OXT UNL     1       2.049  -2.064   0.000  0.00  0.00    +0.000 OA
ENDBRANCH   5  11
BRANCH   1  14
ATOM     14  N   UNL     1       0.022   0.826   0.000  0.00  0.00    +0.000 NA
ATOM     15  C   UNL     1      -0.692   0.414   0.000  0.00  0.00    +0.000 C 
ATOM     16  O   UNL     1      -0.692  -0.411   0.000  0.00  0.00    +0.000 OA
BRANCH  15  17
ATOM     17  CA  UNL     1      -1.407   0.826   0.000  0.00  0.00    +0.000 C 
BRANCH  17  18
ATOM     18  C   UNL     1      -2.121   0.414   0.000  0.00  0.00    +0.000 A 
ATOM     19  C   UNL     1      -2.836   0.826   0.000  0.00  0.00    +0.000 A 
ATOM     20  C   UNL     1      -3.550   0.414   0.000  0.00  0.00    +0.000 A 
ATOM     21  C   UNL     1      -3.550  -0.411   0.000  0.00  0.00    +0.000 A 
ATOM     22  C   UNL     1      -2.836  -0.824   0.000  0.00  0.00    +0.000 A 
ATOM     23  C   UNL     1      -2.121  -0.411   0.000  0.00  0.00    +0.000 A 
ENDBRANCH  17  18
BRANCH  17  24
ATOM     24  N   UNL     1      -1.407   1.651   0.000  0.00  0.00    +0.000 NA
ATOM     25  C   UNL     1      -2.121   2.064   0.000  0.00  0.00    +0.000 C 
ENDBRANCH  17  24
ENDBRANCH  15  17
ENDBRANCH   1  14
TORSDOF 5
