REMARK  Name = 
REMARK  2 active torsions:
REMARK  status: ('A' for Active; 'I' for Inactive)
REMARK    1  A    between atoms: C_1  and  C_4
REMARK    2  A    between atoms: C_2  and  C_6
REMARK                            x       y       z     vdW  Elec       q    Type
REMARK                         _______ _______ _______ _____ _____    ______ ____
ROOT
ATOM      1  C   UNL     1      -0.329   0.434   0.000  0.00  0.00    +0.000 C 
ATOM      2  C   UNL     1      -0.353  -0.410   0.000  0.00  0.00    +0.000 C 
ATOM      3  C   UNL     1       0.355   0.838   0.000  0.00  0.00    +0.000 C 
ATOM      4  C   UNL     1       0.351  -0.833   0.000  0.00  0.00    +0.000 C 
ATOM      5  C   UNL     1       1.090   0.396   0.000  0.00  0.00    +0.000 C 
ATOM      6  O   UNL     1       0.358   1.647   0.000  0.00  0.00    +0.000 OA
ATOM      7  C   UNL     1       1.085  -0.415   0.000  0.00  0.00    +0.000 C 
ATOM      8  O   UNL     1       0.345  -1.647   0.000  0.00  0.00    +0.000 OA
ATOM      9 CL   UNL     1       1.803   0.779   0.000  0.00  0.00    +0.000 Cl
ATOM     10 CL   UNL     1       1.792  -0.841   0.000  0.00  0.00    +0.000 Cl
ENDROOT
BRANCH   1  11
ATOM     11  C   UNL     1      -1.036   0.859   0.000  0.00  0.00    +0.000 C 
ATOM     12  N   UNL     1      -1.741   1.283   0.000  0.00  0.00    +0.000 NA
ENDBRANCH   1  11
BRANCH   2  13
ATOM     13  C   UNL     1      -1.090  -0.832   0.000  0.00  0.00    +0.000 C 
ATOM     14  N   UNL     1      -1.803  -1.221   0.000  0.00  0.00    +0.000 NA
ENDBRANCH   2  13
TORSDOF 2
