REMARK  Name = 
REMARK  6 active torsions:
REMARK  status: ('A' for Active; 'I' for Inactive)
REMARK    1  A    between atoms: C_1  and  C_2
REMARK    2  A    between atoms: C_1  and  C_4
REMARK    3  A    between atoms: C_2  and  C_5
REMARK    4  A    between atoms: C_5  and  C_8
REMARK    5  A    between atoms: C_8  and  N_9
REMARK    6  A    between atoms: N_11  and  N_13
REMARK                            x       y       z     vdW  Elec       q    Type
REMARK                         _______ _______ _______ _____ _____    ______ ____
ROOT
ATOM      1  C   UNK     1       0.002   0.206   0.000  0.00  0.00    +0.000 C 
ENDROOT
BRANCH   1   2
ATOM      2  N   UNK     1      -0.713  -0.207   0.000  0.00  0.00    +0.000 NA
ATOM      3  C   UNK     1      -1.427   0.206   0.000  0.00  0.00    +0.000 C 
ATOM      4  N   UNK     1      -2.142  -0.207   0.000  0.00  0.00    +0.000 NA
ATOM      5  N   UNK     1      -1.427   1.031   0.000  0.00  0.00    +0.000 NA
BRANCH   4   6
ATOM      6  N   UNK     1      -2.858   0.207   0.000  0.00  0.00    +0.000 N 
ATOM      7  O   UNK     1      -2.858   1.032   0.000  0.00  0.00    +0.000 OA
ATOM      8  O   UNK     1      -3.574  -0.211   0.000  0.00  0.00    +0.000 OA
ENDBRANCH   4   6
ENDBRANCH   1   2
BRANCH   1   9
ATOM      9  C   UNK     1       0.716  -0.207   0.000  0.00  0.00    +0.000 C 
BRANCH   9  10
ATOM     10  C   UNK     1       1.431   0.206   0.000  0.00  0.00    +0.000 C 
BRANCH  10  11
ATOM     11  C   UNK     1       2.145  -0.207   0.000  0.00  0.00    +0.000 C 
ATOM     12  N   UNK     1       2.145  -1.032   0.000  0.00  0.00    +0.000 NA
BRANCH  11  13
ATOM     13  C   UNK     1       2.860   0.206   0.000  0.00  0.00    +0.000 C 
ATOM     14  O   UNK     1       3.574  -0.207   0.000  0.00  0.00    +0.000 OA
ATOM     15  O   UNK     1       2.860   1.031   0.000  0.00  0.00    +0.000 OA
ENDBRANCH  11  13
ENDBRANCH  10  11
ENDBRANCH   9  10
ENDBRANCH   1   9
TORSDOF 6
