REMARK  Name = 
REMARK  13 active torsions:
REMARK  status: ('A' for Active; 'I' for Inactive)
REMARK    1  A    between atoms: SG_2  and  CB_15
REMARK    2  A    between atoms: SG_2  and  C_19
REMARK    3  A    between atoms: N_9  and  CA_12
REMARK    4  A    between atoms: N_10  and  CA_22
REMARK    5  A    between atoms: N_11  and  CA_16
REMARK    6  A    between atoms: CA_12  and  CB_15
REMARK    7  A    between atoms: CA_12  and  C_18
REMARK    8  A    between atoms: C_13  and  C_14
REMARK    9  A    between atoms: C_13  and  CA_16
REMARK   10  A    between atoms: C_14  and  C_17
REMARK   11  A    between atoms: CA_16  and  C_20
REMARK   12  A    between atoms: C_19  and  C_21
REMARK   13  A    between atoms: CA_22  and  C_27
REMARK                            x       y       z     vdW  Elec       q    Type
REMARK                         _______ _______ _______ _____ _____    ______ ____
ROOT
ATOM      1  CA  UNL     1      -1.072   0.412   0.000  0.00  0.00    +0.000 C 
ENDROOT
BRANCH   1   3
ATOM      2  O   UNL     1       0.357   1.238   0.000  0.00  0.00    +0.000 OA
ATOM      3  N   UNL     1      -0.357   0.000   0.000  0.00  0.00    +0.000 N 
ATOM      4  C   UNL     1       0.357   0.412   0.000  0.00  0.00    +0.000 C 
ATOM      5  H   UNL     1      -0.357  -0.511   0.000  0.00  0.00    +0.000 HD
BRANCH   4   6
ATOM      6  C   UNL     1       1.072   0.000   0.000  0.00  0.00    +0.000 C 
BRANCH   6   7
ATOM      7  C   UNL     1       1.786   0.412   0.000  0.00  0.00    +0.000 C 
BRANCH   7   8
ATOM      8  CA  UNL     1       2.501   0.000   0.000  0.00  0.00    +0.000 C 
BRANCH   8   9
ATOM      9  N   UNL     1       2.501  -0.825   0.000  0.00  0.00    +0.000 NA
ATOM     10  H1  UNL     1       2.944  -1.081   0.000  0.00  0.00    +0.000 HD
ATOM     11  H2  UNL     1       2.058  -1.081   0.000  0.00  0.00    +0.000 HD
ENDBRANCH   8   9
BRANCH   8  14
ATOM     12  O   UNL     1       3.930   0.000   0.000  0.00  0.00    +0.000 OA
ATOM     13  OXT UNL     1       3.215   1.238   0.000  0.00  0.00    +0.000 OA
ATOM     14  C   UNL     1       3.215   0.412   0.000  0.00  0.00    +0.000 C 
ENDBRANCH   8  14
ENDBRANCH   7   8
ENDBRANCH   6   7
ENDBRANCH   4   6
ENDBRANCH   1   3
BRANCH   1  17
ATOM     15  O   UNL     1      -0.357   1.650   0.000  0.00  0.00    +0.000 OA
ATOM     16  N   UNL     1      -1.786   1.650   0.000  0.00  0.00    +0.000 N 
ATOM     17  C   ACE A   1      -1.072   1.238   0.000  0.00  0.00    +0.000 C 
ATOM     18  H   UNL     1      -2.229   1.394   0.000  0.00  0.00    +0.000 HD
BRANCH  16  19
ATOM     19  CA  UNL     1      -1.786   2.475   0.000  0.00  0.00    +0.000 C 
BRANCH  19  22
ATOM     20  O   UNL     1      -2.501   3.712   0.000  0.00  0.00    +0.000 OA
ATOM     21  OXT UNL     1      -3.215   2.475   0.000  0.00  0.00    +0.000 OA
ATOM     22  C   UNL     1      -2.501   2.888   0.000  0.00  0.00    +0.000 C 
ENDBRANCH  19  22
ENDBRANCH  16  19
ENDBRANCH   1  17
BRANCH   1  23
ATOM     23  CB  UNL     1      -1.786   0.000   0.000  0.00  0.00    +0.000 C 
BRANCH  23  24
ATOM     24  SG  UNL     1      -1.786  -0.825   0.000  0.00  0.00    +0.000 S 
BRANCH  24  25
ATOM     25  C   UNL     1      -2.501  -1.238   0.000  0.00  0.00    +0.000 C 
BRANCH  25  27
ATOM     26  I   UNL     1      -3.930  -2.062   0.000  0.00  0.00    +0.000 I 
ATOM     27  C   UNL     1      -2.501  -2.062   0.000  0.00  0.00    +0.000 A 
ATOM     28  C   UNL     1      -3.215  -2.475   0.000  0.00  0.00    +0.000 A 
ATOM     29  C   UNL     1      -1.786  -2.475   0.000  0.00  0.00    +0.000 A 
ATOM     30  C   UNL     1      -3.215  -3.300   0.000  0.00  0.00    +0.000 A 
ATOM     31  C   UNL     1      -1.786  -3.300   0.000  0.00  0.00    +0.000 A 
ATOM     32  C   UNL     1      -2.501  -3.712   0.000  0.00  0.00    +0.000 A 
ENDBRANCH  25  27
ENDBRANCH  24  25
ENDBRANCH  23  24
ENDBRANCH   1  23
TORSDOF 13
