REMARK  Name = 
REMARK  27 active torsions:
REMARK  status: ('A' for Active; 'I' for Inactive)
REMARK    1  A    between atoms: C_2  and  CA_6
REMARK    2  A    between atoms: NE_5  and  CD_9
REMARK    3  A    between atoms: CA_6  and  CB_10
REMARK    4  A    between atoms: CD_9  and  CG_11
REMARK    5  A    between atoms: CB_10  and  CG_11
REMARK    6  A    between atoms: C_13  and  CA_15
REMARK    7  A    between atoms: C_20  and  CA_22
REMARK    8  A    between atoms: N_26  and  CA_29
REMARK    9  A    between atoms: C_27  and  CA_29
REMARK   10  A    between atoms: N_28  and  CA_32
REMARK   11  A    between atoms: C_31  and  CA_32
REMARK   12  A    between atoms: CA_32  and  CB_34
REMARK   13  A    between atoms: N_33  and  CA_37
REMARK   14  A    between atoms: CB_34  and  CG_41
REMARK   15  A    between atoms: C_36  and  CA_37
REMARK   16  A    between atoms: CA_37  and  CB_39
REMARK   17  A    between atoms: C_47  and  CA_49
REMARK   18  A    between atoms: N_53  and  CA_55
REMARK   19  A    between atoms: C_54  and  CA_55
REMARK   20  A    between atoms: CA_55  and  CB_57
REMARK   21  A    between atoms: N_56  and  CA_70
REMARK   22  A    between atoms: CB_57  and  CG_59
REMARK   23  A    between atoms: C_66  and  CA_70
REMARK   24  A    between atoms: NE_69  and  CD_72
REMARK   25  A    between atoms: CA_70  and  CB_73
REMARK   26  A    between atoms: CD_72  and  CG_74
REMARK   27  A    between atoms: CB_73  and  CG_74
REMARK                            x       y       z     vdW  Elec       q    Type
REMARK                         _______ _______ _______ _____ _____    ______ ____
ROOT
ATOM      1  C   PHE A   5       0.377  -0.948   0.000  0.00  0.00    +0.000 C 
ATOM      2  N   SER A   6       1.091  -0.535   0.000  0.00  0.00    +0.000 NA
ATOM      3  O   PHE A   5       0.377  -1.773   0.000  0.00  0.00    +0.000 OA
ENDROOT
BRANCH   2   4
ATOM      4  CA  SER A   6       1.806  -0.948   0.000  0.00  0.00    +0.000 C 
BRANCH   4   5
ATOM      5  C   SER A   6       2.520  -0.535   0.000  0.00  0.00    +0.000 C 
ATOM      6  O   SER A   6       3.235  -0.948   0.000  0.00  0.00    +0.000 OA
ATOM      7  N   PRO A   7       2.520   0.290   0.000  0.00  0.00    +0.000 N 
ATOM      8  CA  PRO A   7       3.274   0.625   0.000  0.00  0.00    +0.000 C 
ATOM      9  CB  PRO A   7       3.188   1.446   0.000  0.00  0.00    +0.000 C 
ATOM     10  CG  PRO A   7       2.381   1.617   0.000  0.00  0.00    +0.000 C 
ATOM     11  CD  PRO A   7       1.968   0.903   0.000  0.00  0.00    +0.000 C 
BRANCH   8  12
ATOM     12  C   PRO A   7       3.988   0.213   0.000  0.00  0.00    +0.000 C 
ATOM     13  O   PRO A   7       3.988  -0.612   0.000  0.00  0.00    +0.000 OA
ATOM     14  N   PHE A   8       4.703   0.625   0.000  0.00  0.00    +0.000 NA
BRANCH  14  15
ATOM     15  CA  PHE A   8       5.417   0.213   0.000  0.00  0.00    +0.000 C 
BRANCH  15  16
ATOM     16  C   PHE A   8       6.132   0.625   0.000  0.00  0.00    +0.000 C 
ATOM     17  N   ARG A   9       6.846   0.213   0.000  0.00  0.00    +0.000 NA
ATOM     18  O   PHE A   8       6.132   1.450   0.000  0.00  0.00    +0.000 OA
BRANCH  17  19
ATOM     19  CA  ARG A   9       7.561   0.625   0.000  0.00  0.00    +0.000 C 
BRANCH  19  20
ATOM     20  C   ARG A   9       8.275   0.213   0.000  0.00  0.00    +0.000 C 
ATOM     21  O   ARG A   9       8.990   0.625   0.000  0.00  0.00    +0.000 OA
ATOM     22  OXT ARG A   9       8.275  -0.612   0.000  0.00  0.00    +0.000 OA
ENDBRANCH  19  20
BRANCH  19  23
ATOM     23  CB  ARG A   9       7.561   1.450   0.000  0.00  0.00    +0.000 C 
BRANCH  23  24
ATOM     24  CG  ARG A   9       6.846   1.863   0.000  0.00  0.00    +0.000 C 
BRANCH  24  25
ATOM     25  CD  ARG A   9       6.846   2.688   0.000  0.00  0.00    +0.000 C 
BRANCH  25  28
ATOM     26  CZ  ARG A   9       6.132   3.925   0.000  0.00  0.00    +0.000 C 
ATOM     27  NH1 ARG A   9       5.417   4.338   0.000  0.00  0.00    +0.000 NA
ATOM     28  NE  ARG A   9       6.132   3.100   0.000  0.00  0.00    +0.000 NA
ATOM     29  NH2 ARG A   9       6.846   4.338   0.000  0.00  0.00    +0.000 NA
ENDBRANCH  25  28
ENDBRANCH  24  25
ENDBRANCH  23  24
ENDBRANCH  19  23
ENDBRANCH  17  19
ENDBRANCH  15  16
BRANCH  15  30
ATOM     30  CB  PHE A   8       5.417  -0.612   0.000  0.00  0.00    +0.000 C 
BRANCH  30  31
ATOM     31  CG  PHE A   8       6.132  -1.025   0.000  0.00  0.00    +0.000 A 
ATOM     32  CZ  PHE A   8       7.561  -1.850   0.000  0.00  0.00    +0.000 A 
ATOM     33  CE1 PHE A   8       7.561  -1.025   0.000  0.00  0.00    +0.000 A 
ATOM     34  CE2 PHE A   8       6.846  -2.262   0.000  0.00  0.00    +0.000 A 
ATOM     35  CD1 PHE A   8       6.846  -0.612   0.000  0.00  0.00    +0.000 A 
ATOM     36  CD2 PHE A   8       6.132  -1.850   0.000  0.00  0.00    +0.000 A 
ENDBRANCH  30  31
ENDBRANCH  15  30
ENDBRANCH  14  15
ENDBRANCH   8  12
ENDBRANCH   4   5
BRANCH   4  37
ATOM     37  CB  SER A   6       1.806  -1.773   0.000  0.00  0.00    +0.000 C 
ATOM     38  OG  SER A   6       2.520  -2.185   0.000  0.00  0.00    +0.000 OA
ENDBRANCH   4  37
ENDBRANCH   2   4
BRANCH   1  39
ATOM     39  CA  PHE A   5      -0.338  -0.535   0.000  0.00  0.00    +0.000 C 
BRANCH  39  41
ATOM     40  C   GLY A   4      -1.052  -1.773   0.000  0.00  0.00    +0.000 C 
ATOM     41  N   PHE A   5      -1.052  -0.948   0.000  0.00  0.00    +0.000 NA
ATOM     42  O   GLY A   4      -0.338  -2.185   0.000  0.00  0.00    +0.000 OA
BRANCH  40  43
ATOM     43  CA  GLY A   4      -1.766  -2.185   0.000  0.00  0.00    +0.000 C 
BRANCH  43  46
ATOM     44  C   PRO A   3      -3.195  -2.185   0.000  0.00  0.00    +0.000 C 
ATOM     45  O   PRO A   3      -3.195  -3.010   0.000  0.00  0.00    +0.000 OA
ATOM     46  N   GLY A   4      -2.481  -1.773   0.000  0.00  0.00    +0.000 NA
BRANCH  44  50
ATOM     47  C   PRO A   2      -4.664  -2.933   0.000  0.00  0.00    +0.000 C 
ATOM     48  N   PRO A   3      -4.664  -2.108   0.000  0.00  0.00    +0.000 N 
ATOM     49  O   PRO A   2      -3.949  -3.346   0.000  0.00  0.00    +0.000 OA
ATOM     50  CA  PRO A   3      -3.910  -1.773   0.000  0.00  0.00    +0.000 C 
ATOM     51  CB  PRO A   3      -3.996  -0.952   0.000  0.00  0.00    +0.000 C 
ATOM     52  CG  PRO A   3      -4.803  -0.781   0.000  0.00  0.00    +0.000 C 
ATOM     53  CD  PRO A   3      -5.216  -1.495   0.000  0.00  0.00    +0.000 C 
BRANCH  47  57
ATOM     54  C   ARG A   1      -6.132  -2.185   0.000  0.00  0.00    +0.000 C 
ATOM     55  O   ARG A   1      -5.636  -1.952   0.000  0.00  0.00    +0.000 OA
ATOM     56  N   PRO A   2      -6.132  -3.010   0.000  0.00  0.00    +0.000 N 
ATOM     57  CA  PRO A   2      -5.378  -3.346   0.000  0.00  0.00    +0.000 C 
ATOM     58  CB  PRO A   2      -5.464  -4.166   0.000  0.00  0.00    +0.000 C 
ATOM     59  CG  PRO A   2      -6.271  -4.338   0.000  0.00  0.00    +0.000 C 
ATOM     60  CD  PRO A   2      -6.684  -3.623   0.000  0.00  0.00    +0.000 C 
BRANCH  54  61
ATOM     61  CA  ARG A   1      -6.846  -1.773   0.000  0.00  0.00    +0.000 C 
ATOM     62  N   ARG A   1      -7.561  -2.185   0.000  0.00  0.00    +0.000 NA
BRANCH  61  63
ATOM     63  CB  ARG A   1      -6.846  -0.948   0.000  0.00  0.00    +0.000 C 
BRANCH  63  64
ATOM     64  CG  ARG A   1      -7.561  -0.535   0.000  0.00  0.00    +0.000 C 
BRANCH  64  65
ATOM     65  CD  ARG A   1      -7.561   0.290   0.000  0.00  0.00    +0.000 C 
BRANCH  65  68
ATOM     66  CZ  ARG A   1      -8.275   1.527   0.000  0.00  0.00    +0.000 C 
ATOM     67  NH1 ARG A   1      -8.990   1.940   0.000  0.00  0.00    +0.000 NA
ATOM     68  NE  ARG A   1      -8.275   0.702   0.000  0.00  0.00    +0.000 NA
ATOM     69  NH2 ARG A   1      -7.561   1.940   0.000  0.00  0.00    +0.000 NA
ENDBRANCH  65  68
ENDBRANCH  64  65
ENDBRANCH  63  64
ENDBRANCH  61  63
ENDBRANCH  54  61
ENDBRANCH  47  57
ENDBRANCH  44  50
ENDBRANCH  43  46
ENDBRANCH  40  43
ENDBRANCH  39  41
BRANCH  39  70
ATOM     70  CB  PHE A   5      -0.338   0.290   0.000  0.00  0.00    +0.000 C 
BRANCH  70  71
ATOM     71  CG  PHE A   5      -1.052   0.702   0.000  0.00  0.00    +0.000 A 
ATOM     72  CD1 PHE A   5      -1.052   1.527   0.000  0.00  0.00    +0.000 A 
ATOM     73  CE1 PHE A   5      -1.767   1.940   0.000  0.00  0.00    +0.000 A 
ATOM     74  CD2 PHE A   5      -1.767   0.290   0.000  0.00  0.00    +0.000 A 
ATOM     75  CZ  PHE A   5      -2.481   1.527   0.000  0.00  0.00    +0.000 A 
ATOM     76  CE2 PHE A   5      -2.481   0.702   0.000  0.00  0.00    +0.000 A 
ENDBRANCH  70  71
ENDBRANCH  39  70
ENDBRANCH   1  39
TORSDOF 27
