REMARK  Name = 
REMARK  8 active torsions:
REMARK  status: ('A' for Active; 'I' for Inactive)
REMARK    1  A    between atoms: O_3  and  C_12
REMARK    2  A    between atoms: O_3  and  C_21
REMARK    3  A    between atoms: N_6  and  C_20
REMARK    4  A    between atoms: C_10  and  C_15
REMARK    5  A    between atoms: C_12  and  C_13
REMARK    6  A    between atoms: C_12  and  C_20
REMARK    7  A    between atoms: C_14  and  B_28
REMARK    8  A    between atoms: C_21  and  C_22
REMARK                            x       y       z     vdW  Elec       q    Type
REMARK                         _______ _______ _______ _____ _____    ______ ____
ROOT
ATOM      1  C   UNL     1       1.552   0.136   0.000  0.00  0.00    +0.000 C 
ENDROOT
BRANCH   1   2
ATOM      2  C   UNL     1       0.727   0.136   0.000  0.00  0.00    +0.000 A 
ATOM      3  C   UNL     1      -0.923   0.136   0.000  0.00  0.00    +0.000 A 
ATOM      4  C   UNL     1       0.314   0.850   0.000  0.00  0.00    +0.000 A 
ATOM      5  C   UNL     1       0.314  -0.579   0.000  0.00  0.00    +0.000 A 
ATOM      6  C   UNL     1      -0.511   0.850   0.000  0.00  0.00    +0.000 A 
ATOM      7  C   UNL     1      -0.511  -0.579   0.000  0.00  0.00    +0.000 A 
BRANCH   3  12
ATOM      8  O   UNL     1      -2.233  -0.532   0.000  0.00  0.00    +0.000 OA
ATOM      9  O   UNL     1      -2.233   0.803   0.000  0.00  0.00    +0.000 OA
ATOM     10  C   UNL     1      -3.018  -0.277   0.000  0.00  0.00    +0.000 C 
ATOM     11  C   UNL     1      -3.018   0.548   0.000  0.00  0.00    +0.000 C 
ATOM     12  B   UNL     1      -1.748   0.136   0.000  0.00  0.00    +0.000 B 
BRANCH  10  14
ATOM     13  O   UNL     1      -4.439  -0.426   0.000  0.00  0.00    +0.000 OA
ATOM     14  C   UNL     1      -3.686  -0.762   0.000  0.00  0.00    +0.000 C 
ENDBRANCH  10  14
ENDBRANCH   3  12
ENDBRANCH   1   2
BRANCH   1  15
ATOM     15  O   UNL     1       1.964  -0.579   0.000  0.00  0.00    +0.000 OA
BRANCH  15  17
ATOM     16  O   UNL     1       3.202   0.136   0.000  0.00  0.00    +0.000 OA
ATOM     17  C   UNL     1       2.789  -0.579   0.000  0.00  0.00    +0.000 C 
BRANCH  17  19
ATOM     18  N   UNL     1       3.202  -2.722   0.000  0.00  0.00    +0.000 NA
ATOM     19  C   UNL     1       3.202  -1.293   0.000  0.00  0.00    +0.000 A 
ATOM     20  C   UNL     1       4.027  -1.293   0.000  0.00  0.00    +0.000 A 
ATOM     21  C   UNL     1       2.789  -2.008   0.000  0.00  0.00    +0.000 A 
ATOM     22  C   UNL     1       4.439  -2.008   0.000  0.00  0.00    +0.000 A 
ATOM     23  C   UNL     1       4.027  -2.722   0.000  0.00  0.00    +0.000 A 
ENDBRANCH  17  19
ENDBRANCH  15  17
ENDBRANCH   1  15
BRANCH   1  24
ATOM     24  C   UNL     1       1.964   0.850   0.000  0.00  0.00    +0.000 C 
BRANCH  24  25
ATOM     25  N   UNL     1       2.789   0.850   0.000  0.00  0.00    +0.000 NA
ATOM     26  N   UNL     1       2.789   2.279   0.000  0.00  0.00    +0.000 N 
ATOM     27  N   UNL     1       4.027   1.565   0.000  0.00  0.00    +0.000 N 
ATOM     28  C   UNL     1       3.202   1.565   0.000  0.00  0.00    +0.000 C 
ATOM     29  H   UNL     1       2.278   2.279   0.000  0.00  0.00    +0.000 HD
ATOM     30  H   UNL     1       3.045   2.722   0.000  0.00  0.00    +0.000 HD
ATOM     31  H   UNL     1       4.282   1.122   0.000  0.00  0.00    +0.000 HD
ATOM     32  H   UNL     1       4.282   2.008   0.000  0.00  0.00    +0.000 HD
ENDBRANCH  24  25
ENDBRANCH   1  24
TORSDOF 8
