REMARK  Name = 
REMARK  6 active torsions:
REMARK  status: ('A' for Active; 'I' for Inactive)
REMARK    1  A    between atoms: C_4  and  C_5
REMARK    2  A    between atoms: N_7  and  C_8
REMARK    3  A    between atoms: N_7  and  C_15
REMARK    4  A    between atoms: C_8  and  C_9
REMARK    5  A    between atoms: C_15  and  C_16
REMARK    6  A    between atoms: C_19  and  C_22
REMARK                            x       y       z     vdW  Elec       q    Type
REMARK                         _______ _______ _______ _____ _____    ______ ____
ROOT
ATOM      1  C   UNL     1       4.229  -0.573   0.000  0.00  0.00    +0.000 C 
ATOM      2  O   UNL     1       4.083  -1.385   0.000  0.00  0.00    +0.000 OA
ATOM      3  N   UNL     1       5.006  -0.294   0.000  0.00  0.00    +0.000 N 
ENDROOT
BRANCH   1   7
ATOM      4  C   UNL     1       2.700   1.895   0.000  0.00  0.00    +0.000 C 
ATOM      5  N   UNL     1       2.896   1.094   0.000  0.00  0.00    +0.000 N 
ATOM      6  N   UNL     1       3.660   0.782   0.000  0.00  0.00    +0.000 NA
ATOM      7  C   UNL     1       3.599  -0.041   0.000  0.00  0.00    +0.000 A 
ATOM      8  C   UNL     1       2.798  -0.237   0.000  0.00  0.00    +0.000 A 
ATOM      9  C   UNL     1       2.364   0.464   0.000  0.00  0.00    +0.000 A 
ATOM     10  C   UNL     1       1.539   0.438   0.000  0.00  0.00    +0.000 A 
ATOM     11  C   UNL     1       1.149  -0.289   0.000  0.00  0.00    +0.000 A 
ATOM     12  O   UNL     1       1.584  -0.990   0.000  0.00  0.00    +0.000 OA
ATOM     13  C   UNL     1       2.408  -0.964   0.000  0.00  0.00    +0.000 C 
ATOM     14  C   UNL     1       0.325  -0.315   0.000  0.00  0.00    +0.000 A 
ATOM     15  C   UNL     1      -0.110   0.387   0.000  0.00  0.00    +0.000 A 
ATOM     16  C   UNL     1       0.280   1.114   0.000  0.00  0.00    +0.000 A 
ATOM     17 CL   UNL     1      -0.155   1.815   0.000  0.00  0.00    +0.000 Cl
ATOM     18  C   UNL     1       1.105   1.139   0.000  0.00  0.00    +0.000 A 
ENDBRANCH   1   7
BRANCH   3  19
ATOM     19  C   UNL     1       5.152   0.518   0.000  0.00  0.00    +0.000 C 
BRANCH  19  20
ATOM     20  C   UNL     1       5.928   0.797   0.000  0.00  0.00    +0.000 A 
ATOM     21  C   UNL     1       6.075   1.609   0.000  0.00  0.00    +0.000 A 
ATOM     22  C   UNL     1       6.851   1.889   0.000  0.00  0.00    +0.000 A 
ATOM     23  C   UNL     1       7.481   1.356   0.000  0.00  0.00    +0.000 A 
ATOM     24  C   UNL     1       7.335   0.544   0.000  0.00  0.00    +0.000 A 
ATOM     25  C   UNL     1       6.558   0.265   0.000  0.00  0.00    +0.000 A 
ENDBRANCH  19  20
ENDBRANCH   3  19
BRANCH   3  26
ATOM     26  C   UNL     1       5.636  -0.827   0.000  0.00  0.00    +0.000 C 
BRANCH  26  27
ATOM     27  C   UNL     1       5.490  -1.638   0.000  0.00  0.00    +0.000 A 
ATOM     28  C   UNL     1       6.120  -2.171   0.000  0.00  0.00    +0.000 A 
ATOM     29  C   UNL     1       5.973  -2.983   0.000  0.00  0.00    +0.000 A 
ATOM     30  C   UNL     1       5.197  -3.262   0.000  0.00  0.00    +0.000 A 
ATOM     31  C   UNL     1       4.567  -2.730   0.000  0.00  0.00    +0.000 A 
ATOM     32  C   UNL     1       4.713  -1.918   0.000  0.00  0.00    +0.000 A 
BRANCH  30  33
ATOM     33  C   UNL     1       5.051  -4.074   0.000  0.00  0.00    +0.000 C 
ATOM     34  O   UNL     1       4.275  -4.354   0.000  0.00  0.00    +0.000 OA
ATOM     35  O   UNL     1       5.681  -4.607   0.000  0.00  0.00    +0.000 OA
ENDBRANCH  30  33
ENDBRANCH  26  27
ENDBRANCH   3  26
TORSDOF 6
