REMARK  Name = 
REMARK  5 active torsions:
REMARK  status: ('A' for Active; 'I' for Inactive)
REMARK    1  A    between atoms: C_2  and  C_4
REMARK    2  A    between atoms: C_6  and  S_15
REMARK    3  A    between atoms: C_9  and  C_10
REMARK    4  A    between atoms: C_10  and  C_12
REMARK    5  A    between atoms: S_15  and  C_16
REMARK                            x       y       z     vdW  Elec       q    Type
REMARK                         _______ _______ _______ _____ _____    ______ ____
ROOT
ATOM      1  N   UNL     1       0.647   0.003   0.000  0.00  0.00    +0.000 N 
ATOM      2  C   UNL     1       1.314   0.487   0.000  0.00  0.00    +0.000 C 
ATOM      3  C   UNL     1      -0.021   0.487   0.000  0.00  0.00    +0.000 C 
ATOM      4  C   UNL     1       0.234   1.272   0.000  0.00  0.00    +0.000 C 
ATOM      5  C   UNL     1       1.059   1.272   0.000  0.00  0.00    +0.000 C 
ATOM      6  C   UNL     1       0.667  -0.823   0.000  0.00  0.00    +0.000 C 
ATOM      7  O   UNL     1       1.398  -1.229   0.000  0.00  0.00    +0.000 OA
ENDROOT
BRANCH   2   8
ATOM      8  C   UNL     1       2.099   0.233   0.000  0.00  0.00    +0.000 C 
ATOM      9  O   UNL     1       2.270  -0.574   0.000  0.00  0.00    +0.000 OA
ATOM     10  O   UNL     1       2.712   0.784   0.000  0.00  0.00    +0.000 OA
ENDBRANCH   2   8
BRANCH   6  11
ATOM     11  C   UNL     1      -0.044  -1.241   0.000  0.00  0.00    +0.000 C 
ATOM     12  C   UNL     1      -0.775  -0.835   0.000  0.00  0.00    +0.000 C 
BRANCH  11  13
ATOM     13  C   UNL     1      -0.044  -2.103   0.000  0.00  0.00    +0.000 C 
ATOM     14  S   UNL     1      -0.755  -2.521   0.000  0.00  0.00    +0.000 S 
ENDBRANCH  11  13
ENDBRANCH   6  11
BRANCH   4  15
ATOM     15  S   UNL     1      -0.250   1.940   0.000  0.00  0.00    +0.000 S 
BRANCH  15  16
ATOM     16  C   UNL     1      -1.071   1.854   0.000  0.00  0.00    +0.000 A 
ATOM     17  C   UNL     1      -1.556   2.521   0.000  0.00  0.00    +0.000 A 
ATOM     18  C   UNL     1      -1.407   1.100   0.000  0.00  0.00    +0.000 A 
ATOM     19  C   UNL     1      -2.376   2.435   0.000  0.00  0.00    +0.000 A 
ATOM     20  C   UNL     1      -2.227   1.014   0.000  0.00  0.00    +0.000 A 
ATOM     21  C   UNL     1      -2.712   1.681   0.000  0.00  0.00    +0.000 A 
ENDBRANCH  15  16
ENDBRANCH   4  15
TORSDOF 5
