REMARK  Name = 
REMARK  9 active torsions:
REMARK  status: ('A' for Active; 'I' for Inactive)
REMARK    1  A    between atoms: C_1  and  C_2
REMARK    2  A    between atoms: C_1  and  S_5
REMARK    3  A    between atoms: S_5  and  C_6
REMARK    4  A    between atoms: C_6  and  S_7
REMARK    5  A    between atoms: C_6  and  S_12
REMARK    6  A    between atoms: S_7  and  C_8
REMARK    7  A    between atoms: C_8  and  C_9
REMARK    8  A    between atoms: S_12  and  C_13
REMARK    9  A    between atoms: C_13  and  C_14
REMARK                            x       y       z     vdW  Elec       q    Type
REMARK                         _______ _______ _______ _____ _____    ______ ____
ROOT
ATOM      1  C   UNL     1       3.904   3.079   0.000  0.00  0.00    +0.000 C 
ENDROOT
BRANCH   1   2
ATOM      2  S   UNL     1       3.189   2.666   0.000  0.00  0.00    +0.000 S 
BRANCH   2   3
ATOM      3  C   UNL     1       3.189   1.841   0.000  0.00  0.00    +0.000 C 
BRANCH   3   4
ATOM      4  C   UNL     1       2.475   1.429   0.000  0.00  0.00    +0.000 C 
ATOM      5  O   UNL     1       2.475   0.604   0.000  0.00  0.00    +0.000 OA
ATOM      6  O   UNL     1       1.760   1.841   0.000  0.00  0.00    +0.000 OA
ENDBRANCH   3   4
ENDBRANCH   2   3
ENDBRANCH   1   2
BRANCH   1   7
ATOM      7  S   UNL     1       3.904   3.904   0.000  0.00  0.00    +0.000 S 
BRANCH   7   8
ATOM      8  C   UNL     1       4.618   4.316   0.000  0.00  0.00    +0.000 C 
BRANCH   8   9
ATOM      9  C   UNL     1       4.618   5.141   0.000  0.00  0.00    +0.000 C 
ATOM     10  O   UNL     1       5.333   5.554   0.000  0.00  0.00    +0.000 OA
ATOM     11  O   UNL     1       3.904   5.554   0.000  0.00  0.00    +0.000 OA
ENDBRANCH   8   9
ENDBRANCH   7   8
ENDBRANCH   1   7
BRANCH   1  12
ATOM     12  S   UNL     1       4.618   2.666   0.000  0.00  0.00    +0.000 S 
BRANCH  12  13
ATOM     13  C   UNL     1       4.618   1.841   0.000  0.00  0.00    +0.000 C 
BRANCH  13  14
ATOM     14  C   UNL     1       5.333   1.429   0.000  0.00  0.00    +0.000 C 
ATOM     15  O   UNL     1       6.047   1.841   0.000  0.00  0.00    +0.000 OA
ATOM     16  O   UNL     1       5.333   0.604   0.000  0.00  0.00    +0.000 OA
ENDBRANCH  13  14
ENDBRANCH  12  13
ENDBRANCH   1  12
TORSDOF 9
