REMARK  Name = 
REMARK  10 active torsions:
REMARK  status: ('A' for Active; 'I' for Inactive)
REMARK    1  A    between atoms: C_2  and  C_3
REMARK    2  A    between atoms: C_3  and  O_4
REMARK    3  A    between atoms: C_3  and  C_36
REMARK    4  A    between atoms: O_4  and  C_5
REMARK    5  A    between atoms: C_7  and  N_11
REMARK    6  A    between atoms: C_14  and  C_15
REMARK    7  A    between atoms: C_15  and  C_17
REMARK    8  A    between atoms: C_20  and  O_21
REMARK    9  A    between atoms: C_28  and  O_29
REMARK   10  A    between atoms: O_29  and  C_30
REMARK                            x       y       z     vdW  Elec       q    Type
REMARK                         _______ _______ _______ _____ _____    ______ ____
ROOT
ATOM      1  N   UNL     1       1.139  -1.365   0.000  0.00  0.00    +0.000 N 
ATOM      2  C   UNL     1       0.654  -0.698   0.000  0.00  0.00    +0.000 A 
ATOM      3  C   UNL     1      -0.171  -0.698   0.000  0.00  0.00    +0.000 C 
ATOM      4  C   UNL     1       1.139  -0.030   0.000  0.00  0.00    +0.000 A 
ATOM      5  C   UNL     1       1.923  -0.285   0.000  0.00  0.00    +0.000 A 
ATOM      6  C   UNL     1       2.638   0.127   0.000  0.00  0.00    +0.000 A 
ATOM      7  C   UNL     1       3.352  -0.285   0.000  0.00  0.00    +0.000 A 
ATOM      8  C   UNL     1       3.352  -1.110   0.000  0.00  0.00    +0.000 A 
ATOM      9  C   UNL     1       2.638  -1.523   0.000  0.00  0.00    +0.000 A 
ATOM     10  C   UNL     1       1.923  -1.110   0.000  0.00  0.00    +0.000 A 
ENDROOT
BRANCH   1  13
ATOM     11  C   UNL     1      -0.178  -3.106   0.000  0.00  0.00    +0.000 A 
ATOM     12  C   UNL     1       0.077  -2.321   0.000  0.00  0.00    +0.000 A 
ATOM     13  C   UNL     1       0.884  -2.150   0.000  0.00  0.00    +0.000 A 
ATOM     14  C   UNL     1       1.436  -2.763   0.000  0.00  0.00    +0.000 A 
ATOM     15  C   UNL     1       1.181  -3.548   0.000  0.00  0.00    +0.000 A 
ATOM     16  C   UNL     1       0.374  -3.719   0.000  0.00  0.00    +0.000 A 
BRANCH  11  17
ATOM     17  O   UNL     1      -0.985  -3.278   0.000  0.00  0.00    +0.000 OA
BRANCH  17  18
ATOM     18  C   UNL     1      -1.240  -4.062   0.000  0.00  0.00    +0.000 C 
BRANCH  18  19
ATOM     19  C   UNL     1      -0.688  -4.675   0.000  0.00  0.00    +0.000 C 
ATOM     20  O   UNL     1       0.119  -4.504   0.000  0.00  0.00    +0.000 OA
ATOM     21  O   UNL     1      -0.943  -5.460   0.000  0.00  0.00    +0.000 OA
ENDBRANCH  18  19
BRANCH  18  23
ATOM     22  C   UNL     1      -2.302  -5.018   0.000  0.00  0.00    +0.000 C 
ATOM     23  C   UNL     1      -2.047  -4.234   0.000  0.00  0.00    +0.000 C 
ENDBRANCH  18  23
ENDBRANCH  17  18
ENDBRANCH  11  17
ENDBRANCH   1  13
BRANCH   4  24
ATOM     24  C   UNL     1       0.884   0.754   0.000  0.00  0.00    +0.000 C 
ATOM     25  O   UNL     1       0.077   0.926   0.000  0.00  0.00    +0.000 OA
BRANCH  24  26
ATOM     26  C   UNL     1       1.436   1.367   0.000  0.00  0.00    +0.000 A 
ATOM     27  C   UNL     1       1.181   2.152   0.000  0.00  0.00    +0.000 A 
ATOM     28  C   UNL     1       1.733   2.765   0.000  0.00  0.00    +0.000 A 
ATOM     29  C   UNL     1       2.540   2.593   0.000  0.00  0.00    +0.000 A 
ATOM     30  C   UNL     1       2.795   1.809   0.000  0.00  0.00    +0.000 A 
ATOM     31  C   UNL     1       2.243   1.196   0.000  0.00  0.00    +0.000 A 
BRANCH  29  32
ATOM     32  O   UNL     1       3.092   3.207   0.000  0.00  0.00    +0.000 OA
ATOM     33  C   UNL     1       2.837   3.991   0.000  0.00  0.00    +0.000 C 
ENDBRANCH  29  32
ENDBRANCH  24  26
ENDBRANCH   4  24
BRANCH   8  34
ATOM     34  O   UNL     1       4.067  -1.523   0.000  0.00  0.00    +0.000 OA
BRANCH  34  35
ATOM     35  C   UNL     1       4.067  -2.348   0.000  0.00  0.00    +0.000 C 
ATOM     36  F   UNL     1       3.242  -2.348   0.000  0.00  0.00    +0.000 F 
ATOM     37  F   UNL     1       4.892  -2.348   0.000  0.00  0.00    +0.000 F 
ATOM     38  F   UNL     1       4.067  -3.173   0.000  0.00  0.00    +0.000 F 
ENDBRANCH  34  35
ENDBRANCH   8  34
TORSDOF 10
