REMARK  Name = 
REMARK  5 active torsions:
REMARK  status: ('A' for Active; 'I' for Inactive)
REMARK    1  A    between atoms: C_4  and  C_27
REMARK    2  A    between atoms: C_8  and  C_10
REMARK    3  A    between atoms: N_15  and  C_18
REMARK    4  A    between atoms: C_18  and  C_19
REMARK    5  A    between atoms: C_19  and  C_20
REMARK                            x       y       z     vdW  Elec       q    Type
REMARK                         _______ _______ _______ _____ _____    ______ ____
ROOT
ATOM      1  C   UNL     1       1.356   3.173   0.000  0.00  0.00    +0.000 C 
ATOM      2  O   UNL     1       0.641   3.585   0.000  0.00  0.00    +0.000 OA
ATOM      3  N   UNL     1       2.070   3.585   0.000  0.00  0.00    +0.000 N 
ATOM      4  C   UNL     1       2.070   4.410   0.000  0.00  0.00    +0.000 C 
ATOM      5  C   UNL     1       2.784   4.823   0.000  0.00  0.00    +0.000 C 
ATOM      6  N   UNL     1       3.499   4.410   0.000  0.00  0.00    +0.000 NA
ATOM      7  C   UNL     1       3.499   3.585   0.000  0.00  0.00    +0.000 C 
ATOM      8  C   UNL     1       2.784   3.173   0.000  0.00  0.00    +0.000 C 
ENDROOT
BRANCH   1  16
ATOM      9  C   UNL     1       2.070   1.110   0.000  0.00  0.00    +0.000 A 
ATOM     10  C   UNL     1       1.356   0.698   0.000  0.00  0.00    +0.000 A 
ATOM     11  C   UNL     1       0.641   1.110   0.000  0.00  0.00    +0.000 A 
ATOM     12  C   UNL     1      -0.143   0.856   0.000  0.00  0.00    +0.000 A 
ATOM     13  C   UNL     1      -0.628   1.523   0.000  0.00  0.00    +0.000 A 
ATOM     14  N   UNL     1      -0.143   2.190   0.000  0.00  0.00    +0.000 NA
ATOM     15  C   UNL     1       0.641   1.935   0.000  0.00  0.00    +0.000 A 
ATOM     16  C   UNL     1       1.356   2.348   0.000  0.00  0.00    +0.000 A 
ATOM     17  C   UNL     1       2.070   1.935   0.000  0.00  0.00    +0.000 A 
BRANCH  12  18
ATOM     18  C   UNL     1      -0.398   0.071   0.000  0.00  0.00    +0.000 C 
ATOM     19  N   UNL     1      -0.653  -0.714   0.000  0.00  0.00    +0.000 NA
ENDBRANCH  12  18
ENDBRANCH   1  16
BRANCH   6  20
ATOM     20  C   UNL     1       4.213   4.823   0.000  0.00  0.00    +0.000 C 
BRANCH  20  21
ATOM     21  C   UNL     1       4.928   4.410   0.000  0.00  0.00    +0.000 C 
BRANCH  21  22
ATOM     22  C   UNL     1       5.642   4.823   0.000  0.00  0.00    +0.000 A 
ATOM     23  C   UNL     1       5.642   5.648   0.000  0.00  0.00    +0.000 A 
ATOM     24  C   UNL     1       6.357   6.060   0.000  0.00  0.00    +0.000 A 
ATOM     25  C   UNL     1       7.071   5.648   0.000  0.00  0.00    +0.000 A 
ATOM     26  C   UNL     1       7.071   4.823   0.000  0.00  0.00    +0.000 A 
ATOM     27  C   UNL     1       6.357   4.410   0.000  0.00  0.00    +0.000 A 
ATOM     28  F   UNL     1       7.786   6.060   0.000  0.00  0.00    +0.000 F 
ENDBRANCH  21  22
ENDBRANCH  20  21
ENDBRANCH   6  20
TORSDOF 5
