REMARK  Name = 
REMARK  2 active torsions:
REMARK  status: ('A' for Active; 'I' for Inactive)
REMARK    1  A    between atoms: C_5  and  C_6
REMARK    2  A    between atoms: C_6  and  C_13
REMARK                            x       y       z     vdW  Elec       q    Type
REMARK                         _______ _______ _______ _____ _____    ______ ____
ROOT
ATOM      1  C   UNL     1       3.094  -1.835   0.000  0.00  0.00    +0.000 C 
ATOM      2  C   UNL     1       2.219   1.305   0.000  0.00  0.00    +0.000 C 
ATOM      3  C   UNL     1       1.300   1.835   0.000  0.00  0.00    +0.000 C 
ATOM      4  C   UNL     1       3.094  -0.406   0.000  0.00  0.00    +0.000 A 
ATOM      5  C   UNL     1       2.681   0.308   0.000  0.00  0.00    +0.000 A 
ATOM      6  C   UNL     1       1.856  -1.121   0.000  0.00  0.00    +0.000 A 
ATOM      7  C   UNL     1      -0.619  -1.121   0.000  0.00  0.00    +0.000 A 
ATOM      8  C   UNL     1      -0.619   0.308   0.000  0.00  0.00    +0.000 A 
ATOM      9  C   UNL     1       2.681  -1.121   0.000  0.00  0.00    +0.000 A 
ATOM     10  C   UNL     1      -1.031  -0.406   0.000  0.00  0.00    +0.000 A 
ATOM     11  C   UNL     1       1.444  -0.406   0.000  0.00  0.00    +0.000 A 
ATOM     12  C   UNL     1       1.856   0.308   0.000  0.00  0.00    +0.000 A 
ATOM     13  C   UNL     1       0.206  -1.121   0.000  0.00  0.00    +0.000 A 
ATOM     14  C   UNL     1       0.206   0.308   0.000  0.00  0.00    +0.000 A 
ATOM     15  C   UNL     1       0.619  -0.406   0.000  0.00  0.00    +0.000 A 
ATOM     16  C   UNL     1       1.444   1.023   0.000  0.00  0.00    +0.000 C 
ATOM     17  O   UNL     1       0.619  -1.835   0.000  0.00  0.00    +0.000 OA
ATOM     18  O   UNL     1       0.619   1.023   0.000  0.00  0.00    +0.000 OA
ENDROOT
BRANCH  10  19
ATOM     19  C   UNL     1      -1.856  -0.406   0.000  0.00  0.00    +0.000 C 
BRANCH  19  21
ATOM     20  C   UNL     1      -3.094   0.308   0.000  0.00  0.00    +0.000 C 
ATOM     21  C   UNL     1      -2.269   0.308   0.000  0.00  0.00    +0.000 C 
ENDBRANCH  19  21
ENDBRANCH  10  19
TORSDOF 2
