REMARK  Name = 
REMARK  10 active torsions:
REMARK  status: ('A' for Active; 'I' for Inactive)
REMARK    1  A    between atoms: O_2  and  C_30
REMARK    2  A    between atoms: C_16  and  C_18
REMARK    3  A    between atoms: C_17  and  C_22
REMARK    4  A    between atoms: CA_27  and  C_40
REMARK    5  A    between atoms: C_29  and  C_30
REMARK    6  A    between atoms: C_29  and  C_36
REMARK    7  A    between atoms: C_30  and  C_35
REMARK    8  A    between atoms: CA_31  and  C_42
REMARK    9  A    between atoms: C_33  and  C_37
REMARK   10  A    between atoms: C_35  and  C_41
REMARK                            x       y       z     vdW  Elec       q    Type
REMARK                         _______ _______ _______ _____ _____    ______ ____
ROOT
ATOM      1  O   UNL     1       1.119  -0.364   0.000  0.00  0.00    +0.000 OA
ATOM      2  O   UNL     1      -2.752   0.964   0.000  0.00  0.00    +0.000 OA
ATOM      3  O   UNL     1       3.266   1.968   0.000  0.00  0.00    +0.000 OA
ATOM      4  O   UNL     1      -1.548   5.716   0.000  0.00  0.00    +0.000 OA
ATOM      5  O   UNL     1       1.623   5.716   0.000  0.00  0.00    +0.000 OA
ATOM      6  N   UNL     1       0.037   0.280   0.000  0.00  0.00    +0.000 N 
ATOM      7  N   UNL     1       2.135   1.415   0.000  0.00  0.00    +0.000 N 
ATOM      8  N   UNL     1      -2.392   2.171   0.000  0.00  0.00    +0.000 N 
ATOM      9  N   UNL     1       1.881   4.484   0.000  0.00  0.00    +0.000 N 
ATOM     10  N   UNL     1      -0.375   5.258   0.000  0.00  0.00    +0.000 N 
ATOM     11  C   UNL     1       1.577   0.808   0.000  0.00  0.00    +0.000 C 
ATOM     12  C   UNL     1      -0.776   0.416   0.000  0.00  0.00    +0.000 C 
ATOM     13  C   UNL     1      -1.502   0.808   0.000  0.00  0.00    +0.000 C 
ATOM     14  C   UNL     1       0.851   0.416   0.000  0.00  0.00    +0.000 C 
ATOM     15  C   UNL     1       2.535   2.993   0.000  0.00  0.00    +0.000 C 
ATOM     16  C   UNL     1      -2.061   1.415   0.000  0.00  0.00    +0.000 C 
ATOM     17  C   UNL     1       2.467   2.171   0.000  0.00  0.00    +0.000 C 
ATOM     18  CA  UNL     1       2.332   3.793   0.000  0.00  0.00    +0.000 C 
ATOM     19  C   UNL     1      -2.009   0.157   0.000  0.00  0.00    +0.000 C 
ATOM     20  CA  UNL     1      -2.460   2.993   0.000  0.00  0.00    +0.000 C 
ATOM     21  C   UNL     1      -2.258   3.793   0.000  0.00  0.00    +0.000 C 
ATOM     22  C   UNL     1       3.357   3.061   0.000  0.00  0.00    +0.000 C 
ATOM     23  C   UNL     1      -1.807   4.484   0.000  0.00  0.00    +0.000 C 
ATOM     24  C   UNL     1      -1.155   4.990   0.000  0.00  0.00    +0.000 C 
ATOM     25  C   UNL     1       1.230   4.990   0.000  0.00  0.00    +0.000 C 
ATOM     26  C   UNL     1       0.450   5.258   0.000  0.00  0.00    +0.000 C 
ATOM     27  C   UNL     1      -0.511   6.072   0.000  0.00  0.00    +0.000 C 
ATOM     28  C   UNL     1       0.586   6.072   0.000  0.00  0.00    +0.000 C 
ATOM     29  C   UNL     1      -0.051   6.596   0.000  0.00  0.00    +0.000 C 
ATOM     30  H   UNL     1       0.037  -0.231   0.000  0.00  0.00    +0.000 HD
ATOM     31  H   UNL     1       2.563   1.136   0.000  0.00  0.00    +0.000 HD
ATOM     32  H   UNL     1      -2.888   2.045   0.000  0.00  0.00    +0.000 HD
ATOM     33  H   UNL     1       2.257   4.830   0.000  0.00  0.00    +0.000 HD
ENDROOT
BRANCH  18  36
ATOM     34  O   UNL     1       3.179   4.944   0.000  0.00  0.00    +0.000 OA
ATOM     35  OXT UNL     1       3.753   3.636   0.000  0.00  0.00    +0.000 OA
ATOM     36  C   UNL     1       3.088   4.124   0.000  0.00  0.00    +0.000 C 
ENDBRANCH  18  36
BRANCH  20  39
ATOM     37  O   UNL     1      -3.635   3.807   0.000  0.00  0.00    +0.000 OA
ATOM     38  OXT UNL     1      -3.753   2.383   0.000  0.00  0.00    +0.000 OA
ATOM     39  C   UNL     1      -3.283   3.061   0.000  0.00  0.00    +0.000 C 
ENDBRANCH  20  39
BRANCH  11  40
ATOM     40  C   UNL     1       2.083   0.157   0.000  0.00  0.00    +0.000 C 
ATOM     41  C   UNL     1       2.900   0.271   0.000  0.00  0.00    +0.000 C 
ATOM     42  C   UNL     1       1.773  -0.607   0.000  0.00  0.00    +0.000 C 
ENDBRANCH  11  40
BRANCH  12  43
ATOM     43  C   UNL     1      -1.044  -0.364   0.000  0.00  0.00    +0.000 C 
ATOM     44  C   UNL     1      -0.502  -0.987   0.000  0.00  0.00    +0.000 C 
BRANCH  44  46
ATOM     45  C   UNL     1      -0.229  -2.389   0.000  0.00  0.00    +0.000 C 
ATOM     46  C   UNL     1      -0.770  -1.767   0.000  0.00  0.00    +0.000 C 
ATOM     47  C   UNL     1      -1.580  -1.925   0.000  0.00  0.00    +0.000 C 
BRANCH  45  48
ATOM     48  C   UNL     1      -0.496  -3.169   0.000  0.00  0.00    +0.000 C 
ATOM     49  C   UNL     1      -1.306  -3.328   0.000  0.00  0.00    +0.000 C 
BRANCH  48  50
ATOM     50  C   UNL     1       0.045  -3.792   0.000  0.00  0.00    +0.000 C 
BRANCH  50  51
ATOM     51  O   UNL     1       0.855  -3.633   0.000  0.00  0.00    +0.000 OA
ATOM     52  C   UNL     1       1.397  -4.255   0.000  0.00  0.00    +0.000 C 
ENDBRANCH  50  51
BRANCH  50  53
ATOM     53  C   UNL     1      -0.223  -4.572   0.000  0.00  0.00    +0.000 C 
BRANCH  53  54
ATOM     54  C   UNL     1       0.319  -5.194   0.000  0.00  0.00    +0.000 A 
ATOM     55  C   UNL     1       1.129  -5.036   0.000  0.00  0.00    +0.000 A 
ATOM     56  C   UNL     1       0.051  -5.974   0.000  0.00  0.00    +0.000 A 
ATOM     57  C   UNL     1       1.671  -5.658   0.000  0.00  0.00    +0.000 A 
ATOM     58  C   UNL     1       0.593  -6.596   0.000  0.00  0.00    +0.000 A 
ATOM     59  C   UNL     1       1.403  -6.438   0.000  0.00  0.00    +0.000 A 
ENDBRANCH  53  54
ENDBRANCH  50  53
ENDBRANCH  48  50
ENDBRANCH  45  48
ENDBRANCH  44  46
ENDBRANCH  12  43
TORSDOF 10
