REMARK  Name = 
REMARK  3 active torsions:
REMARK  status: ('A' for Active; 'I' for Inactive)
REMARK    1  A    between atoms: C_4  and  C_7
REMARK    2  A    between atoms: C_13  and  C_16
REMARK    3  A    between atoms: C_16  and  C_17
REMARK                            x       y       z     vdW  Elec       q    Type
REMARK                         _______ _______ _______ _____ _____    ______ ____
ROOT
ATOM      1  C   UNL     1      -3.959  -0.879   0.000  0.00  0.00    +0.000 A 
ATOM      2  C   UNL     1      -4.511  -0.266   0.000  0.00  0.00    +0.000 A 
ATOM      3  C   UNL     1      -4.256   0.518   0.000  0.00  0.00    +0.000 A 
ATOM      4  C   UNL     1      -3.449   0.690   0.000  0.00  0.00    +0.000 A 
ATOM      5  N   UNL     1      -3.037   1.405   0.000  0.00  0.00    +0.000 NA
ATOM      6  N   UNL     1      -2.230   1.233   0.000  0.00  0.00    +0.000 NA
ATOM      7  C   UNL     1      -2.143   0.412   0.000  0.00  0.00    +0.000 A 
ATOM      8  N   UNL     1      -2.897   0.077   0.000  0.00  0.00    +0.000 N 
ATOM      9  N   UNL     1      -3.152  -0.708   0.000  0.00  0.00    +0.000 NA
ENDROOT
BRANCH   1  13
ATOM     10  C   UNL     1      -5.666  -3.229   0.000  0.00  0.00    +0.000 C 
ATOM     11  N   UNL     1      -4.999  -2.744   0.000  0.00  0.00    +0.000 N 
ATOM     12  C   UNL     1      -4.999  -1.919   0.000  0.00  0.00    +0.000 A 
ATOM     13  C   UNL     1      -4.214  -1.664   0.000  0.00  0.00    +0.000 A 
ATOM     14  C   UNL     1      -3.729  -2.331   0.000  0.00  0.00    +0.000 A 
ATOM     15  N   UNL     1      -4.214  -2.999   0.000  0.00  0.00    +0.000 NA
ENDBRANCH   1  13
BRANCH   7  16
ATOM     16  C   UNL     1      -1.429   0.000   0.000  0.00  0.00    +0.000 C 
ATOM     17  F   UNL     1      -1.841  -0.715   0.000  0.00  0.00    +0.000 F 
ATOM     18  F   UNL     1      -1.016   0.715   0.000  0.00  0.00    +0.000 F 
BRANCH  16  19
ATOM     19  C   UNL     1      -0.715  -0.412   0.000  0.00  0.00    +0.000 A 
ATOM     20  C   UNL     1      -0.715  -1.238   0.000  0.00  0.00    +0.000 A 
ATOM     21  C   UNL     1       0.000  -1.650   0.000  0.00  0.00    +0.000 A 
ATOM     22  C   UNL     1       0.715  -1.238   0.000  0.00  0.00    +0.000 A 
ATOM     23  C   UNL     1       0.715  -0.412   0.000  0.00  0.00    +0.000 A 
ATOM     24  C   UNL     1       0.000   0.000   0.000  0.00  0.00    +0.000 A 
ATOM     25  C   UNL     1       1.429   0.000   0.000  0.00  0.00    +0.000 A 
ATOM     26  C   UNL     1       2.143  -0.412   0.000  0.00  0.00    +0.000 A 
ATOM     27  C   UNL     1       2.143  -1.238   0.000  0.00  0.00    +0.000 A 
ATOM     28  N   UNL     1       1.429  -1.650   0.000  0.00  0.00    +0.000 NA
ENDBRANCH  16  19
ENDBRANCH   7  16
TORSDOF 3
