REMARK  Name = 
REMARK  12 active torsions:
REMARK  status: ('A' for Active; 'I' for Inactive)
REMARK    1  A    between atoms: O_2  and  C_3
REMARK    2  A    between atoms: C_3  and  C_20
REMARK    3  A    between atoms: C_7  and  N_8
REMARK    4  A    between atoms: C_12  and  C_14
REMARK    5  A    between atoms: C_14  and  C_16
REMARK    6  A    between atoms: C_16  and  C_18
REMARK    7  A    between atoms: N_22  and  C_23
REMARK    8  A    between atoms: C_35  and  C_36
REMARK    9  A    between atoms: C_36  and  C_38
REMARK   10  A    between atoms: C_38  and  C_39
REMARK   11  A    between atoms: C_39  and  C_40
REMARK   12  A    between atoms: C_40  and  C_41
REMARK                            x       y       z     vdW  Elec       q    Type
REMARK                         _______ _______ _______ _____ _____    ______ ____
ROOT
ATOM      1  C   UNL     1       2.046  -0.680   0.000  0.00  0.00    +0.000 C 
ATOM      2  C   UNL     1       2.326  -1.456   0.000  0.00  0.00    +0.000 C 
ATOM      3  C   UNL     1       3.138  -1.601   0.000  0.00  0.00    +0.000 C 
ATOM      4  C   UNL     1       3.670  -0.970   0.000  0.00  0.00    +0.000 C 
ATOM      5  C   UNL     1       3.950  -1.746   0.000  0.00  0.00    +0.000 C 
ATOM      6  C   UNL     1       3.390  -0.194   0.000  0.00  0.00    +0.000 C 
ATOM      7  C   UNL     1       3.921   0.436   0.000  0.00  0.00    +0.000 C 
ATOM      8  C   UNL     1       4.734   0.291   0.000  0.00  0.00    +0.000 C 
ATOM      9  C   UNL     1       5.014  -0.485   0.000  0.00  0.00    +0.000 C 
ATOM     10  C   UNL     1       5.826  -0.630   0.000  0.00  0.00    +0.000 C 
ATOM     11  C   UNL     1       6.477  -0.124   0.000  0.00  0.00    +0.000 C 
ATOM     12  C   UNL     1       7.160  -0.587   0.000  0.00  0.00    +0.000 C 
ATOM     13  C   UNL     1       6.931  -1.379   0.000  0.00  0.00    +0.000 C 
ATOM     14  C   UNL     1       6.106  -1.406   0.000  0.00  0.00    +0.000 C 
ATOM     15  C   UNL     1       6.466  -2.148   0.000  0.00  0.00    +0.000 C 
ATOM     16  C   UNL     1       5.574  -2.037   0.000  0.00  0.00    +0.000 C 
ATOM     17  C   UNL     1       4.762  -1.891   0.000  0.00  0.00    +0.000 C 
ATOM     18  C   UNL     1       4.482  -1.115   0.000  0.00  0.00    +0.000 C 
ATOM     19  C   UNL     1       2.578  -0.049   0.000  0.00  0.00    +0.000 C 
ENDROOT
BRANCH   1  22
ATOM     20  C   UNL     1       0.953   0.241   0.000  0.00  0.00    +0.000 C 
ATOM     21  O   UNL     1       1.485   0.872   0.000  0.00  0.00    +0.000 OA
ATOM     22  N   UNL     1       1.234  -0.535   0.000  0.00  0.00    +0.000 NA
BRANCH  20  23
ATOM     23  C   UNL     1       0.141   0.387   0.000  0.00  0.00    +0.000 C 
ATOM     24  C   UNL     1       0.139  -0.438   0.000  0.00  0.00    +0.000 C 
ATOM     25  C   UNL     1      -0.576  -0.849   0.000  0.00  0.00    +0.000 C 
ATOM     26  O   UNL     1      -0.578  -1.674   0.000  0.00  0.00    +0.000 OA
ATOM     27  C   UNL     1      -1.290  -0.435   0.000  0.00  0.00    +0.000 C 
ATOM     28  C   UNL     1      -1.288   0.390   0.000  0.00  0.00    +0.000 C 
ATOM     29  O   UNL     1      -0.572   0.801   0.000  0.00  0.00    +0.000 OA
BRANCH  27  30
ATOM     30  N   UNL     1      -2.005  -0.846   0.000  0.00  0.00    +0.000 NA
ATOM     31  C   UNL     1      -2.007  -1.671   0.000  0.00  0.00    +0.000 C 
ATOM     32  C   UNL     1      -1.294  -2.085   0.000  0.00  0.00    +0.000 C 
ATOM     33  O   UNL     1      -2.723  -2.082   0.000  0.00  0.00    +0.000 OA
ENDBRANCH  27  30
BRANCH  28  34
ATOM     34  C   UNL     1      -2.001   0.804   0.000  0.00  0.00    +0.000 C 
ATOM     35  O   UNL     1      -1.999   1.629   0.000  0.00  0.00    +0.000 OA
BRANCH  34  36
ATOM     36  C   UNL     1      -2.717   0.393   0.000  0.00  0.00    +0.000 C 
ATOM     37  O   UNL     1      -3.430   0.808   0.000  0.00  0.00    +0.000 OA
BRANCH  36  38
ATOM     38  C   UNL     1      -2.719  -0.431   0.000  0.00  0.00    +0.000 C 
ATOM     39  O   UNL     1      -3.434  -0.842   0.000  0.00  0.00    +0.000 OA
ENDBRANCH  36  38
ENDBRANCH  34  36
ENDBRANCH  28  34
BRANCH  23  41
ATOM     40  C   UNL     1      -0.103   1.794   0.000  0.00  0.00    +0.000 C 
ATOM     41  O   UNL     1       0.425   1.161   0.000  0.00  0.00    +0.000 OA
ENDBRANCH  23  41
ENDBRANCH  20  23
ENDBRANCH   1  22
BRANCH  13  42
ATOM     42  C   UNL     1       7.437  -2.030   0.000  0.00  0.00    +0.000 C 
ATOM     43  C   UNL     1       7.126  -2.795   0.000  0.00  0.00    +0.000 C 
BRANCH  42  44
ATOM     44  C   UNL     1       8.255  -1.917   0.000  0.00  0.00    +0.000 C 
BRANCH  44  45
ATOM     45  C   UNL     1       8.761  -2.569   0.000  0.00  0.00    +0.000 C 
BRANCH  45  46
ATOM     46  C   UNL     1       9.578  -2.456   0.000  0.00  0.00    +0.000 C 
BRANCH  46  47
ATOM     47  C   UNL     1      10.085  -3.107   0.000  0.00  0.00    +0.000 C 
ATOM     48  C   UNL     1      10.902  -2.994   0.000  0.00  0.00    +0.000 C 
ATOM     49  C   UNL     1       9.774  -3.872   0.000  0.00  0.00    +0.000 C 
ENDBRANCH  46  47
ENDBRANCH  45  46
ENDBRANCH  44  45
ENDBRANCH  42  44
ENDBRANCH  13  42
TORSDOF 12
