REMARK  Name = 
REMARK  4 active torsions:
REMARK  status: ('A' for Active; 'I' for Inactive)
REMARK    1  A    between atoms: N_6  and  C_15
REMARK    2  A    between atoms: C_7  and  C_15
REMARK    3  A    between atoms: N_12  and  C_13
REMARK    4  A    between atoms: C_15  and  C_16
REMARK                            x       y       z     vdW  Elec       q    Type
REMARK                         _______ _______ _______ _____ _____    ______ ____
ROOT
ATOM      1  N   UNL     1       0.357   0.619   0.000  0.00  0.00    +0.000 NA
ATOM      2  N   UNL     1      -1.072   0.619   0.000  0.00  0.00    +0.000 NA
ATOM      3  N   UNL     1      -0.357  -0.619   0.000  0.00  0.00    +0.000 NA
ATOM      4  C   UNL     1      -1.072  -0.206   0.000  0.00  0.00    +0.000 A 
ATOM      5  C   UNL     1       0.357  -0.206   0.000  0.00  0.00    +0.000 A 
ATOM      6  N   UNL     1       1.072  -0.619   0.000  0.00  0.00    +0.000 NA
ATOM      7  C   UNL     1      -0.357   1.031   0.000  0.00  0.00    +0.000 A 
ATOM      8 CL   UNL     1      -0.357   1.856   0.000  0.00  0.00    +0.000 Cl
ATOM      9  N   UNL     1      -1.786  -0.619   0.000  0.00  0.00    +0.000 NA
ENDROOT
BRANCH   6  11
ATOM     10  C   UNL     1       1.786   0.619   0.000  0.00  0.00    +0.000 C 
ATOM     11  C   UNL     1       1.786  -0.206   0.000  0.00  0.00    +0.000 C 
BRANCH  11  12
ATOM     12  C   UNL     1       2.501  -0.619   0.000  0.00  0.00    +0.000 C 
ATOM     13  C   UNL     1       3.215  -0.206   0.000  0.00  0.00    +0.000 C 
ENDBRANCH  11  12
BRANCH  11  14
ATOM     14  C   UNL     1       1.786  -1.031   0.000  0.00  0.00    +0.000 C 
ATOM     15  N   UNL     1       1.786  -1.856   0.000  0.00  0.00    +0.000 NA
ENDBRANCH  11  14
ENDBRANCH   6  11
BRANCH   9  16
ATOM     16  C   UNL     1      -2.501  -0.206   0.000  0.00  0.00    +0.000 C 
ATOM     17  C   UNL     1      -3.215  -0.619   0.000  0.00  0.00    +0.000 C 
ENDBRANCH   9  16
TORSDOF 4
