REMARK  Name = 
REMARK  18 active torsions:
REMARK  status: ('A' for Active; 'I' for Inactive)
REMARK    1  A    between atoms: C_12  and  C_13
REMARK    2  A    between atoms: C_13  and  C_14
REMARK    3  A    between atoms: C_14  and  C_15
REMARK    4  A    between atoms: C_18  and  C_60
REMARK    5  A    between atoms: C_19  and  C_20
REMARK    6  A    between atoms: C_19  and  C_22
REMARK    7  A    between atoms: C_26  and  C_27
REMARK    8  A    between atoms: C_26  and  C_48
REMARK    9  A    between atoms: C_27  and  C_28
REMARK   10  A    between atoms: C_31  and  C_46
REMARK   11  A    between atoms: C_32  and  C_33
REMARK   12  A    between atoms: C_32  and  C_41
REMARK   13  A    between atoms: C_35  and  C_36
REMARK   14  A    between atoms: C_35  and  C_40
REMARK   15  A    between atoms: C_36  and  C_37
REMARK   16  A    between atoms: C_44  and  C_46
REMARK   17  A    between atoms: C_60  and  C_61
REMARK   18  A    between atoms: C_61  and  C_63
REMARK                            x       y       z     vdW  Elec       q    Type
REMARK                         _______ _______ _______ _____ _____    ______ ____
ROOT
ATOM      1  C   UNL     1      -0.708   1.670   0.000  0.00  0.00    +0.000 C 
ATOM      2  C   UNL     1       0.729   1.670   0.000  0.00  0.00    +0.000 C 
ATOM      3  C   UNL     1       1.667   0.712   0.000  0.00  0.00    +0.000 C 
ATOM      4  C   UNL     1       2.083   0.004   0.000  0.00  0.00    +0.000 C 
ATOM      5  C   UNL     1       1.667  -0.705   0.000  0.00  0.00    +0.000 C 
ATOM      6  C   UNL     1       0.729  -1.663   0.000  0.00  0.00    +0.000 C 
ATOM      7  C   UNL     1      -0.708  -1.663   0.000  0.00  0.00    +0.000 C 
ATOM      8  N   UNL     1      -0.833   0.858   0.000  0.00  0.00    +0.000 NA
ATOM      9  N   UNL     1       0.854   0.858   0.000  0.00  0.00    +0.000 NA
ATOM     10  N   UNL     1       0.854  -0.851   0.000  0.00  0.00    +0.000 NA
ATOM     11  N   UNL     1      -0.833  -0.851   0.000  0.00  0.00    +0.000 NA
ATOM     12  C   UNL     1       1.458  -2.038   0.000  0.00  0.00    +0.000 C 
ATOM     13  C   UNL     1       2.062   1.462   0.000  0.00  0.00    +0.000 C 
ATOM     14  C   UNL     1       1.458   2.045   0.000  0.00  0.00    +0.000 C 
ATOM     15  C   UNL     1       0.000   2.087   0.000  0.00  0.00    +0.000 C 
ATOM     16  C   UNL     1       0.000  -2.080   0.000  0.00  0.00    +0.000 C 
ATOM     17  C   UNL     1       2.062  -1.455   0.000  0.00  0.00    +0.000 C 
ATOM     18  C   UNL     1      -2.021  -1.455   0.000  0.00  0.00    +0.000 C 
ATOM     19  C   UNL     1      -1.438   2.045   0.000  0.00  0.00    +0.000 C 
ATOM     20  C   UNL     1      -2.021   1.462   0.000  0.00  0.00    +0.000 C 
ATOM     21  C   UNL     1      -1.646   0.712   0.000  0.00  0.00    +0.000 C 
ATOM     22  C   UNL     1      -2.152  -2.450   0.000  0.00  0.00    +0.000 C 
ATOM     23  C   UNL     1      -1.438  -2.038   0.000  0.00  0.00    +0.000 C 
ATOM     24  C   UNL     1      -2.471   0.712   0.000  0.00  0.00    +0.000 C 
ATOM     25  C   UNL     1       0.000   2.912   0.000  0.00  0.00    +0.000 C 
ATOM     26  C   UNL     1       0.000  -2.905   0.000  0.00  0.00    +0.000 C 
ATOM     27  C   UNL     1       2.475  -2.169   0.000  0.00  0.00    +0.000 C 
ATOM     28  C   UNL     1       2.888  -1.455   0.000  0.00  0.00    +0.000 C 
ATOM     29  C   UNL     1       2.173   2.458   0.000  0.00  0.00    +0.000 C 
ATOM     30  C   UNL     1      -2.433   2.176   0.000  0.00  0.00    +0.000 C 
ATOM     31  C   UNL     1      -1.646  -0.705   0.000  0.00  0.00    +0.000 C 
ENDROOT
BRANCH  12  32
ATOM     32  C   UNL     1       1.458  -2.863   0.000  0.00  0.00    +0.000 C 
BRANCH  32  33
ATOM     33  C   UNL     1       2.173  -3.275   0.000  0.00  0.00    +0.000 C 
BRANCH  33  34
ATOM     34  C   UNL     1       2.173  -4.100   0.000  0.00  0.00    +0.000 C 
ATOM     35  O   UNL     1       2.887  -4.513   0.000  0.00  0.00    +0.000 OA
ATOM     36  O   UNL     1       1.458  -4.513   0.000  0.00  0.00    +0.000 OA
ENDBRANCH  33  34
ENDBRANCH  32  33
ENDBRANCH  12  32
BRANCH  19  37
ATOM     37  C   UNL     1      -1.438   2.870   0.000  0.00  0.00    +0.000 C 
BRANCH  37  38
ATOM     38  C   UNL     1      -0.724   3.283   0.000  0.00  0.00    +0.000 C 
BRANCH  38  39
ATOM     39  C   UNL     1      -0.724   4.108   0.000  0.00  0.00    +0.000 C 
ATOM     40  O   UNL     1      -0.010   4.521   0.000  0.00  0.00    +0.000 OA
ATOM     41  O   UNL     1      -1.439   4.520   0.000  0.00  0.00    +0.000 OA
ENDBRANCH  38  39
ENDBRANCH  37  38
ENDBRANCH  19  37
BRANCH  23  42
ATOM     42  C   UNL     1      -1.437  -2.863   0.000  0.00  0.00    +0.000 C 
BRANCH  42  43
ATOM     43  C   UNL     1      -2.151  -3.276   0.000  0.00  0.00    +0.000 C 
BRANCH  43  44
ATOM     44  C   UNL     1      -2.151  -4.101   0.000  0.00  0.00    +0.000 C 
ATOM     45  O   UNL     1      -2.865  -4.513   0.000  0.00  0.00    +0.000 OA
ATOM     46  O   UNL     1      -1.436  -4.513   0.000  0.00  0.00    +0.000 OA
ENDBRANCH  43  44
ENDBRANCH  42  43
ENDBRANCH  23  42
BRANCH  14  47
ATOM     47  C   UNL     1       1.458   2.870   0.000  0.00  0.00    +0.000 C 
BRANCH  47  48
ATOM     48  C   UNL     1       2.173   3.283   0.000  0.00  0.00    +0.000 C 
ATOM     49  O   UNL     1       2.173   4.108   0.000  0.00  0.00    +0.000 OA
ATOM     50  O   UNL     1       2.887   2.870   0.000  0.00  0.00    +0.000 OA
ENDBRANCH  47  48
ENDBRANCH  14  47
BRANCH  18  51
ATOM     51  C   UNL     1      -2.846  -1.455   0.000  0.00  0.00    +0.000 C 
BRANCH  51  53
ATOM     52  O   UNL     1      -4.083  -0.740   0.000  0.00  0.00    +0.000 OA
ATOM     53  C   UNL     1      -3.258  -0.740   0.000  0.00  0.00    +0.000 C 
ATOM     54  O   UNL     1      -2.846  -0.026   0.000  0.00  0.00    +0.000 OA
ENDBRANCH  51  53
ENDBRANCH  18  51
BRANCH  13  55
ATOM     55  C   UNL     1       2.888   1.462   0.000  0.00  0.00    +0.000 C 
BRANCH  55  56
ATOM     56  C   UNL     1       3.300   0.748   0.000  0.00  0.00    +0.000 C 
BRANCH  56  58
ATOM     57  O   UNL     1       4.537   1.462   0.000  0.00  0.00    +0.000 OA
ATOM     58  C   UNL     1       4.125   0.748   0.000  0.00  0.00    +0.000 C 
ATOM     59  O   UNL     1       4.537   0.033   0.000  0.00  0.00    +0.000 OA
ENDBRANCH  56  58
ENDBRANCH  55  56
ENDBRANCH  13  55
BRANCH  20  60
ATOM     60  C   UNL     1      -2.846   1.462   0.000  0.00  0.00    +0.000 C 
BRANCH  60  61
ATOM     61  C   UNL     1      -3.258   2.176   0.000  0.00  0.00    +0.000 C 
ATOM     62  O   UNL     1      -4.083   2.176   0.000  0.00  0.00    +0.000 OA
ATOM     63  O   UNL     1      -2.846   2.891   0.000  0.00  0.00    +0.000 OA
ENDBRANCH  60  61
ENDBRANCH  20  60
TORSDOF 18
