REMARK  Name = 
REMARK  1 active torsions:
REMARK  status: ('A' for Active; 'I' for Inactive)
REMARK    1  A    between atoms: C_4  and  C_7
REMARK                            x       y       z     vdW  Elec       q    Type
REMARK                         _______ _______ _______ _____ _____    ______ ____
ROOT
ATOM      1  C   UNL     1       0.654  -0.698   0.000  0.00  0.00    +0.000 C 
ATOM      2  C   UNL     1       1.139  -0.030   0.000  0.00  0.00    +0.000 C 
ATOM      3  O   UNL     1       0.884   0.754   0.000  0.00  0.00    +0.000 OA
ATOM      4  C   UNL     1       1.923  -0.285   0.000  0.00  0.00    +0.000 A 
ATOM      5  C   UNL     1       2.638   0.127   0.000  0.00  0.00    +0.000 A 
ATOM      6  C   UNL     1       3.352  -0.285   0.000  0.00  0.00    +0.000 A 
ATOM      7  C   UNL     1       3.352  -1.110   0.000  0.00  0.00    +0.000 A 
ATOM      8  C   UNL     1       2.638  -1.523   0.000  0.00  0.00    +0.000 A 
ATOM      9  C   UNL     1       1.923  -1.110   0.000  0.00  0.00    +0.000 A 
ATOM     10  C   UNL     1       1.139  -1.365   0.000  0.00  0.00    +0.000 C 
ATOM     11  O   UNL     1       0.884  -2.150   0.000  0.00  0.00    +0.000 OA
ATOM     12 BR   UNL     1       4.067  -1.523   0.000  0.00  0.00    +0.000 Br
ENDROOT
BRANCH   1  16
ATOM     13  C   UNL     1      -1.821  -0.698   0.000  0.00  0.00    +0.000 A 
ATOM     14  C   UNL     1      -1.409   0.017   0.000  0.00  0.00    +0.000 A 
ATOM     15  C   UNL     1      -0.584   0.017   0.000  0.00  0.00    +0.000 A 
ATOM     16  C   UNL     1      -0.171  -0.698   0.000  0.00  0.00    +0.000 A 
ATOM     17  C   UNL     1      -0.584  -1.412   0.000  0.00  0.00    +0.000 A 
ATOM     18  C   UNL     1      -1.409  -1.412   0.000  0.00  0.00    +0.000 A 
ENDBRANCH   1  16
TORSDOF 1
