REMARK  Name = 
REMARK  18 active torsions:
REMARK  status: ('A' for Active; 'I' for Inactive)
REMARK    1  A    between atoms: C_2  and  C_3
REMARK    2  A    between atoms: C_2  and  C_10
REMARK    3  A    between atoms: C_3  and  C_4
REMARK    4  A    between atoms: N_11  and  C_12
REMARK    5  A    between atoms: C_12  and  C_13
REMARK    6  A    between atoms: C_12  and  C_20
REMARK    7  A    between atoms: C_13  and  C_14
REMARK    8  A    between atoms: N_22  and  C_23
REMARK    9  A    between atoms: C_23  and  C_24
REMARK   10  A    between atoms: C_23  and  C_45
REMARK   11  A    between atoms: N_25  and  C_26
REMARK   12  A    between atoms: C_26  and  C_27
REMARK   13  A    between atoms: C_26  and  C_39
REMARK   14  A    between atoms: C_32  and  C_35
REMARK   15  A    between atoms: C_39  and  C_40
REMARK   16  A    between atoms: C_40  and  C_41
REMARK   17  A    between atoms: C_41  and  C_42
REMARK   18  A    between atoms: C_45  and  C_46
REMARK                            x       y       z     vdW  Elec       q    Type
REMARK                         _______ _______ _______ _____ _____    ______ ____
ROOT
ATOM      1  C   UNL     1       0.098   0.634   0.000  0.00  0.00    +0.000 C 
ENDROOT
BRANCH   1   2
ATOM      2  C   UNL     1       0.816   0.226   0.000  0.00  0.00    +0.000 C 
ATOM      3  N   UNL     1       1.525   0.643   0.000  0.00  0.00    +0.000 NA
ATOM      4  O   UNL     1       0.816  -0.599   0.000  0.00  0.00    +0.000 OA
BRANCH   3   5
ATOM      5  C   UNL     1       2.244   0.240   0.000  0.00  0.00    +0.000 C 
BRANCH   5   6
ATOM      6  C   UNL     1       2.953   0.657   0.000  0.00  0.00    +0.000 C 
ATOM      7  O   UNL     1       2.953   1.478   0.000  0.00  0.00    +0.000 OA
ATOM      8  N   UNL     1       3.671   0.249   0.000  0.00  0.00    +0.000 N 
ATOM      9  C   UNL     1       3.671  -0.575   0.000  0.00  0.00    +0.000 C 
ATOM     10  C   UNL     1       4.393  -0.983   0.000  0.00  0.00    +0.000 C 
ATOM     11  C   UNL     1       5.107  -0.564   0.000  0.00  0.00    +0.000 C 
ATOM     12  C   UNL     1       5.107   0.260   0.000  0.00  0.00    +0.000 C 
ATOM     13  C   UNL     1       4.384   0.671   0.000  0.00  0.00    +0.000 C 
ATOM     14  N   UNL     1       5.183  -1.614   0.000  0.00  0.00    +0.000 NA
BRANCH  11  15
ATOM     15  C   UNL     1       5.929  -0.564   0.000  0.00  0.00    +0.000 C 
ATOM     16  O   UNL     1       6.345  -1.272   0.000  0.00  0.00    +0.000 OA
ATOM     17  O   UNL     1       6.338   0.156   0.000  0.00  0.00    +0.000 OA
ENDBRANCH  11  15
ENDBRANCH   5   6
BRANCH   5  18
ATOM     18  C   UNL     1       2.244  -0.585   0.000  0.00  0.00    +0.000 C 
BRANCH  18  19
ATOM     19  C   UNL     1       2.962  -0.993   0.000  0.00  0.00    +0.000 C 
BRANCH  19  20
ATOM     20  C   UNL     1       2.962  -1.818   0.000  0.00  0.00    +0.000 C 
BRANCH  20  21
ATOM     21  C   UNL     1       3.681  -2.226   0.000  0.00  0.00    +0.000 C 
ATOM     22  N   UNL     1       3.681  -3.051   0.000  0.00  0.00    +0.000 NA
ENDBRANCH  20  21
ENDBRANCH  19  20
ENDBRANCH  18  19
ENDBRANCH   5  18
ENDBRANCH   3   5
ENDBRANCH   1   2
BRANCH   1  25
ATOM     23  C   UNL     1      -1.330   0.620   0.000  0.00  0.00    +0.000 C 
ATOM     24  O   UNL     1      -1.330   1.445   0.000  0.00  0.00    +0.000 OA
ATOM     25  N   UNL     1      -0.611   0.212   0.000  0.00  0.00    +0.000 NA
BRANCH  23  26
ATOM     26  C   UNL     1      -2.039   0.203   0.000  0.00  0.00    +0.000 C 
BRANCH  26  28
ATOM     27  C   UNL     1      -3.466   0.189   0.000  0.00  0.00    +0.000 C 
ATOM     28  N   UNL     1      -2.757   0.611   0.000  0.00  0.00    +0.000 NA
ATOM     29  O   UNL     1      -3.466  -0.631   0.000  0.00  0.00    +0.000 OA
BRANCH  27  31
ATOM     30  N   UNL     1      -4.894   0.180   0.000  0.00  0.00    +0.000 NA
ATOM     31  C   UNL     1      -4.185   0.597   0.000  0.00  0.00    +0.000 C 
BRANCH  31  32
ATOM     32  C   UNL     1      -4.185   1.422   0.000  0.00  0.00    +0.000 C 
BRANCH  32  33
ATOM     33  C   UNL     1      -4.912   1.825   0.000  0.00  0.00    +0.000 A 
ATOM     34  C   UNL     1      -4.912   2.648   0.000  0.00  0.00    +0.000 A 
ATOM     35  C   UNL     1      -5.637   3.051   0.000  0.00  0.00    +0.000 A 
ATOM     36  C   UNL     1      -6.345   2.629   0.000  0.00  0.00    +0.000 A 
ATOM     37  C   UNL     1      -6.345   1.806   0.000  0.00  0.00    +0.000 A 
ATOM     38  C   UNL     1      -5.616   1.404   0.000  0.00  0.00    +0.000 A 
ENDBRANCH  32  33
ENDBRANCH  31  32
ENDBRANCH  27  31
ENDBRANCH  26  28
BRANCH  26  39
ATOM     39  C   UNL     1      -2.039  -0.617   0.000  0.00  0.00    +0.000 C 
BRANCH  39  40
ATOM     40  C   UNL     1      -1.320  -1.030   0.000  0.00  0.00    +0.000 A 
ATOM     41  C   UNL     1      -1.320  -1.853   0.000  0.00  0.00    +0.000 A 
ATOM     42  C   UNL     1      -0.607  -2.261   0.000  0.00  0.00    +0.000 A 
ATOM     43  C   UNL     1       0.108  -1.847   0.000  0.00  0.00    +0.000 A 
ATOM     44  C   UNL     1       0.108  -1.019   0.000  0.00  0.00    +0.000 A 
ATOM     45  C   UNL     1      -0.616  -0.613   0.000  0.00  0.00    +0.000 A 
ENDBRANCH  39  40
ENDBRANCH  26  39
ENDBRANCH  23  26
ENDBRANCH   1  25
BRANCH   1  46
ATOM     46  C   UNL     1       0.098   1.459   0.000  0.00  0.00    +0.000 C 
BRANCH  46  47
ATOM     47  C   UNL     1       0.798   1.872   0.000  0.00  0.00    +0.000 C 
ATOM     48  C   UNL     1       1.516   1.468   0.000  0.00  0.00    +0.000 C 
ATOM     49  C   UNL     1       0.798   2.697   0.000  0.00  0.00    +0.000 C 
ENDBRANCH  46  47
ENDBRANCH   1  46
TORSDOF 18
