REMARK  Name = 
REMARK  17 active torsions:
REMARK  status: ('A' for Active; 'I' for Inactive)
REMARK    1  A    between atoms: C_9  and  C_12
REMARK    2  A    between atoms: C_9  and  C_13
REMARK    3  A    between atoms: C_10  and  C_14
REMARK    4  A    between atoms: C_10  and  C_15
REMARK    5  A    between atoms: C_11  and  C_16
REMARK    6  A    between atoms: C_11  and  C_20
REMARK    7  A    between atoms: C_12  and  C_22
REMARK    8  A    between atoms: C_13  and  C_23
REMARK    9  A    between atoms: C_14  and  C_23
REMARK   10  A    between atoms: C_15  and  C_24
REMARK   11  A    between atoms: C_16  and  C_24
REMARK   12  A    between atoms: C_17  and  C_18
REMARK   13  A    between atoms: C_17  and  C_29
REMARK   14  A    between atoms: C_18  and  C_30
REMARK   15  A    between atoms: C_20  and  C_33
REMARK   16  A    between atoms: C_30  and  O_37
REMARK   17  A    between atoms: C_31  and  O_37
REMARK                            x       y       z     vdW  Elec       q    Type
REMARK                         _______ _______ _______ _____ _____    ______ ____
ROOT
ATOM      1  C   UNL     1      18.944  -3.168   0.000  0.00  0.00    +0.000 C 
ATOM      2  C   UNL     1      17.319  -3.454   0.000  0.00  0.00    +0.000 C 
ATOM      3  C   UNL     1      19.440  -5.982   0.000  0.00  0.00    +0.000 C 
ATOM      4  C   UNL     1      15.942  -6.412   0.000  0.00  0.00    +0.000 C 
ATOM      5  C   UNL     1      17.815  -6.269   0.000  0.00  0.00    +0.000 C 
ATOM      6  C   UNL     1      17.003  -6.412   0.000  0.00  0.00    +0.000 C 
ATOM      7  C   UNL     1      18.662  -3.943   0.000  0.00  0.00    +0.000 A 
ATOM      8  C   UNL     1      17.849  -4.087   0.000  0.00  0.00    +0.000 A 
ATOM      9  C   UNL     1      18.910  -5.351   0.000  0.00  0.00    +0.000 A 
ATOM     10  C   UNL     1      18.097  -5.494   0.000  0.00  0.00    +0.000 A 
ATOM     11  C   UNL     1      19.192  -4.575   0.000  0.00  0.00    +0.000 A 
ATOM     12  C   UNL     1      17.567  -4.862   0.000  0.00  0.00    +0.000 A 
ATOM     13  C   UNL     1      16.472  -5.780   0.000  0.00  0.00    +0.000 C 
ATOM     14  O   UNL     1      16.755  -5.005   0.000  0.00  0.00    +0.000 OA
ENDROOT
BRANCH  13  15
ATOM     15  C   UNL     1      15.758  -5.368   0.000  0.00  0.00    +0.000 C 
BRANCH  15  16
ATOM     16  C   UNL     1      15.043  -5.780   0.000  0.00  0.00    +0.000 C 
BRANCH  16  17
ATOM     17  C   UNL     1      14.329  -5.368   0.000  0.00  0.00    +0.000 C 
BRANCH  17  19
ATOM     18  C   UNL     1      13.614  -6.605   0.000  0.00  0.00    +0.000 C 
ATOM     19  C   UNL     1      13.614  -5.780   0.000  0.00  0.00    +0.000 C 
BRANCH  19  20
ATOM     20  C   UNL     1      12.900  -5.368   0.000  0.00  0.00    +0.000 C 
BRANCH  20  21
ATOM     21  C   UNL     1      12.186  -5.780   0.000  0.00  0.00    +0.000 C 
BRANCH  21  22
ATOM     22  C   UNL     1      11.471  -5.368   0.000  0.00  0.00    +0.000 C 
BRANCH  22  24
ATOM     23  C   UNL     1      10.757  -6.605   0.000  0.00  0.00    +0.000 C 
ATOM     24  C   UNL     1      10.757  -5.780   0.000  0.00  0.00    +0.000 C 
BRANCH  24  25
ATOM     25  C   UNL     1      10.042  -5.368   0.000  0.00  0.00    +0.000 C 
BRANCH  25  26
ATOM     26  C   UNL     1       9.328  -5.780   0.000  0.00  0.00    +0.000 C 
BRANCH  26  27
ATOM     27  C   UNL     1       8.613  -5.368   0.000  0.00  0.00    +0.000 C 
BRANCH  27  30
ATOM     28  C   UNL     1       7.184  -5.368   0.000  0.00  0.00    +0.000 C 
ATOM     29  C   UNL     1       7.899  -6.605   0.000  0.00  0.00    +0.000 C 
ATOM     30  C   UNL     1       7.899  -5.780   0.000  0.00  0.00    +0.000 C 
ENDBRANCH  27  30
ENDBRANCH  26  27
ENDBRANCH  25  26
ENDBRANCH  24  25
ENDBRANCH  22  24
ENDBRANCH  21  22
ENDBRANCH  20  21
ENDBRANCH  19  20
ENDBRANCH  17  19
ENDBRANCH  16  17
ENDBRANCH  15  16
ENDBRANCH  13  15
BRANCH  11  31
ATOM     31  O   UNL     1      20.004  -4.432   0.000  0.00  0.00    +0.000 OA
BRANCH  31  32
ATOM     32  C   UNL     1      20.287  -3.657   0.000  0.00  0.00    +0.000 C 
ATOM     33  O   UNL     1      19.756  -3.025   0.000  0.00  0.00    +0.000 OA
BRANCH  32  34
ATOM     34  C   UNL     1      21.099  -3.514   0.000  0.00  0.00    +0.000 C 
BRANCH  34  35
ATOM     35  C   UNL     1      21.381  -2.738   0.000  0.00  0.00    +0.000 C 
BRANCH  35  36
ATOM     36  C   UNL     1      22.194  -2.595   0.000  0.00  0.00    +0.000 C 
ATOM     37  O   UNL     1      22.476  -1.820   0.000  0.00  0.00    +0.000 OA
ATOM     38  O   UNL     1      22.724  -3.227   0.000  0.00  0.00    +0.000 OA
ENDBRANCH  35  36
ENDBRANCH  34  35
ENDBRANCH  32  34
ENDBRANCH  31  32
ENDBRANCH  11  31
TORSDOF 17
