REMARK  Name = 
REMARK  14 active torsions:
REMARK  status: ('A' for Active; 'I' for Inactive)
REMARK    1  A    between atoms: P_1  and  O_6
REMARK    2  A    between atoms: P_1  and  O_8
REMARK    3  A    between atoms: P_2  and  O_8
REMARK    4  A    between atoms: P_2  and  O_10
REMARK    5  A    between atoms: O_6  and  C_22
REMARK    6  A    between atoms: O_10  and  C_31
REMARK    7  A    between atoms: N_15  and  C_21
REMARK    8  A    between atoms: N_17  and  C_32
REMARK    9  A    between atoms: C_20  and  C_22
REMARK   10  A    between atoms: C_27  and  C_28
REMARK   11  A    between atoms: C_27  and  C_29
REMARK   12  A    between atoms: C_28  and  C_30
REMARK   13  A    between atoms: C_29  and  C_31
REMARK   14  A    between atoms: C_30  and  C_32
REMARK                            x       y       z     vdW  Elec       q    Type
REMARK                         _______ _______ _______ _____ _____    ______ ____
ROOT
ATOM      1  O   UNL     1      -2.175  -0.555   0.000  0.00  0.00    +0.000 OA
ENDROOT
BRANCH   1   2
ATOM      2  P   UNL     1      -1.690  -1.222   0.000  0.00  0.00    +0.000 P 
ATOM      3  O   UNL     1      -1.023  -0.738   0.000  0.00  0.00    +0.000 OA
ATOM      4  O   UNL     1      -2.358  -1.707   0.000  0.00  0.00    +0.000 OA
BRANCH   2   5
ATOM      5  O   UNL     1      -1.205  -1.890   0.000  0.00  0.00    +0.000 OA
BRANCH   5   6
ATOM      6  P   UNL     1      -0.385  -1.804   0.000  0.00  0.00    +0.000 P 
ATOM      7  O   UNL     1      -0.299  -2.624   0.000  0.00  0.00    +0.000 OA
ATOM      8  O   UNL     1      -0.471  -0.983   0.000  0.00  0.00    +0.000 OA
BRANCH   6   9
ATOM      9  O   UNL     1       0.435  -1.717   0.000  0.00  0.00    +0.000 OA
BRANCH   9  10
ATOM     10  C   UNL     1       0.920  -2.385   0.000  0.00  0.00    +0.000 C 
BRANCH  10  11
ATOM     11  C   UNL     1       1.741  -2.299   0.000  0.00  0.00    +0.000 C 
BRANCH  11  12
ATOM     12  C   UNL     1       2.226  -2.966   0.000  0.00  0.00    +0.000 C 
BRANCH  12  13
ATOM     13  C   UNL     1       3.046  -2.880   0.000  0.00  0.00    +0.000 C 
BRANCH  13  14
ATOM     14  C   UNL     1       3.531  -3.547   0.000  0.00  0.00    +0.000 C 
BRANCH  14  15
ATOM     15  C   UNL     1       4.352  -3.461   0.000  0.00  0.00    +0.000 C 
BRANCH  15  16
ATOM     16  N   UNL     1       4.837  -4.128   0.000  0.00  0.00    +0.000 NA
ATOM     17  H   UNL     1       5.345  -4.075   0.000  0.00  0.00    +0.000 HD
ATOM     18  H   UNL     1       4.628  -4.596   0.000  0.00  0.00    +0.000 HD
ENDBRANCH  15  16
ENDBRANCH  14  15
ENDBRANCH  13  14
ENDBRANCH  12  13
ENDBRANCH  11  12
ENDBRANCH  10  11
ENDBRANCH   9  10
ENDBRANCH   6   9
ENDBRANCH   5   6
ENDBRANCH   2   5
ENDBRANCH   1   2
BRANCH   1  19
ATOM     19  C   UNL     1      -2.996  -0.641   0.000  0.00  0.00    +0.000 C 
BRANCH  19  25
ATOM     20  O   UNL     1      -3.226   0.811   0.000  0.00  0.00    +0.000 OA
ATOM     21  O   UNL     1      -4.791  -0.641   0.000  0.00  0.00    +0.000 OA
ATOM     22  O   UNL     1      -5.345   1.066   0.000  0.00  0.00    +0.000 OA
ATOM     23  C   UNL     1      -4.306   0.026   0.000  0.00  0.00    +0.000 C 
ATOM     24  C   UNL     1      -4.561   0.811   0.000  0.00  0.00    +0.000 C 
ATOM     25  C   UNL     1      -3.481   0.026   0.000  0.00  0.00    +0.000 C 
ATOM     26  C   UNL     1      -3.893   1.296   0.000  0.00  0.00    +0.000 C 
BRANCH  26  29
ATOM     27  O   UNL     1      -5.322   2.121   0.000  0.00  0.00    +0.000 OA
ATOM     28  O   UNL     1      -3.893   4.596   0.000  0.00  0.00    +0.000 OA
ATOM     29  N   UNL     1      -3.893   2.121   0.000  0.00  0.00    +0.000 N 
ATOM     30  N   UNL     1      -4.608   3.358   0.000  0.00  0.00    +0.000 N 
ATOM     31  C   UNL     1      -4.608   2.533   0.000  0.00  0.00    +0.000 A 
ATOM     32  C   UNL     1      -3.179   2.533   0.000  0.00  0.00    +0.000 A 
ATOM     33  C   UNL     1      -3.179   3.358   0.000  0.00  0.00    +0.000 A 
ATOM     34  C   UNL     1      -3.893   3.771   0.000  0.00  0.00    +0.000 A 
ATOM     35  H   UNL     1      -5.051   3.614   0.000  0.00  0.00    +0.000 HD
ENDBRANCH  26  29
ENDBRANCH  19  25
ENDBRANCH   1  19
TORSDOF 14
