REMARK  Name = 
REMARK  5 active torsions:
REMARK  status: ('A' for Active; 'I' for Inactive)
REMARK    1  A    between atoms: C_3  and  C_22
REMARK    2  A    between atoms: C_6  and  N_11
REMARK    3  A    between atoms: C_12  and  S_16
REMARK    4  A    between atoms: S_16  and  C_17
REMARK    5  A    between atoms: C_17  and  C_18
REMARK                            x       y       z     vdW  Elec       q    Type
REMARK                         _______ _______ _______ _____ _____    ______ ____
ROOT
ATOM      1  C   UNL     1      -1.710   0.151   0.000  0.00  0.00    +0.000 A 
ATOM      2  C   UNL     1      -1.710  -0.674   0.000  0.00  0.00    +0.000 A 
ATOM      3  C   UNL     1      -1.009  -1.087   0.000  0.00  0.00    +0.000 A 
ATOM      4  C   UNL     1      -0.266  -0.674   0.000  0.00  0.00    +0.000 A 
ATOM      5  C   UNL     1      -0.266   0.151   0.000  0.00  0.00    +0.000 A 
ATOM      6  C   UNL     1      -1.009   0.564   0.000  0.00  0.00    +0.000 A 
ATOM      7  C   UNL     1       0.435  -1.087   0.000  0.00  0.00    +0.000 A 
ATOM      8  C   UNL     1       1.136  -0.674   0.000  0.00  0.00    +0.000 A 
ATOM      9  C   UNL     1       1.136   0.151   0.000  0.00  0.00    +0.000 A 
ATOM     10  C   UNL     1       0.435   0.564   0.000  0.00  0.00    +0.000 A 
ENDROOT
BRANCH   6  11
ATOM     11  N   UNL     1      -1.009   1.389   0.000  0.00  0.00    +0.000 N 
ATOM     12  C   UNL     1      -0.349   1.884   0.000  0.00  0.00    +0.000 A 
ATOM     13  N   UNL     1      -0.596   2.626   0.000  0.00  0.00    +0.000 NA
ATOM     14  N   UNL     1      -1.421   2.626   0.000  0.00  0.00    +0.000 NA
ATOM     15  C   UNL     1      -1.669   1.884   0.000  0.00  0.00    +0.000 A 
ATOM     16 BR   UNL     1      -2.456   1.638   0.000  0.00  0.00    +0.000 Br
BRANCH  12  17
ATOM     17  S   UNL     1       0.352   1.471   0.000  0.00  0.00    +0.000 S 
BRANCH  17  18
ATOM     18  C   UNL     1       1.054   1.884   0.000  0.00  0.00    +0.000 C 
BRANCH  18  19
ATOM     19  C   UNL     1       1.755   1.471   0.000  0.00  0.00    +0.000 C 
ATOM     20  O   UNL     1       2.456   1.884   0.000  0.00  0.00    +0.000 OA
ATOM     21  O   UNL     1       1.755   0.646   0.000  0.00  0.00    +0.000 OA
ENDBRANCH  18  19
ENDBRANCH  17  18
ENDBRANCH  12  17
ENDBRANCH   6  11
BRANCH   3  22
ATOM     22  C   UNL     1      -1.019  -1.912   0.000  0.00  0.00    +0.000 C 
ATOM     23  C   UNL     1      -1.431  -2.626   0.000  0.00  0.00    +0.000 C 
ATOM     24  C   UNL     1      -0.606  -2.626   0.000  0.00  0.00    +0.000 C 
ENDBRANCH   3  22
TORSDOF 5
