REMARK  Name = 
REMARK  7 active torsions:
REMARK  status: ('A' for Active; 'I' for Inactive)
REMARK    1  A    between atoms: O_2  and  C_17
REMARK    2  A    between atoms: O_2  and  C_23
REMARK    3  A    between atoms: N_12  and  C_13
REMARK    4  A    between atoms: C_14  and  C_18
REMARK    5  A    between atoms: C_17  and  C_20
REMARK    6  A    between atoms: C_18  and  C_19
REMARK    7  A    between atoms: C_19  and  C_21
REMARK                            x       y       z     vdW  Elec       q    Type
REMARK                         _______ _______ _______ _____ _____    ______ ____
ROOT
ATOM      1  O   UNL     1      -1.497   1.167   0.000  0.00  0.00    +0.000 OA
ATOM      2  O   UNL     1      -0.259  -0.976   0.000  0.00  0.00    +0.000 OA
ATOM      3  C   UNL     1      -1.497  -0.262   0.000  0.00  0.00    +0.000 C 
ATOM      4  C   UNL     1      -1.909   0.453   0.000  0.00  0.00    +0.000 C 
ATOM      5  C   UNL     1      -0.672  -0.262   0.000  0.00  0.00    +0.000 C 
ATOM      6  C   UNL     1      -0.259   0.453   0.000  0.00  0.00    +0.000 C 
ATOM      7  C   UNL     1      -0.672   1.167   0.000  0.00  0.00    +0.000 C 
ENDROOT
BRANCH   3   9
ATOM      8  O   UNL     1      -0.672  -1.690   0.000  0.00  0.00    +0.000 OA
ATOM      9  N   UNL     1      -1.909  -0.976   0.000  0.00  0.00    +0.000 N 
ATOM     10  C   UNL     1      -1.497  -1.690   0.000  0.00  0.00    +0.000 C 
ATOM     11  C   UNL     1      -1.909  -2.405   0.000  0.00  0.00    +0.000 C 
ATOM     12  H   UNL     1      -2.421  -0.976   0.000  0.00  0.00    +0.000 HD
ENDBRANCH   3   9
BRANCH   7  15
ATOM     13  O   UNL     1      -1.386   2.405   0.000  0.00  0.00    +0.000 OA
ATOM     14  O   UNL     1       0.043   2.405   0.000  0.00  0.00    +0.000 OA
ATOM     15  C   UNL     1      -0.672   1.992   0.000  0.00  0.00    +0.000 C 
ENDBRANCH   7  15
BRANCH   4  17
ATOM     16  O   UNL     1      -3.147  -0.262   0.000  0.00  0.00    +0.000 OA
ATOM     17  C   UNL     1      -2.734   0.453   0.000  0.00  0.00    +0.000 C 
BRANCH  17  19
ATOM     18  O   UNL     1      -2.734   1.882   0.000  0.00  0.00    +0.000 OA
ATOM     19  C   UNL     1      -3.147   1.167   0.000  0.00  0.00    +0.000 C 
BRANCH  19  21
ATOM     20  O   UNL     1      -4.384   1.882   0.000  0.00  0.00    +0.000 OA
ATOM     21  C   UNL     1      -3.972   1.167   0.000  0.00  0.00    +0.000 C 
ENDBRANCH  19  21
ENDBRANCH  17  19
ENDBRANCH   4  17
BRANCH   7  22
ATOM     22  O   UNL     1       0.043   1.580   0.000  0.00  0.00    +0.000 OA
BRANCH  22  25
ATOM     23  O   UNL     1       2.924   1.608   0.000  0.00  0.00    +0.000 OA
ATOM     24  O   UNL     1       4.384   1.600   0.000  0.00  0.00    +0.000 OA
ATOM     25  C   UNL     1       0.757   1.167   0.000  0.00  0.00    +0.000 A 
ATOM     26  C   UNL     1       1.472   1.580   0.000  0.00  0.00    +0.000 A 
ATOM     27  C   UNL     1       0.757   0.342   0.000  0.00  0.00    +0.000 A 
ATOM     28  C   UNL     1       2.186   1.167   0.000  0.00  0.00    +0.000 A 
ATOM     29  C   UNL     1       2.186   0.342   0.000  0.00  0.00    +0.000 A 
ATOM     30  C   UNL     1       1.472  -0.070   0.000  0.00  0.00    +0.000 A 
ATOM     31  C   UNL     1       2.924  -0.099   0.000  0.00  0.00    +0.000 A 
ATOM     32  C   UNL     1       3.671   0.325   0.000  0.00  0.00    +0.000 A 
ATOM     33  C   UNL     1       3.671   1.185   0.000  0.00  0.00    +0.000 A 
ATOM     34  C   UNL     1       2.914  -0.924   0.000  0.00  0.00    +0.000 C 
ENDBRANCH  22  25
ENDBRANCH   7  22
TORSDOF 7
