REMARK  Name = 
REMARK  2 active torsions:
REMARK  status: ('A' for Active; 'I' for Inactive)
REMARK    1  A    between atoms: N_8  and  C_9
REMARK    2  A    between atoms: C_9  and  C_10
REMARK                            x       y       z     vdW  Elec       q    Type
REMARK                         _______ _______ _______ _____ _____    ______ ____
ROOT
ATOM      1  O   UNL     1       1.859   2.845   0.000  0.00  0.00    +0.000 OA
ATOM      2  C   UNL     1       1.542   2.084   0.000  0.00  0.00    +0.000 A 
ATOM      3  C   UNL     1       2.061   1.429   0.000  0.00  0.00    +0.000 A 
ATOM      4  C   UNL     1       1.750   0.665   0.000  0.00  0.00    +0.000 A 
ATOM      5  C   UNL     1       0.927   0.579   0.000  0.00  0.00    +0.000 A 
ATOM      6  C   UNL     1       0.629  -0.168   0.000  0.00  0.00    +0.000 C 
ATOM      7  C   UNL     1      -0.188  -0.178   0.000  0.00  0.00    +0.000 C 
ATOM      8  N   UNL     1      -0.731  -0.765   0.000  0.00  0.00    +0.000 NA
ATOM      9  C   UNL     1      -1.451  -0.382   0.000  0.00  0.00    +0.000 C 
ATOM     10  C   UNL     1      -1.308   0.503   0.000  0.00  0.00    +0.000 C 
ATOM     11  C   UNL     1      -0.465   1.101   0.000  0.00  0.00    +0.000 C 
ATOM     12  C   UNL     1      -0.679   1.931   0.000  0.00  0.00    +0.000 C 
ATOM     13  O   UNL     1      -0.015   2.433   0.000  0.00  0.00    +0.000 OA
ATOM     14  C   UNL     1       0.695   1.990   0.000  0.00  0.00    +0.000 A 
ATOM     15  C   UNL     1       0.405   1.224   0.000  0.00  0.00    +0.000 A 
ATOM     16  C   UNL     1      -1.504   2.091   0.000  0.00  0.00    +0.000 C 
ATOM     17  C   UNL     1      -1.758   2.874   0.000  0.00  0.00    +0.000 C 
ATOM     18  C   UNL     1      -2.061   1.492   0.000  0.00  0.00    +0.000 C 
ATOM     19  C   UNL     1      -1.749   0.752   0.000  0.00  0.00    +0.000 C 
ATOM     20  C   UNL     1      -0.777   0.606   0.000  0.00  0.00    +0.000 C 
ATOM     21  O   UNL     1      -1.199  -0.102   0.000  0.00  0.00    +0.000 OA
ENDROOT
BRANCH   8  22
ATOM     22  C   UNL     1      -0.593  -1.577   0.000  0.00  0.00    +0.000 C 
BRANCH  22  23
ATOM     23  C   UNL     1      -1.228  -2.102   0.000  0.00  0.00    +0.000 C 
ATOM     24  C   UNL     1      -1.515  -2.874   0.000  0.00  0.00    +0.000 C 
ATOM     25  C   UNL     1      -2.040  -2.240   0.000  0.00  0.00    +0.000 C 
ENDBRANCH  22  23
ENDBRANCH   8  22
TORSDOF 2
