REMARK  Name = 
REMARK  2 active torsions:
REMARK  status: ('A' for Active; 'I' for Inactive)
REMARK    1  A    between atoms: C_17  and  C_22
REMARK    2  A    between atoms: C_22  and  C_23
REMARK                            x       y       z     vdW  Elec       q    Type
REMARK                         _______ _______ _______ _____ _____    ______ ____
ROOT
ATOM      1  C   UNL     1      -0.396  -0.534   0.000  0.00  0.00    +0.000 C 
ATOM      2  C   UNL     1       0.274  -0.952   0.000  0.00  0.00    +0.000 C 
ATOM      3  C   UNL     1      -0.396   0.302   0.000  0.00  0.00    +0.000 C 
ATOM      4  C   UNL     1      -1.149  -0.952   0.000  0.00  0.00    +0.000 C 
ATOM      5  C   UNL     1       0.274  -1.747   0.000  0.00  0.00    +0.000 C 
ATOM      6  C   UNL     1       0.316   0.679   0.000  0.00  0.00    +0.000 C 
ATOM      7  C   UNL     1      -1.149  -1.747   0.000  0.00  0.00    +0.000 C 
ATOM      8  C   UNL     1      -1.818  -0.534   0.000  0.00  0.00    +0.000 C 
ATOM      9  C   UNL     1      -0.437  -2.166   0.000  0.00  0.00    +0.000 C 
ATOM     10  C   UNL     1      -1.818  -2.166   0.000  0.00  0.00    +0.000 C 
ATOM     11  C   UNL     1      -2.529  -0.952   0.000  0.00  0.00    +0.000 C 
ATOM     12  C   UNL     1      -2.529  -1.747   0.000  0.00  0.00    +0.000 C 
ATOM     13  O   UNL     1      -3.240  -2.166   0.000  0.00  0.00    +0.000 OA
ATOM     14  C   UNL     1       1.027   1.264   0.000  0.00  0.00    +0.000 C 
ATOM     15  C   UNL     1       1.811   0.515   0.000  0.00  0.00    +0.000 C 
ATOM     16  C   UNL     1       1.027   0.261   0.000  0.00  0.00    +0.000 C 
ATOM     17  C   UNL     1       1.027  -0.534   0.000  0.00  0.00    +0.000 C 
ATOM     18  C   UNL     1       1.811  -0.819   0.000  0.00  0.00    +0.000 C 
ATOM     19  C   UNL     1       2.296  -0.152   0.000  0.00  0.00    +0.000 C 
ATOM     20  O   UNL     1       2.526   0.928   0.000  0.00  0.00    +0.000 OA
ENDROOT
BRANCH  15  21
ATOM     21  C   UNL     1       1.811   1.341   0.000  0.00  0.00    +0.000 C 
BRANCH  21  22
ATOM     22  C   UNL     1       2.526   1.753   0.000  0.00  0.00    +0.000 C 
ATOM     23  N   UNL     1       3.240   2.166   0.000  0.00  0.00    +0.000 NA
ENDBRANCH  21  22
ENDBRANCH  15  21
TORSDOF 2
