REMARK  Name = 
REMARK  4 active torsions:
REMARK  status: ('A' for Active; 'I' for Inactive)
REMARK    1  A    between atoms: N_7  and  S_9
REMARK    2  A    between atoms: S_9  and  C_12
REMARK    3  A    between atoms: C_23  and  S_30
REMARK    4  A    between atoms: S_30  and  N_33
REMARK                            x       y       z     vdW  Elec       q    Type
REMARK                         _______ _______ _______ _____ _____    ______ ____
ROOT
ATOM      1  C   UNL     1       4.287   0.000   0.000  0.00  0.00    +0.000 A 
ATOM      2  C   UNL     1       4.287   0.825   0.000  0.00  0.00    +0.000 A 
ATOM      3  C   UNL     1       3.572   1.238   0.000  0.00  0.00    +0.000 A 
ATOM      4  C   UNL     1       2.858   0.825   0.000  0.00  0.00    +0.000 A 
ATOM      5  C   UNL     1       2.858   0.000   0.000  0.00  0.00    +0.000 A 
ATOM      6  C   UNL     1       3.572  -0.412   0.000  0.00  0.00    +0.000 A 
ATOM      7  C   UNL     1       2.143  -0.412   0.000  0.00  0.00    +0.000 C 
ATOM      8  N   UNL     1       2.143  -1.238   0.000  0.00  0.00    +0.000 NA
ATOM      9  O   UNL     1       1.429  -1.650   0.000  0.00  0.00    +0.000 OA
ATOM     10  C   UNL     1       1.429   0.000   0.000  0.00  0.00    +0.000 A 
ATOM     11  C   UNL     1       0.715  -0.412   0.000  0.00  0.00    +0.000 A 
ATOM     12  C   UNL     1       0.000   0.000   0.000  0.00  0.00    +0.000 A 
ATOM     13  C   UNL     1       0.000   0.825   0.000  0.00  0.00    +0.000 A 
ATOM     14  C   UNL     1       0.715   1.238   0.000  0.00  0.00    +0.000 A 
ATOM     15  C   UNL     1       1.429   0.825   0.000  0.00  0.00    +0.000 A 
ATOM     16  C   UNL     1       2.143   1.238   0.000  0.00  0.00    +0.000 C 
ATOM     17  N   UNL     1       2.143   2.062   0.000  0.00  0.00    +0.000 NA
ATOM     18  O   UNL     1       2.858   2.475   0.000  0.00  0.00    +0.000 OA
ENDROOT
BRANCH   1  19
ATOM     19  S   UNL     1       5.001  -0.412   0.000  0.00  0.00    +0.000 S 
ATOM     20  O   UNL     1       5.414   0.302   0.000  0.00  0.00    +0.000 OA
ATOM     21  O   UNL     1       4.589  -1.127   0.000  0.00  0.00    +0.000 OA
BRANCH  19  28
ATOM     22  C   UNL     1       7.859  -0.412   0.000  0.00  0.00    +0.000 C 
ATOM     23  C   UNL     1       7.145  -0.825   0.000  0.00  0.00    +0.000 C 
ATOM     24  C   UNL     1       7.145  -1.650   0.000  0.00  0.00    +0.000 C 
ATOM     25  C   UNL     1       6.430  -2.062   0.000  0.00  0.00    +0.000 C 
ATOM     26  C   UNL     1       6.430  -2.888   0.000  0.00  0.00    +0.000 C 
ATOM     27  C   UNL     1       5.716  -1.650   0.000  0.00  0.00    +0.000 C 
ATOM     28  N   UNL     1       5.716  -0.825   0.000  0.00  0.00    +0.000 NA
ATOM     29  C   UNL     1       6.430  -0.412   0.000  0.00  0.00    +0.000 C 
ENDBRANCH  19  28
ENDBRANCH   1  19
BRANCH  12  30
ATOM     30  S   UNL     1      -0.715  -0.412   0.000  0.00  0.00    +0.000 S 
ATOM     31  O   UNL     1      -1.127   0.302   0.000  0.00  0.00    +0.000 OA
ATOM     32  O   UNL     1      -0.302  -1.127   0.000  0.00  0.00    +0.000 OA
BRANCH  30  33
ATOM     33  N   UNL     1      -1.429  -0.825   0.000  0.00  0.00    +0.000 NA
ATOM     34  C   UNL     1      -1.429  -1.650   0.000  0.00  0.00    +0.000 C 
ATOM     35  C   UNL     1      -2.143  -2.062   0.000  0.00  0.00    +0.000 C 
ATOM     36  C   UNL     1      -2.143  -2.888   0.000  0.00  0.00    +0.000 C 
ATOM     37  C   UNL     1      -2.858  -1.650   0.000  0.00  0.00    +0.000 C 
ATOM     38  C   UNL     1      -2.858  -0.825   0.000  0.00  0.00    +0.000 C 
ATOM     39  C   UNL     1      -3.572  -0.412   0.000  0.00  0.00    +0.000 C 
ATOM     40  C   UNL     1      -2.143  -0.412   0.000  0.00  0.00    +0.000 C 
ENDBRANCH  30  33
ENDBRANCH  12  30
TORSDOF 4
