REMARK  Name = 
REMARK  5 active torsions:
REMARK  status: ('A' for Active; 'I' for Inactive)
REMARK    1  A    between atoms: C_2  and  N_3
REMARK    2  A    between atoms: N_3  and  C_4
REMARK    3  A    between atoms: C_4  and  C_5
REMARK    4  A    between atoms: C_11  and  C_15
REMARK    5  A    between atoms: N_16  and  C_17
REMARK                            x       y       z     vdW  Elec       q    Type
REMARK                         _______ _______ _______ _____ _____    ______ ____
ROOT
ATOM      1  N   UNL     1      -3.196  -1.444   0.000  0.00  0.00    +0.000 NA
ATOM      2  C   UNL     1      -2.482  -1.031   0.000  0.00  0.00    +0.000 A 
ATOM      3  C   UNL     1      -1.768  -1.444   0.000  0.00  0.00    +0.000 A 
ATOM      4  C   UNL     1      -1.768  -2.269   0.000  0.00  0.00    +0.000 A 
ATOM      5  C   UNL     1      -2.482  -2.681   0.000  0.00  0.00    +0.000 A 
ATOM      6  C   UNL     1      -3.196  -2.269   0.000  0.00  0.00    +0.000 A 
ENDROOT
BRANCH   3   7
ATOM      7  C   UNL     1      -1.053  -1.031   0.000  0.00  0.00    +0.000 C 
ATOM      8  N   UNL     1      -0.339  -1.444   0.000  0.00  0.00    +0.000 NA
ATOM      9  O   UNL     1      -1.053  -0.206   0.000  0.00  0.00    +0.000 OA
BRANCH   8  10
ATOM     10  C   UNL     1       0.376  -1.031   0.000  0.00  0.00    +0.000 A 
ATOM     11  C   UNL     1       0.376  -0.206   0.000  0.00  0.00    +0.000 A 
ATOM     12  C   UNL     1       1.090   0.206   0.000  0.00  0.00    +0.000 A 
ATOM     13  C   UNL     1       1.805  -0.206   0.000  0.00  0.00    +0.000 A 
ATOM     14  C   UNL     1       1.805  -1.031   0.000  0.00  0.00    +0.000 A 
ATOM     15  C   UNL     1       1.090  -1.444   0.000  0.00  0.00    +0.000 A 
ATOM     16  N   UNL     1       2.589  -1.286   0.000  0.00  0.00    +0.000 NA
ATOM     17  C   UNL     1       3.074  -0.619   0.000  0.00  0.00    +0.000 C 
ATOM     18  C   UNL     1       2.589   0.049   0.000  0.00  0.00    +0.000 C 
ATOM     19  C   UNL     1       2.426   0.857   0.000  0.00  0.00    +0.000 C 
ATOM     20  C   UNL     1       3.197   0.607   0.000  0.00  0.00    +0.000 C 
ENDBRANCH   8  10
ENDBRANCH   3   7
BRANCH   2  21
ATOM     21  N   UNL     1      -2.482  -0.206   0.000  0.00  0.00    +0.000 NA
BRANCH  21  22
ATOM     22  C   UNL     1      -1.768   0.206   0.000  0.00  0.00    +0.000 C 
BRANCH  22  23
ATOM     23  C   UNL     1      -1.768   1.031   0.000  0.00  0.00    +0.000 A 
ATOM     24  C   UNL     1      -2.482   1.444   0.000  0.00  0.00    +0.000 A 
ATOM     25  C   UNL     1      -2.482   2.269   0.000  0.00  0.00    +0.000 A 
ATOM     26  N   UNL     1      -1.768   2.681   0.000  0.00  0.00    +0.000 NA
ATOM     27  C   UNL     1      -1.053   2.269   0.000  0.00  0.00    +0.000 A 
ATOM     28  C   UNL     1      -1.053   1.444   0.000  0.00  0.00    +0.000 A 
ENDBRANCH  22  23
ENDBRANCH  21  22
ENDBRANCH   2  21
TORSDOF 5
