REMARK  Name = 
REMARK  3 active torsions:
REMARK  status: ('A' for Active; 'I' for Inactive)
REMARK    1  A    between atoms: C_2  and  O_12
REMARK    2  A    between atoms: C_7  and  C_9
REMARK    3  A    between atoms: C_9  and  O_12
REMARK                            x       y       z     vdW  Elec       q    Type
REMARK                         _______ _______ _______ _____ _____    ______ ____
ROOT
ATOM      1  C   UNL     1       1.012  -1.341   0.000  0.00  0.00    +0.000 A 
ATOM      2  C   UNL     1       1.012  -0.515   0.000  0.00  0.00    +0.000 A 
ATOM      3  C   UNL     1       0.298  -1.753   0.000  0.00  0.00    +0.000 A 
ATOM      4  C   UNL     1      -0.417  -0.515   0.000  0.00  0.00    +0.000 A 
ATOM      5  C   UNL     1       0.298  -0.103   0.000  0.00  0.00    +0.000 A 
ATOM      6  C   UNL     1      -0.417  -1.341   0.000  0.00  0.00    +0.000 A 
ATOM      7  N   UNL     1      -1.131  -1.753   0.000  0.00  0.00    +0.000 NA
ENDROOT
BRANCH   5   8
ATOM      8  C   UNL     1       0.298   0.722   0.000  0.00  0.00    +0.000 C 
ATOM      9  O   UNL     1       1.012   1.134   0.000  0.00  0.00    +0.000 OA
BRANCH   8  10
ATOM     10  O   UNL     1      -0.417   1.134   0.000  0.00  0.00    +0.000 OA
BRANCH  10  12
ATOM     11  C   UNL     1      -1.131   2.372   0.000  0.00  0.00    +0.000 C 
ATOM     12  C   UNL     1      -0.417   1.959   0.000  0.00  0.00    +0.000 C 
ENDBRANCH  10  12
ENDBRANCH   8  10
ENDBRANCH   5   8
TORSDOF 3
