REMARK  Name = 
REMARK  3 active torsions:
REMARK  status: ('A' for Active; 'I' for Inactive)
REMARK    1  A    between atoms: C_2  and  C_4
REMARK    2  A    between atoms: C_2  and  C_5
REMARK    3  A    between atoms: C_17  and  O_20
REMARK                            x       y       z     vdW  Elec       q    Type
REMARK                         _______ _______ _______ _____ _____    ______ ____
ROOT
ATOM      1  C   UNL     1       0.202   0.059   0.000  0.00  0.00    +0.000 C 
ATOM      2  C   UNL     1      -0.606   0.059   0.000  0.00  0.00    +0.000 C 
ATOM      3  N   UNL     1       1.415   0.757   0.000  0.00  0.00    +0.000 N 
ATOM      4  C   UNL     1       0.606   0.757   0.000  0.00  0.00    +0.000 C 
ATOM      5  C   UNL     1       0.643  -0.659   0.000  0.00  0.00    +0.000 C 
ATOM      6  C   UNL     1       1.875   0.067   0.000  0.00  0.00    +0.000 C 
ATOM      7  C   UNL     1       1.470  -0.646   0.000  0.00  0.00    +0.000 C 
ATOM      8  C   UNL     1       1.328   1.597   0.000  0.00  0.00    +0.000 C 
ATOM      9  C   UNL     1       2.057   1.233   0.000  0.00  0.00    +0.000 C 
ENDROOT
BRANCH   2  10
ATOM     10  C   UNL     1      -1.003   0.757   0.000  0.00  0.00    +0.000 A 
ATOM     11  S   UNL     1      -0.646   1.502   0.000  0.00  0.00    +0.000 S 
ATOM     12  C   UNL     1      -1.819   0.844   0.000  0.00  0.00    +0.000 A 
ATOM     13  C   UNL     1      -1.264   2.057   0.000  0.00  0.00    +0.000 A 
ATOM     14  C   UNL     1      -1.981   1.648   0.000  0.00  0.00    +0.000 A 
ENDBRANCH   2  10
BRANCH   2  15
ATOM     15  C   UNL     1      -1.034  -0.659   0.000  0.00  0.00    +0.000 A 
ATOM     16  S   UNL     1      -1.891  -0.733   0.000  0.00  0.00    +0.000 S 
ATOM     17  C   UNL     1      -0.702  -1.423   0.000  0.00  0.00    +0.000 A 
ATOM     18  C   UNL     1      -2.057  -1.550   0.000  0.00  0.00    +0.000 A 
ATOM     19  C   UNL     1      -1.328  -1.983   0.000  0.00  0.00    +0.000 A 
ENDBRANCH   2  15
BRANCH   7  20
ATOM     20  O   UNL     1       1.888  -1.349   0.000  0.00  0.00    +0.000 OA
ATOM     21  C   UNL     1       1.486  -2.057   0.000  0.00  0.00    +0.000 C 
ENDBRANCH   7  20
TORSDOF 3
