REMARK  Name = 
REMARK  4 active torsions:
REMARK  status: ('A' for Active; 'I' for Inactive)
REMARK    1  A    between atoms: SI_2  and  C_5
REMARK    2  A    between atoms: C_7  and  SI_26
REMARK    3  A    between atoms: C_11  and  N_12
REMARK    4  A    between atoms: C_13  and  C_15
REMARK                            x       y       z     vdW  Elec       q    Type
REMARK                         _______ _______ _______ _____ _____    ______ ____
ROOT
ATOM      1  C   UNL     1      -2.143   2.062   0.000  0.00  0.00    +0.000 A 
ATOM      2  C   UNL     1      -2.858   2.475   0.000  0.00  0.00    +0.000 A 
ATOM      3  C   UNL     1      -3.572   2.062   0.000  0.00  0.00    +0.000 A 
ATOM      4  C   UNL     1      -3.572   1.238   0.000  0.00  0.00    +0.000 A 
ATOM      5  O   UNL     1      -4.287   0.825   0.000  0.00  0.00    +0.000 OA
ATOM      6  C   UNL     1      -2.858   0.825   0.000  0.00  0.00    +0.000 A 
ATOM      7  C   UNL     1      -2.143   1.238   0.000  0.00  0.00    +0.000 A 
ENDROOT
BRANCH   1   9
ATOM      8  C   UNL     1      -0.715   2.888   0.000  0.00  0.00    +0.000 C 
ATOM      9 SI   UNL     1      -1.429   2.475   0.000  0.00  0.00    +0.000 Si
ATOM     10  C   UNL     1      -1.841   3.189   0.000  0.00  0.00    +0.000 C 
ATOM     11  C   UNL     1      -1.016   1.760   0.000  0.00  0.00    +0.000 C 
ENDBRANCH   1   9
BRANCH   3  12
ATOM     12 SI   UNL     1      -4.287   2.475   0.000  0.00  0.00    +0.000 Si
ATOM     13  C   UNL     1      -5.001   2.888   0.000  0.00  0.00    +0.000 C 
ATOM     14  C   UNL     1      -3.874   3.189   0.000  0.00  0.00    +0.000 C 
ATOM     15  C   UNL     1      -4.699   1.760   0.000  0.00  0.00    +0.000 C 
ENDBRANCH   3  12
BRANCH   7  16
ATOM     16  N   UNL     1      -1.429   0.825   0.000  0.00  0.00    +0.000 NA
ATOM     17  C   UNL     1      -1.429   0.000   0.000  0.00  0.00    +0.000 C 
ATOM     18  O   UNL     1      -2.143  -0.412   0.000  0.00  0.00    +0.000 OA
BRANCH  17  19
ATOM     19  C   UNL     1      -0.715  -0.412   0.000  0.00  0.00    +0.000 A 
ATOM     20  C   UNL     1      -0.715  -1.238   0.000  0.00  0.00    +0.000 A 
ATOM     21  N   UNL     1       0.000  -1.650   0.000  0.00  0.00    +0.000 NA
ATOM     22  C   UNL     1       0.715  -1.238   0.000  0.00  0.00    +0.000 A 
ATOM     23  C   UNL     1       0.715  -0.412   0.000  0.00  0.00    +0.000 A 
ATOM     24  C   UNL     1       1.429   0.000   0.000  0.00  0.00    +0.000 A 
ATOM     25  C   UNL     1       2.143  -0.412   0.000  0.00  0.00    +0.000 A 
ATOM     26  C   UNL     1       2.143  -1.238   0.000  0.00  0.00    +0.000 A 
ATOM     27  C   UNL     1       1.429  -1.650   0.000  0.00  0.00    +0.000 A 
ATOM     28  C   UNL     1       0.000   0.000   0.000  0.00  0.00    +0.000 A 
ATOM     29  O   UNL     1       0.000   0.825   0.000  0.00  0.00    +0.000 OA
ENDBRANCH  17  19
ENDBRANCH   7  16
TORSDOF 4
