REMARK  Name = 
REMARK  2 active torsions:
REMARK  status: ('A' for Active; 'I' for Inactive)
REMARK    1  A    between atoms: N_4  and  C_10
REMARK    2  A    between atoms: C_10  and  C_13
REMARK                            x       y       z     vdW  Elec       q    Type
REMARK                         _______ _______ _______ _____ _____    ______ ____
ROOT
ATOM      1  O   UNL     1      -0.338   0.824   0.000  0.00  0.00    +0.000 OA
ATOM      2  O   UNL     1       1.082   0.819   0.000  0.00  0.00    +0.000 OA
ATOM      3  N   UNL     1       0.377  -0.412   0.000  0.00  0.00    +0.000 N 
ATOM      4  C   UNL     1      -1.052  -0.412   0.000  0.00  0.00    +0.000 A 
ATOM      5  C   UNL     1      -1.052   0.412   0.000  0.00  0.00    +0.000 A 
ATOM      6  C   UNL     1       0.377   0.412   0.000  0.00  0.00    +0.000 C 
ATOM      7  C   UNL     1      -0.338  -0.824   0.000  0.00  0.00    +0.000 C 
ATOM      8  C   UNL     1      -1.767  -0.824   0.000  0.00  0.00    +0.000 A 
ATOM      9  C   UNL     1      -1.767   0.824   0.000  0.00  0.00    +0.000 A 
ATOM     10  C   UNL     1      -2.482  -0.412   0.000  0.00  0.00    +0.000 A 
ATOM     11  C   UNL     1      -2.482   0.412   0.000  0.00  0.00    +0.000 A 
ENDROOT
BRANCH   3  12
ATOM     12  C   UNL     1       1.082  -0.819   0.000  0.00  0.00    +0.000 C 
BRANCH  12  15
ATOM     13  O   UNL     1       1.782   0.412   0.000  0.00  0.00    +0.000 OA
ATOM     14  N   UNL     1       2.482  -0.819   0.000  0.00  0.00    +0.000 NA
ATOM     15  C   UNL     1       1.782  -0.417   0.000  0.00  0.00    +0.000 C 
ENDBRANCH  12  15
ENDBRANCH   3  12
TORSDOF 2
