REMARK  Name = 
REMARK  2 active torsions:
REMARK  status: ('A' for Active; 'I' for Inactive)
REMARK    1  A    between atoms: N_2  and  C_5
REMARK    2  A    between atoms: C_12  and  C_19
REMARK                            x       y       z     vdW  Elec       q    Type
REMARK                         _______ _______ _______ _____ _____    ______ ____
ROOT
ATOM      1  C   UNL     1       0.874   0.846   0.000  0.00  0.00    +0.000 A 
ATOM      2  N   UNL     1       1.575   0.433   0.000  0.00  0.00    +0.000 N 
ATOM      3  C   UNL     1       0.874   1.671   0.000  0.00  0.00    +0.000 A 
ATOM      4  N   UNL     1       0.132   0.433   0.000  0.00  0.00    +0.000 NA
ATOM      5  C   UNL     1       2.276   0.846   0.000  0.00  0.00    +0.000 A 
ATOM      6  C   UNL     1       1.534   2.083   0.000  0.00  0.00    +0.000 A 
ATOM      7  C   UNL     1       0.132   2.083   0.000  0.00  0.00    +0.000 A 
ATOM      8  C   UNL     1      -0.570   0.846   0.000  0.00  0.00    +0.000 A 
ATOM      9  C   UNL     1       2.276   1.671   0.000  0.00  0.00    +0.000 A 
ATOM     10  O   UNL     1       1.534   2.908   0.000  0.00  0.00    +0.000 OA
ATOM     11  C   UNL     1      -0.570   1.671   0.000  0.00  0.00    +0.000 A 
ATOM     12  N   UNL     1      -1.271   0.392   0.000  0.00  0.00    +0.000 N 
ATOM     13  F   UNL     1      -1.271   2.083   0.000  0.00  0.00    +0.000 F 
ATOM     14  C   UNL     1      -2.041   0.689   0.000  0.00  0.00    +0.000 C 
ATOM     15  C   UNL     1      -2.561   0.049   0.000  0.00  0.00    +0.000 C 
ATOM     16  C   UNL     1      -2.113  -0.644   0.000  0.00  0.00    +0.000 C 
ATOM     17  C   UNL     1      -1.274  -0.432   0.000  0.00  0.00    +0.000 C 
ATOM     18  C   UNL     1      -2.962  -0.639   0.000  0.00  0.00    +0.000 C 
ATOM     19  N   UNL     1      -3.679  -1.048   0.000  0.00  0.00    +0.000 NA
ENDROOT
BRANCH   2  20
ATOM     20  C   UNL     1       1.575  -0.392   0.000  0.00  0.00    +0.000 A 
ATOM     21  C   UNL     1       2.318  -0.804   0.000  0.00  0.00    +0.000 A 
ATOM     22  C   UNL     1       0.874  -0.804   0.000  0.00  0.00    +0.000 A 
ATOM     23  C   UNL     1       2.318  -1.671   0.000  0.00  0.00    +0.000 A 
ATOM     24  F   UNL     1       3.019  -0.392   0.000  0.00  0.00    +0.000 F 
ATOM     25  C   UNL     1       0.874  -1.629   0.000  0.00  0.00    +0.000 A 
ATOM     26  C   UNL     1       1.575  -2.042   0.000  0.00  0.00    +0.000 A 
ATOM     27  F   UNL     1       1.575  -2.908   0.000  0.00  0.00    +0.000 F 
ENDBRANCH   2  20
BRANCH   9  28
ATOM     28  C   UNL     1       2.978   2.083   0.000  0.00  0.00    +0.000 C 
ATOM     29  O   UNL     1       3.679   1.671   0.000  0.00  0.00    +0.000 OA
ATOM     30  O   UNL     1       2.978   2.908   0.000  0.00  0.00    +0.000 OA
ENDBRANCH   9  28
TORSDOF 2
