REMARK  Name = 
REMARK  16 active torsions:
REMARK  status: ('A' for Active; 'I' for Inactive)
REMARK    1  A    between atoms: C_4  and  O_59
REMARK    2  A    between atoms: C_11  and  O_53
REMARK    3  A    between atoms: C_13  and  O_42
REMARK    4  A    between atoms: C_19  and  O_20
REMARK    5  A    between atoms: O_20  and  C_21
REMARK    6  A    between atoms: C_21  and  C_23
REMARK    7  A    between atoms: C_23  and  C_24
REMARK    8  A    between atoms: C_24  and  C_25
REMARK    9  A    between atoms: C_24  and  N_29
REMARK   10  A    between atoms: C_25  and  C_26
REMARK   11  A    between atoms: C_30  and  O_32
REMARK   12  A    between atoms: O_32  and  C_33
REMARK   13  A    between atoms: O_42  and  C_43
REMARK   14  A    between atoms: C_43  and  C_45
REMARK   15  A    between atoms: O_53  and  C_54
REMARK   16  A    between atoms: O_59  and  C_60
REMARK                            x       y       z     vdW  Elec       q    Type
REMARK                         _______ _______ _______ _____ _____    ______ ____
ROOT
ATOM      1  C   UNL     1      -0.586   1.263   0.000  0.00  0.00    +0.000 C 
ATOM      2  C   UNL     1       0.098   0.803   0.000  0.00  0.00    +0.000 C 
ATOM      3  C   UNL     1       0.861   1.196   0.000  0.00  0.00    +0.000 C 
ATOM      4  C   UNL     1       1.377   1.883   0.000  0.00  0.00    +0.000 C 
ATOM      5  C   UNL     1       2.211   2.022   0.000  0.00  0.00    +0.000 C 
ATOM      6  O   UNL     1       2.402   2.825   0.000  0.00  0.00    +0.000 OA
ATOM      7  C   UNL     1       2.889   1.525   0.000  0.00  0.00    +0.000 C 
ATOM      8  C   UNL     1       3.547   2.023   0.000  0.00  0.00    +0.000 C 
ATOM      9  C   UNL     1       4.307   1.702   0.000  0.00  0.00    +0.000 C 
ATOM     10  C   UNL     1       4.409   0.883   0.000  0.00  0.00    +0.000 C 
ATOM     11  C   UNL     1       3.751   0.385   0.000  0.00  0.00    +0.000 C 
ATOM     12  C   UNL     1       2.991   0.706   0.000  0.00  0.00    +0.000 C 
ATOM     13  C   UNL     1       2.450   0.032   0.000  0.00  0.00    +0.000 C 
ATOM     14  C   UNL     1       1.576  -0.166   0.000  0.00  0.00    +0.000 C 
ATOM     15  C   UNL     1       1.273   0.524   0.000  0.00  0.00    +0.000 C 
ATOM     16  C   UNL     1       2.094   0.606   0.000  0.00  0.00    +0.000 C 
ATOM     17  C   UNL     1       1.809   1.151   0.000  0.00  0.00    +0.000 C 
ATOM     18  C   UNL     1       0.755  -0.487   0.000  0.00  0.00    +0.000 C 
ATOM     19  C   UNL     1       0.022  -0.038   0.000  0.00  0.00    +0.000 C 
ATOM     20  O   UNL     1       0.723  -1.318   0.000  0.00  0.00    +0.000 OA
ATOM     21  C   UNL     1       1.502  -1.584   0.000  0.00  0.00    +0.000 C 
ATOM     22  O   UNL     1       1.746  -2.373   0.000  0.00  0.00    +0.000 OA
ATOM     23  O   UNL     1       2.001  -0.917   0.000  0.00  0.00    +0.000 OA
ATOM     24  C   UNL     1       4.249  -0.273   0.000  0.00  0.00    +0.000 C 
ATOM     25  O   UNL     1       4.907   0.225   0.000  0.00  0.00    +0.000 OA
ATOM     26  O   UNL     1       3.445   2.841   0.000  0.00  0.00    +0.000 OA
ATOM     27  C   UNL     1       2.883   2.350   0.000  0.00  0.00    +0.000 C 
ENDROOT
BRANCH  13  28
ATOM     28  O   UNL     1       2.887  -0.668   0.000  0.00  0.00    +0.000 OA
BRANCH  28  29
ATOM     29  C   UNL     1       2.499  -1.397   0.000  0.00  0.00    +0.000 C 
ATOM     30  O   UNL     1       1.849  -1.904   0.000  0.00  0.00    +0.000 OA
BRANCH  29  31
ATOM     31  C   UNL     1       2.937  -2.096   0.000  0.00  0.00    +0.000 A 
ATOM     32  C   UNL     1       3.761  -2.068   0.000  0.00  0.00    +0.000 A 
ATOM     33  C   UNL     1       4.198  -2.767   0.000  0.00  0.00    +0.000 A 
ATOM     34  C   UNL     1       3.811  -3.496   0.000  0.00  0.00    +0.000 A 
ATOM     35  C   UNL     1       2.986  -3.524   0.000  0.00  0.00    +0.000 A 
ATOM     36  C   UNL     1       2.549  -2.825   0.000  0.00  0.00    +0.000 A 
ENDBRANCH  29  31
ENDBRANCH  28  29
ENDBRANCH  13  28
BRANCH  19  37
ATOM     37  O   UNL     1      -0.716  -0.408   0.000  0.00  0.00    +0.000 OA
BRANCH  37  38
ATOM     38  C   UNL     1      -1.405   0.045   0.000  0.00  0.00    +0.000 C 
ATOM     39  O   UNL     1      -1.357   0.869   0.000  0.00  0.00    +0.000 OA
BRANCH  38  40
ATOM     40  C   UNL     1      -2.142  -0.325   0.000  0.00  0.00    +0.000 C 
ATOM     41  O   UNL     1      -2.190  -1.148   0.000  0.00  0.00    +0.000 OA
BRANCH  40  42
ATOM     42  C   UNL     1      -2.831   0.129   0.000  0.00  0.00    +0.000 C 
BRANCH  42  43
ATOM     43  N   UNL     1      -3.569  -0.241   0.000  0.00  0.00    +0.000 NA
ATOM     44  C   UNL     1      -3.617  -1.065   0.000  0.00  0.00    +0.000 C 
ATOM     45  O   UNL     1      -4.354  -1.435   0.000  0.00  0.00    +0.000 OA
BRANCH  44  46
ATOM     46  O   UNL     1      -2.928  -1.518   0.000  0.00  0.00    +0.000 OA
BRANCH  46  47
ATOM     47  C   UNL     1      -2.976  -2.342   0.000  0.00  0.00    +0.000 C 
ATOM     48  C   UNL     1      -3.024  -3.165   0.000  0.00  0.00    +0.000 C 
ATOM     49  C   UNL     1      -2.152  -2.390   0.000  0.00  0.00    +0.000 C 
ATOM     50  C   UNL     1      -3.800  -2.294   0.000  0.00  0.00    +0.000 C 
ENDBRANCH  46  47
ENDBRANCH  44  46
ENDBRANCH  42  43
BRANCH  42  51
ATOM     51  C   UNL     1      -2.783   0.953   0.000  0.00  0.00    +0.000 C 
BRANCH  51  52
ATOM     52  C   UNL     1      -3.472   1.406   0.000  0.00  0.00    +0.000 C 
ATOM     53  C   UNL     1      -4.210   1.036   0.000  0.00  0.00    +0.000 C 
ATOM     54  C   UNL     1      -3.424   2.230   0.000  0.00  0.00    +0.000 C 
ENDBRANCH  51  52
ENDBRANCH  42  51
ENDBRANCH  40  42
ENDBRANCH  38  40
ENDBRANCH  37  38
ENDBRANCH  19  37
BRANCH  11  55
ATOM     55  O   UNL     1       3.245  -0.266   0.000  0.00  0.00    +0.000 OA
BRANCH  55  56
ATOM     56  C   UNL     1       3.555  -1.030   0.000  0.00  0.00    +0.000 C 
ATOM     57  O   UNL     1       4.372  -1.143   0.000  0.00  0.00    +0.000 OA
ATOM     58  C   UNL     1       3.049  -1.681   0.000  0.00  0.00    +0.000 C 
ENDBRANCH  55  56
ENDBRANCH  11  55
BRANCH   4  59
ATOM     59  O   UNL     1       0.949   2.588   0.000  0.00  0.00    +0.000 OA
BRANCH  59  60
ATOM     60  C   UNL     1       0.124   2.570   0.000  0.00  0.00    +0.000 C 
ATOM     61  O   UNL     1      -0.273   1.846   0.000  0.00  0.00    +0.000 OA
ATOM     62  C   UNL     1      -0.304   3.275   0.000  0.00  0.00    +0.000 C 
ENDBRANCH  59  60
ENDBRANCH   4  59
TORSDOF 16
