REMARK  Name = 
REMARK  5 active torsions:
REMARK  status: ('A' for Active; 'I' for Inactive)
REMARK    1  A    between atoms: C_2  and  C_3
REMARK    2  A    between atoms: C_3  and  C_4
REMARK    3  A    between atoms: C_4  and  N_5
REMARK    4  A    between atoms: C_8  and  N_13
REMARK    5  A    between atoms: C_16  and  C_19
REMARK                            x       y       z     vdW  Elec       q    Type
REMARK                         _______ _______ _______ _____ _____    ______ ____
ROOT
ATOM      1  N   UNL     1       0.715  -3.712   0.000  0.00  0.00    +0.000 N 
ATOM      2  C   UNL     1       1.429  -4.125   0.000  0.00  0.00    +0.000 A 
ATOM      3  C   UNL     1       1.429  -4.950   0.000  0.00  0.00    +0.000 A 
ATOM      4  C   UNL     1       0.715  -5.362   0.000  0.00  0.00    +0.000 A 
ATOM      5  C   UNL     1       0.000  -4.950   0.000  0.00  0.00    +0.000 A 
ATOM      6  C   UNL     1       0.000  -4.125   0.000  0.00  0.00    +0.000 A 
ATOM      7  O   UNL     1      -0.715  -3.712   0.000  0.00  0.00    +0.000 OA
ATOM      8 CL   UNL     1      -0.715  -5.362   0.000  0.00  0.00    +0.000 Cl
ENDROOT
BRANCH   4   9
ATOM      9  N   UNL     1       0.715  -6.188   0.000  0.00  0.00    +0.000 N 
ATOM     10  C   UNL     1       1.429  -6.600   0.000  0.00  0.00    +0.000 C 
ATOM     11  C   UNL     1       1.429  -7.425   0.000  0.00  0.00    +0.000 C 
ATOM     12  C   UNL     1       0.715  -7.838   0.000  0.00  0.00    +0.000 C 
ATOM     13  C   UNL     1       0.000  -7.425   0.000  0.00  0.00    +0.000 C 
ATOM     14  C   UNL     1       0.000  -6.600   0.000  0.00  0.00    +0.000 C 
BRANCH  12  15
ATOM     15  C   UNL     1       0.715  -8.662   0.000  0.00  0.00    +0.000 A 
ATOM     16  C   UNL     1       1.429  -9.075   0.000  0.00  0.00    +0.000 A 
ATOM     17  C   UNL     1       1.429  -9.900   0.000  0.00  0.00    +0.000 A 
ATOM     18  C   UNL     1       0.715 -10.312   0.000  0.00  0.00    +0.000 A 
ATOM     19  C   UNL     1       0.000  -9.900   0.000  0.00  0.00    +0.000 A 
ATOM     20  C   UNL     1       0.000  -9.075   0.000  0.00  0.00    +0.000 A 
ENDBRANCH  12  15
ENDBRANCH   4   9
BRANCH   1  21
ATOM     21  C   UNL     1       0.715  -2.888   0.000  0.00  0.00    +0.000 C 
BRANCH  21  22
ATOM     22  C   UNL     1       0.000  -2.475   0.000  0.00  0.00    +0.000 C 
BRANCH  22  24
ATOM     23  C   UNL     1      -0.715  -1.238   0.000  0.00  0.00    +0.000 C 
ATOM     24  C   UNL     1       0.000  -1.650   0.000  0.00  0.00    +0.000 C 
ENDBRANCH  22  24
ENDBRANCH  21  22
ENDBRANCH   1  21
TORSDOF 5
