REMARK  Name = 
REMARK  10 active torsions:
REMARK  status: ('A' for Active; 'I' for Inactive)
REMARK    1  A    between atoms: C_5  and  N_21
REMARK    2  A    between atoms: C_6  and  N_21
REMARK    3  A    between atoms: C_7  and  O_24
REMARK    4  A    between atoms: C_10  and  C_11
REMARK    5  A    between atoms: C_10  and  C_17
REMARK    6  A    between atoms: C_11  and  N_21
REMARK    7  A    between atoms: C_13  and  C_19
REMARK    8  A    between atoms: C_13  and  O_25
REMARK    9  A    between atoms: C_15  and  O_25
REMARK   10  A    between atoms: C_19  and  O_24
REMARK                            x       y       z     vdW  Elec       q    Type
REMARK                         _______ _______ _______ _____ _____    ______ ____
ROOT
ATOM      1  C   UNL     1      12.146  -2.888   0.000  0.00  0.00    +0.000 C 
ATOM      2  C   UNL     1      10.003  -1.650   0.000  0.00  0.00    +0.000 A 
ATOM      3  C   UNL     1      10.717  -2.062   0.000  0.00  0.00    +0.000 A 
ATOM      4  C   UNL     1       9.288  -2.888   0.000  0.00  0.00    +0.000 A 
ATOM      5  C   UNL     1      11.431  -3.300   0.000  0.00  0.00    +0.000 A 
ATOM      6  C   UNL     1       9.288  -2.062   0.000  0.00  0.00    +0.000 A 
ATOM      7  C   UNL     1      10.717  -2.888   0.000  0.00  0.00    +0.000 A 
ATOM      8  C   UNL     1      11.431  -4.125   0.000  0.00  0.00    +0.000 A 
ATOM      9  C   UNL     1      10.003  -3.300   0.000  0.00  0.00    +0.000 A 
ATOM     10  C   UNL     1      10.717  -4.537   0.000  0.00  0.00    +0.000 A 
ATOM     11  O   UNL     1      10.717  -5.362   0.000  0.00  0.00    +0.000 OA
ATOM     12  O   UNL     1      10.003  -4.125   0.000  0.00  0.00    +0.000 OA
ENDROOT
BRANCH   8  13
ATOM     13  C   UNL     1      12.146  -4.537   0.000  0.00  0.00    +0.000 C 
BRANCH  13  14
ATOM     14  C   UNL     1      12.146  -5.362   0.000  0.00  0.00    +0.000 C 
BRANCH  14  15
ATOM     15  N   UNL     1      12.861  -5.775   0.000  0.00  0.00    +0.000 NA
BRANCH  15  17
ATOM     16  C   UNL     1      13.575  -7.013   0.000  0.00  0.00    +0.000 C 
ATOM     17  C   UNL     1      12.861  -6.600   0.000  0.00  0.00    +0.000 C 
ENDBRANCH  15  17
BRANCH  15  19
ATOM     18  C   UNL     1      14.289  -5.775   0.000  0.00  0.00    +0.000 C 
ATOM     19  C   UNL     1      13.575  -5.362   0.000  0.00  0.00    +0.000 C 
ENDBRANCH  15  19
ENDBRANCH  14  15
ENDBRANCH  13  14
ENDBRANCH   8  13
BRANCH   6  20
ATOM     20  O   UNL     1       8.574  -1.650   0.000  0.00  0.00    +0.000 OA
BRANCH  20  21
ATOM     21  C   UNL     1       7.859  -2.062   0.000  0.00  0.00    +0.000 C 
BRANCH  21  22
ATOM     22  C   UNL     1       7.145  -1.650   0.000  0.00  0.00    +0.000 C 
ATOM     23  O   UNL     1       7.145  -0.825   0.000  0.00  0.00    +0.000 OA
BRANCH  22  24
ATOM     24  O   UNL     1       6.430  -2.062   0.000  0.00  0.00    +0.000 OA
BRANCH  24  26
ATOM     25  C   UNL     1       5.001  -2.062   0.000  0.00  0.00    +0.000 C 
ATOM     26  C   UNL     1       5.716  -1.650   0.000  0.00  0.00    +0.000 C 
ENDBRANCH  24  26
ENDBRANCH  22  24
ENDBRANCH  21  22
ENDBRANCH  20  21
ENDBRANCH   6  20
TORSDOF 10
