REMARK  Name = 
REMARK  0 active torsions:
REMARK  status: ('A' for Active; 'I' for Inactive)
REMARK                            x       y       z     vdW  Elec       q    Type
REMARK                         _______ _______ _______ _____ _____    ______ ____
ROOT
ATOM      1  C   UNL     1      -0.367   0.417   0.000  0.00  0.00    +0.000 A 
ATOM      2  C   UNL     1      -0.367  -0.418   0.000  0.00  0.00    +0.000 A 
ATOM      3  N   UNL     1       0.345   0.826   0.000  0.00  0.00    +0.000 NA
ATOM      4  C   UNL     1      -1.068   0.826   0.000  0.00  0.00    +0.000 A 
ATOM      5  C   UNL     1       0.345  -0.826   0.000  0.00  0.00    +0.000 A 
ATOM      6  C   UNL     1      -1.068  -0.826   0.000  0.00  0.00    +0.000 A 
ATOM      7  C   UNL     1       1.059   0.417   0.000  0.00  0.00    +0.000 A 
ATOM      8  C   UNL     1      -1.785   0.417   0.000  0.00  0.00    +0.000 A 
ATOM      9  C   UNL     1       1.059  -0.418   0.000  0.00  0.00    +0.000 A 
ATOM     10  C   UNL     1      -1.785  -0.418   0.000  0.00  0.00    +0.000 A 
ATOM     11  O   UNL     1       1.785   0.826   0.000  0.00  0.00    +0.000 OA
ENDROOT
TORSDOF 0
