REMARK  Name = 
REMARK  3 active torsions:
REMARK  status: ('A' for Active; 'I' for Inactive)
REMARK    1  A    between atoms: C_8  and  C_15
REMARK    2  A    between atoms: C_8  and  C_21
REMARK    3  A    between atoms: C_15  and  N_18
REMARK                            x       y       z     vdW  Elec       q    Type
REMARK                         _______ _______ _______ _____ _____    ______ ____
ROOT
ATOM      1  C   UNL     1       0.000   0.746   0.000  0.00  0.00    +0.000 C 
ATOM      2  C   UNL     1      -0.743   1.104   0.000  0.00  0.00    +0.000 A 
ATOM      3  C   UNL     1       0.743   1.104   0.000  0.00  0.00    +0.000 A 
ATOM      4  C   UNL     1      -0.927   1.909   0.000  0.00  0.00    +0.000 A 
ATOM      5  C   UNL     1      -1.348   0.543   0.000  0.00  0.00    +0.000 A 
ATOM      6  C   UNL     1       0.927   1.909   0.000  0.00  0.00    +0.000 A 
ATOM      7  C   UNL     1       1.348   0.543   0.000  0.00  0.00    +0.000 A 
ATOM      8  C   UNL     1      -0.412   2.554   0.000  0.00  0.00    +0.000 C 
ATOM      9  C   UNL     1      -1.715   2.152   0.000  0.00  0.00    +0.000 A 
ATOM     10  C   UNL     1      -2.136   0.786   0.000  0.00  0.00    +0.000 A 
ATOM     11  O   UNL     1       0.412   2.554   0.000  0.00  0.00    +0.000 OA
ATOM     12  C   UNL     1       1.715   2.152   0.000  0.00  0.00    +0.000 A 
ATOM     13  C   UNL     1       2.136   0.786   0.000  0.00  0.00    +0.000 A 
ATOM     14  C   UNL     1      -2.320   1.591   0.000  0.00  0.00    +0.000 A 
ATOM     15  C   UNL     1       2.320   1.591   0.000  0.00  0.00    +0.000 A 
ATOM     16  C   UNL     1       0.000  -0.079   0.000  0.00  0.00    +0.000 C 
ENDROOT
BRANCH  16  17
ATOM     17  C   UNL     1       0.715  -0.491   0.000  0.00  0.00    +0.000 C 
BRANCH  17  18
ATOM     18  C   UNL     1       0.715  -1.316   0.000  0.00  0.00    +0.000 C 
BRANCH  18  19
ATOM     19  N   UNL     1       1.429  -1.729   0.000  0.00  0.00    +0.000 NA
ATOM     20  C   UNL     1       2.143  -1.316   0.000  0.00  0.00    +0.000 C 
ATOM     21  C   UNL     1       1.429  -2.554   0.000  0.00  0.00    +0.000 C 
ENDBRANCH  18  19
ENDBRANCH  17  18
ENDBRANCH  16  17
TORSDOF 3
