REMARK  Name = 
REMARK  5 active torsions:
REMARK  status: ('A' for Active; 'I' for Inactive)
REMARK    1  A    between atoms: O_2  and  C_3
REMARK    2  A    between atoms: C_4  and  S_21
REMARK    3  A    between atoms: C_6  and  O_7
REMARK    4  A    between atoms: O_7  and  C_8
REMARK    5  A    between atoms: C_16  and  C_18
REMARK                            x       y       z     vdW  Elec       q    Type
REMARK                         _______ _______ _______ _____ _____    ______ ____
ROOT
ATOM      1  C   UNL     1       2.143  -1.238   0.000  0.00  0.00    +0.000 A 
ATOM      2  C   UNL     1       1.429  -1.650   0.000  0.00  0.00    +0.000 A 
ATOM      3  C   UNL     1       1.429  -2.475   0.000  0.00  0.00    +0.000 A 
ATOM      4  C   UNL     1       2.143  -2.888   0.000  0.00  0.00    +0.000 A 
ATOM      5  C   UNL     1       2.858  -2.475   0.000  0.00  0.00    +0.000 A 
ATOM      6  C   UNL     1       2.858  -1.650   0.000  0.00  0.00    +0.000 A 
ENDROOT
BRANCH   2   7
ATOM      7  S   UNL     1       0.715  -1.238   0.000  0.00  0.00    +0.000 S 
ATOM      8  N   UNL     1       0.000  -0.825   0.000  0.00  0.00    +0.000 NA
ATOM      9  O   UNL     1       1.127  -0.523   0.000  0.00  0.00    +0.000 OA
ATOM     10  O   UNL     1       0.302  -1.952   0.000  0.00  0.00    +0.000 OA
ENDBRANCH   2   7
BRANCH   5  11
ATOM     11  C   UNL     1       3.572  -2.888   0.000  0.00  0.00    +0.000 C 
ATOM     12  C   UNL     1       3.572  -3.712   0.000  0.00  0.00    +0.000 C 
ATOM     13  C   UNL     1       4.287  -2.475   0.000  0.00  0.00    +0.000 C 
ENDBRANCH   5  11
BRANCH   1  15
ATOM     14  C   UNL     1       2.858   0.000   0.000  0.00  0.00    +0.000 C 
ATOM     15  O   UNL     1       2.143  -0.412   0.000  0.00  0.00    +0.000 OA
ENDBRANCH   1  15
BRANCH   4  16
ATOM     16  O   UNL     1       2.143  -3.712   0.000  0.00  0.00    +0.000 OA
BRANCH  16  17
ATOM     17  C   UNL     1       1.429  -4.125   0.000  0.00  0.00    +0.000 A 
ATOM     18  C   UNL     1       1.429  -4.950   0.000  0.00  0.00    +0.000 A 
ATOM     19  N   UNL     1       0.715  -5.362   0.000  0.00  0.00    +0.000 NA
ATOM     20  C   UNL     1       0.000  -4.950   0.000  0.00  0.00    +0.000 A 
ATOM     21  N   UNL     1      -0.715  -5.362   0.000  0.00  0.00    +0.000 NA
ATOM     22  N   UNL     1       0.000  -4.125   0.000  0.00  0.00    +0.000 NA
ATOM     23  C   UNL     1       0.715  -3.712   0.000  0.00  0.00    +0.000 A 
ATOM     24  N   UNL     1       0.715  -2.888   0.000  0.00  0.00    +0.000 NA
ENDBRANCH  16  17
ENDBRANCH   4  16
TORSDOF 5
