REMARK  Name = 
REMARK  4 active torsions:
REMARK  status: ('A' for Active; 'I' for Inactive)
REMARK    1  A    between atoms: C_1  and  C_3
REMARK    2  A    between atoms: C_3  and  C_6
REMARK    3  A    between atoms: C_6  and  N_11
REMARK    4  A    between atoms: N_11  and  C_12
REMARK                            x       y       z     vdW  Elec       q    Type
REMARK                         _______ _______ _______ _____ _____    ______ ____
ROOT
ATOM      1  C   UNL     1      -0.714   0.000   0.000  0.00  0.00    +0.000 A 
ATOM      2  C   UNL     1      -1.429   0.412   0.000  0.00  0.00    +0.000 A 
ATOM      3  C   UNL     1      -0.714  -0.825   0.000  0.00  0.00    +0.000 A 
ATOM      4  C   UNL     1      -2.143  -0.000   0.000  0.00  0.00    +0.000 A 
ATOM      5  C   UNL     1      -1.429  -1.237   0.000  0.00  0.00    +0.000 A 
ATOM      6  C   UNL     1      -2.143  -0.825   0.000  0.00  0.00    +0.000 A 
ATOM      7  O   UNL     1      -2.858   0.412   0.000  0.00  0.00    +0.000 OA
ENDROOT
BRANCH   1   8
ATOM      8  C   UNL     1       0.000   0.412   0.000  0.00  0.00    +0.000 C 
ATOM      9  O   UNL     1      -0.000   1.238   0.000  0.00  0.00    +0.000 OA
BRANCH   8  10
ATOM     10  C   UNL     1       0.715   0.000   0.000  0.00  0.00    +0.000 C 
BRANCH  10  11
ATOM     11  N   UNL     1       1.429   0.413   0.000  0.00  0.00    +0.000 NA
BRANCH  11  12
ATOM     12  C   UNL     1       2.143   0.000   0.000  0.00  0.00    +0.000 C 
ATOM     13  C   UNL     1       2.858   0.413   0.000  0.00  0.00    +0.000 C 
ENDBRANCH  11  12
ENDBRANCH  10  11
ENDBRANCH   8  10
ENDBRANCH   1   8
TORSDOF 4
