REMARK  Name = 
REMARK  3 active torsions:
REMARK  status: ('A' for Active; 'I' for Inactive)
REMARK    1  A    between atoms: N_3  and  C_4
REMARK    2  A    between atoms: C_4  and  C_5
REMARK    3  A    between atoms: C_5  and  N_6
REMARK                            x       y       z     vdW  Elec       q    Type
REMARK                         _______ _______ _______ _____ _____    ______ ____
ROOT
ATOM      1  C   UNL     1      -2.568  -4.057   0.000  0.00  0.00    +0.000 C 
ENDROOT
BRANCH   1   4
ATOM      2  O   UNL     1      -1.513  -2.605   0.000  0.00  0.00    +0.000 OA
ATOM      3  C   UNL     1      -1.258  -3.389   0.000  0.00  0.00    +0.000 A 
ATOM      4  N   UNL     1      -1.743  -4.057   0.000  0.00  0.00    +0.000 N 
ATOM      5 SE   UNL     1      -1.258  -4.724   0.000  0.00  0.00    +0.000 Se
ATOM      6  C   UNL     1      -0.473  -4.469   0.000  0.00  0.00    +0.000 A 
ATOM      7  C   UNL     1      -0.473  -3.644   0.000  0.00  0.00    +0.000 A 
ATOM      8  C   UNL     1       0.241  -3.232   0.000  0.00  0.00    +0.000 A 
ATOM      9  C   UNL     1       0.956  -3.644   0.000  0.00  0.00    +0.000 A 
ATOM     10  C   UNL     1       0.956  -4.469   0.000  0.00  0.00    +0.000 A 
ATOM     11  C   UNL     1       0.241  -4.882   0.000  0.00  0.00    +0.000 A 
ENDBRANCH   1   4
BRANCH   1  12
ATOM     12  C   UNL     1      -2.980  -4.771   0.000  0.00  0.00    +0.000 C 
BRANCH  12  13
ATOM     13  N   UNL     1      -3.805  -4.771   0.000  0.00  0.00    +0.000 N 
ATOM     14 SE   UNL     1      -4.290  -4.104   0.000  0.00  0.00    +0.000 Se
ATOM     15  C   UNL     1      -5.075  -4.359   0.000  0.00  0.00    +0.000 A 
ATOM     16  C   UNL     1      -5.075  -5.184   0.000  0.00  0.00    +0.000 A 
ATOM     17  C   UNL     1      -5.789  -5.596   0.000  0.00  0.00    +0.000 A 
ATOM     18  C   UNL     1      -6.504  -5.184   0.000  0.00  0.00    +0.000 A 
ATOM     19  C   UNL     1      -6.504  -4.359   0.000  0.00  0.00    +0.000 A 
ATOM     20  C   UNL     1      -5.789  -3.946   0.000  0.00  0.00    +0.000 A 
ATOM     21  C   UNL     1      -4.290  -5.439   0.000  0.00  0.00    +0.000 A 
ATOM     22  O   UNL     1      -4.035  -6.223   0.000  0.00  0.00    +0.000 OA
ENDBRANCH  12  13
ENDBRANCH   1  12
TORSDOF 3
