REMARK  Name = 
REMARK  2 active torsions:
REMARK  status: ('A' for Active; 'I' for Inactive)
REMARK    1  A    between atoms: N_2  and  C_3
REMARK    2  A    between atoms: C_5  and  C_12
REMARK                            x       y       z     vdW  Elec       q    Type
REMARK                         _______ _______ _______ _____ _____    ______ ____
ROOT
ATOM      1  C   UNL     1       1.139  -1.365   0.000  0.00  0.00    +0.000 C 
ATOM      2  C   UNL     1       0.654  -0.698   0.000  0.00  0.00    +0.000 C 
ATOM      3  C   UNL     1       1.139  -0.030   0.000  0.00  0.00    +0.000 C 
ATOM      4  C   UNL     1       1.923  -0.285   0.000  0.00  0.00    +0.000 A 
ATOM      5  C   UNL     1       2.638   0.127   0.000  0.00  0.00    +0.000 A 
ATOM      6  C   UNL     1       3.352  -0.285   0.000  0.00  0.00    +0.000 A 
ATOM      7  C   UNL     1       3.352  -1.110   0.000  0.00  0.00    +0.000 A 
ATOM      8  C   UNL     1       2.638  -1.523   0.000  0.00  0.00    +0.000 A 
ATOM      9  C   UNL     1       1.923  -1.110   0.000  0.00  0.00    +0.000 A 
ENDROOT
BRANCH   3  10
ATOM     10  C   UNL     1       0.884   0.754   0.000  0.00  0.00    +0.000 A 
ATOM     11  C   UNL     1       0.077   0.926   0.000  0.00  0.00    +0.000 A 
ATOM     12  C   UNL     1      -0.178   1.710   0.000  0.00  0.00    +0.000 A 
ATOM     13  C   UNL     1       0.374   2.323   0.000  0.00  0.00    +0.000 A 
ATOM     14 CL   UNL     1       0.119   3.108   0.000  0.00  0.00    +0.000 Cl
ATOM     15  C   UNL     1       1.181   2.152   0.000  0.00  0.00    +0.000 A 
ATOM     16 CL   UNL     1       1.733   2.765   0.000  0.00  0.00    +0.000 Cl
ATOM     17  C   UNL     1       1.436   1.367   0.000  0.00  0.00    +0.000 A 
ENDBRANCH   3  10
BRANCH   1  19
ATOM     18  C   UNL     1       1.436  -2.763   0.000  0.00  0.00    +0.000 C 
ATOM     19  N   UNL     1       0.884  -2.150   0.000  0.00  0.00    +0.000 NA
ENDBRANCH   1  19
TORSDOF 2
