REMARK  Name = 
REMARK  9 active torsions:
REMARK  status: ('A' for Active; 'I' for Inactive)
REMARK    1  A    between atoms: C_1  and  C_38
REMARK    2  A    between atoms: C_5  and  O_7
REMARK    3  A    between atoms: O_7  and  C_12
REMARK    4  A    between atoms: C_9  and  O_13
REMARK    5  A    between atoms: C_11  and  C_35
REMARK    6  A    between atoms: O_13  and  C_20
REMARK    7  A    between atoms: C_19  and  O_23
REMARK    8  A    between atoms: O_23  and  C_24
REMARK    9  A    between atoms: C_26  and  C_30
REMARK                            x       y       z     vdW  Elec       q    Type
REMARK                         _______ _______ _______ _____ _____    ______ ____
ROOT
ATOM      1  O   UNL     1       0.807   0.456   0.000  0.00  0.00    +0.000 OA
ENDROOT
BRANCH   1   8
ATOM      2  O   UNL     1       1.056  -1.159   0.000  0.00  0.00    +0.000 OA
ATOM      3  C   UNL     1       1.760  -0.745   0.000  0.00  0.00    +0.000 C 
ATOM      4  C   UNL     1       2.464  -1.159   0.000  0.00  0.00    +0.000 C 
ATOM      5  C   UNL     1       3.168  -0.745   0.000  0.00  0.00    +0.000 C 
ATOM      6  C   UNL     1       3.168   0.041   0.000  0.00  0.00    +0.000 C 
ATOM      7  C   UNL     1       2.464   0.456   0.000  0.00  0.00    +0.000 C 
ATOM      8  C   UNL     1       1.760   0.041   0.000  0.00  0.00    +0.000 C 
ATOM      9  N   UNL     1       2.464  -1.988   0.000  0.00  0.00    +0.000 NA
ATOM     10  N   UNL     1       3.872   0.456   0.000  0.00  0.00    +0.000 NA
BRANCH   7  11
ATOM     11  O   UNL     1       2.464   1.284   0.000  0.00  0.00    +0.000 OA
BRANCH  11  12
ATOM     12  C   UNL     1       3.168   1.698   0.000  0.00  0.00    +0.000 C 
ATOM     13  O   UNL     1       3.872   1.284   0.000  0.00  0.00    +0.000 OA
ATOM     14  C   UNL     1       4.534   1.698   0.000  0.00  0.00    +0.000 C 
ATOM     15  C   UNL     1       4.534   2.526   0.000  0.00  0.00    +0.000 C 
ATOM     16  C   UNL     1       3.872   2.940   0.000  0.00  0.00    +0.000 C 
ATOM     17  C   UNL     1       3.168   2.526   0.000  0.00  0.00    +0.000 C 
ATOM     18  N   UNL     1       2.422   2.940   0.000  0.00  0.00    +0.000 NA
ATOM     19  O   UNL     1       3.872   3.727   0.000  0.00  0.00    +0.000 OA
ATOM     20  O   UNL     1       5.280   2.982   0.000  0.00  0.00    +0.000 OA
BRANCH  14  21
ATOM     21  C   UNL     1       5.280   1.325   0.000  0.00  0.00    +0.000 C 
ATOM     22  N   UNL     1       5.280   0.497   0.000  0.00  0.00    +0.000 NA
ENDBRANCH  14  21
ENDBRANCH  11  12
ENDBRANCH   7  11
ENDBRANCH   1   8
BRANCH   1  24
ATOM     23  C   UNL     1      -0.393  -0.580   0.000  0.00  0.00    +0.000 C 
ATOM     24  C   UNL     1      -0.145   0.207   0.000  0.00  0.00    +0.000 C 
ATOM     25  O   UNL     1      -0.807   0.663   0.000  0.00  0.00    +0.000 OA
ATOM     26  C   UNL     1      -1.470   0.207   0.000  0.00  0.00    +0.000 C 
ATOM     27  C   UNL     1      -1.222  -0.580   0.000  0.00  0.00    +0.000 C 
ATOM     28  O   UNL     1       0.103  -1.242   0.000  0.00  0.00    +0.000 OA
BRANCH  26  29
ATOM     29  C   UNL     1      -2.257   0.456   0.000  0.00  0.00    +0.000 C 
ATOM     30  O   UNL     1      -2.878  -0.124   0.000  0.00  0.00    +0.000 OA
ENDBRANCH  26  29
BRANCH  27  31
ATOM     31  O   UNL     1      -1.718  -1.242   0.000  0.00  0.00    +0.000 OA
BRANCH  31  36
ATOM     32  C   UNL     1      -3.872  -1.656   0.000  0.00  0.00    +0.000 C 
ATOM     33  C   UNL     1      -3.872  -2.485   0.000  0.00  0.00    +0.000 C 
ATOM     34  C   UNL     1      -3.126  -2.899   0.000  0.00  0.00    +0.000 C 
ATOM     35  C   UNL     1      -2.422  -2.485   0.000  0.00  0.00    +0.000 C 
ATOM     36  C   UNL     1      -2.422  -1.656   0.000  0.00  0.00    +0.000 C 
ATOM     37  O   UNL     1      -3.126  -1.242   0.000  0.00  0.00    +0.000 OA
ATOM     38  O   UNL     1      -4.534  -2.899   0.000  0.00  0.00    +0.000 OA
ATOM     39  N   UNL     1      -1.718  -2.899   0.000  0.00  0.00    +0.000 NA
ATOM     40  O   UNL     1      -3.126  -3.727   0.000  0.00  0.00    +0.000 OA
BRANCH  32  41
ATOM     41  C   UNL     1      -4.534  -1.242   0.000  0.00  0.00    +0.000 C 
ATOM     42  N   UNL     1      -5.280  -1.656   0.000  0.00  0.00    +0.000 NA
ENDBRANCH  32  41
ENDBRANCH  31  36
ENDBRANCH  27  31
ENDBRANCH   1  24
TORSDOF 9
