REMARK  Name = 
REMARK  8 active torsions:
REMARK  status: ('A' for Active; 'I' for Inactive)
REMARK    1  A    between atoms: N_1  and  C_6
REMARK    2  A    between atoms: C_6  and  C_7
REMARK    3  A    between atoms: C_7  and  CA_9
REMARK    4  A    between atoms: C_7  and  S_10
REMARK    5  A    between atoms: CA_9  and  N_13
REMARK    6  A    between atoms: CA_9  and  C_18
REMARK    7  A    between atoms: N_13  and  C_14
REMARK    8  A    between atoms: C_15  and  C_16
REMARK                            x       y       z     vdW  Elec       q    Type
REMARK                         _______ _______ _______ _____ _____    ______ ____
ROOT
ATOM      1  C   UNL     1      -0.938   0.561   0.000  0.00  0.00    +0.000 C 
ATOM      2  C   UNL     1      -1.289   1.273   0.000  0.00  0.00    +0.000 C 
ENDROOT
BRANCH   1   3
ATOM      3  S   UNL     1      -0.564  -0.040   0.000  0.00  0.00    +0.000 S 
ATOM      4  O   UNL     1      -0.124  -0.819   0.000  0.00  0.00    +0.000 OA
ATOM      5  O   UNL     1       0.170   0.378   0.000  0.00  0.00    +0.000 OA
ENDBRANCH   1   3
BRANCH   1   6
ATOM      6  C   UNL     1      -0.223   0.973   0.000  0.00  0.00    +0.000 C 
BRANCH   6   7
ATOM      7  N   UNL     1      -0.223   1.798   0.000  0.00  0.00    +0.000 N 
ATOM      8  C   UNL     1       0.444   2.283   0.000  0.00  0.00    +0.000 A 
ATOM      9  C   UNL     1       0.189   3.068   0.000  0.00  0.00    +0.000 A 
ATOM     10  N   UNL     1      -0.636   3.068   0.000  0.00  0.00    +0.000 NA
ATOM     11  N   UNL     1      -0.891   2.283   0.000  0.00  0.00    +0.000 NA
ENDBRANCH   6   7
ENDBRANCH   1   6
BRANCH   1  12
ATOM     12  CA  UNL     1      -1.652   0.148   0.000  0.00  0.00    +0.000 C 
BRANCH  12  13
ATOM     13  C   UNL     1      -2.367   0.561   0.000  0.00  0.00    +0.000 C 
ATOM     14  OXT UNL     1      -3.081   0.148   0.000  0.00  0.00    +0.000 OA
ATOM     15  O   UNL     1      -2.367   1.386   0.000  0.00  0.00    +0.000 OA
ENDBRANCH  12  13
BRANCH  12  16
ATOM     16  N   UNL     1      -1.652  -0.677   0.000  0.00  0.00    +0.000 NA
BRANCH  16  17
ATOM     17  C   UNL     1      -2.367  -1.089   0.000  0.00  0.00    +0.000 C 
ATOM     18  C   UNL     1      -2.367  -1.914   0.000  0.00  0.00    +0.000 C 
BRANCH  18  19
ATOM     19  C   UNL     1      -3.081  -2.327   0.000  0.00  0.00    +0.000 C 
ATOM     20  O   UNL     1      -3.081  -3.152   0.000  0.00  0.00    +0.000 OA
ENDBRANCH  18  19
ENDBRANCH  16  17
ENDBRANCH  12  16
ENDBRANCH   1  12
TORSDOF 8
