REMARK  Name = 
REMARK  0 active torsions:
REMARK  status: ('A' for Active; 'I' for Inactive)
REMARK                            x       y       z     vdW  Elec       q    Type
REMARK                         _______ _______ _______ _____ _____    ______ ____
ROOT
ATOM      1  C   UNL     1       0.811  -1.071   0.000  0.00  0.00    +0.000 C 
ATOM      2  C   UNL     1       0.811  -0.246   0.000  0.00  0.00    +0.000 C 
ATOM      3  C   UNL     1       0.096   0.167   0.000  0.00  0.00    +0.000 C 
ATOM      4  C   UNL     1       0.096   0.992   0.000  0.00  0.00    +0.000 C 
ATOM      5  C   UNL     1       0.811   1.404   0.000  0.00  0.00    +0.000 C 
ATOM      6  C   UNL     1       1.525   0.992   0.000  0.00  0.00    +0.000 C 
ATOM      7  C   UNL     1       1.525   0.167   0.000  0.00  0.00    +0.000 C 
ATOM      8  O   UNL     1       2.240  -0.246   0.000  0.00  0.00    +0.000 OA
ATOM      9  C   UNL     1       0.948   0.854   0.000  0.00  0.00    +0.000 C 
ATOM     10  O   UNL     1       0.948   0.304   0.000  0.00  0.00    +0.000 OA
ATOM     11  C   UNL     1       0.193   0.523   0.000  0.00  0.00    +0.000 C 
ATOM     12  C   UNL     1       0.358   0.277   0.000  0.00  0.00    +0.000 C 
ATOM     13  O   UNL     1      -0.618  -0.246   0.000  0.00  0.00    +0.000 OA
ENDROOT
TORSDOF 0
