REMARK  Name = 
REMARK  17 active torsions:
REMARK  status: ('A' for Active; 'I' for Inactive)
REMARK    1  A    between atoms: C_12  and  O_13
REMARK    2  A    between atoms: O_13  and  C_14
REMARK    3  A    between atoms: C_14  and  C_16
REMARK    4  A    between atoms: C_16  and  C_17
REMARK    5  A    between atoms: C_17  and  C_18
REMARK    6  A    between atoms: C_18  and  C_19
REMARK    7  A    between atoms: C_19  and  C_20
REMARK    8  A    between atoms: C_20  and  C_21
REMARK    9  A    between atoms: C_21  and  C_22
REMARK   10  A    between atoms: C_22  and  C_23
REMARK   11  A    between atoms: C_23  and  C_24
REMARK   12  A    between atoms: C_24  and  O_26
REMARK   13  A    between atoms: O_26  and  C_27
REMARK   14  A    between atoms: N_46  and  C_47
REMARK   15  A    between atoms: C_47  and  C_48
REMARK   16  A    between atoms: N_57  and  C_58
REMARK   17  A    between atoms: C_58  and  C_59
REMARK                            x       y       z     vdW  Elec       q    Type
REMARK                         _______ _______ _______ _____ _____    ______ ____
ROOT
ATOM      1  C   UNL     1      20.080   3.211   0.000  0.00  0.00    +0.000 C 
ENDROOT
BRANCH   1   2
ATOM      2  C   UNL     1      20.397   3.972   0.000  0.00  0.00    +0.000 C 
BRANCH   2   3
ATOM      3  C   UNL     1      21.216   4.078   0.000  0.00  0.00    +0.000 C 
BRANCH   3   4
ATOM      4  C   UNL     1      21.533   4.839   0.000  0.00  0.00    +0.000 C 
BRANCH   4   5
ATOM      5  C   UNL     1      22.351   4.945   0.000  0.00  0.00    +0.000 C 
BRANCH   5   6
ATOM      6  C   UNL     1      22.669   5.707   0.000  0.00  0.00    +0.000 C 
ATOM      7  O   UNL     1      22.168   6.362   0.000  0.00  0.00    +0.000 OA
BRANCH   6   8
ATOM      8  O   UNL     1      23.487   5.812   0.000  0.00  0.00    +0.000 OA
BRANCH   8   9
ATOM      9  C   UNL     1      23.805   6.574   0.000  0.00  0.00    +0.000 A 
ATOM     10  C   UNL     1      23.274   7.243   0.000  0.00  0.00    +0.000 A 
ATOM     11  O   UNL     1      22.458   7.436   0.000  0.00  0.00    +0.000 OA
ATOM     12  C   UNL     1      22.347   8.262   0.000  0.00  0.00    +0.000 C 
ATOM     13  C   UNL     1      21.652   8.736   0.000  0.00  0.00    +0.000 C 
ATOM     14  O   UNL     1      20.915   8.365   0.000  0.00  0.00    +0.000 OA
ATOM     15  C   UNL     1      21.685   9.556   0.000  0.00  0.00    +0.000 C 
ATOM     16  C   UNL     1      22.431   9.855   0.000  0.00  0.00    +0.000 C 
ATOM     17  C   UNL     1      23.221   9.267   0.000  0.00  0.00    +0.000 C 
ATOM     18  O   UNL     1      23.427  10.066   0.000  0.00  0.00    +0.000 OA
ATOM     19  C   UNL     1      24.195   9.401   0.000  0.00  0.00    +0.000 C 
ATOM     20  C   UNL     1      24.763   8.812   0.000  0.00  0.00    +0.000 C 
ATOM     21  C   UNL     1      24.442   8.073   0.000  0.00  0.00    +0.000 A 
ATOM     22  C   UNL     1      24.961   7.426   0.000  0.00  0.00    +0.000 A 
ATOM     23  C   UNL     1      24.637   6.666   0.000  0.00  0.00    +0.000 A 
ATOM     24  C   UNL     1      23.615   7.989   0.000  0.00  0.00    +0.000 A 
ATOM     25  C   UNL     1      23.089   8.695   0.000  0.00  0.00    +0.000 C 
ATOM     26  C   UNL     1      22.919   9.717   0.000  0.00  0.00    +0.000 C 
ATOM     27  C   UNL     1      23.449  10.443   0.000  0.00  0.00    +0.000 C 
ATOM     28  N   UNL     1      24.229  10.201   0.000  0.00  0.00    +0.000 NA
BRANCH  28  29
ATOM     29  C   UNL     1      24.904  10.676   0.000  0.00  0.00    +0.000 C 
BRANCH  29  30
ATOM     30  C   UNL     1      24.830  11.498   0.000  0.00  0.00    +0.000 C 
ATOM     31  C   UNL     1      24.197  12.026   0.000  0.00  0.00    +0.000 C 
ATOM     32  C   UNL     1      24.725  12.659   0.000  0.00  0.00    +0.000 C 
ATOM     33  C   UNL     1      25.359  12.131   0.000  0.00  0.00    +0.000 C 
ENDBRANCH  29  30
ENDBRANCH  28  29
ENDBRANCH   8   9
ENDBRANCH   6   8
ENDBRANCH   5   6
ENDBRANCH   4   5
ENDBRANCH   3   4
ENDBRANCH   2   3
ENDBRANCH   1   2
BRANCH   1  34
ATOM     34  C   UNL     1      19.262   3.105   0.000  0.00  0.00    +0.000 C 
BRANCH  34  35
ATOM     35  C   UNL     1      18.944   2.344   0.000  0.00  0.00    +0.000 C 
BRANCH  35  36
ATOM     36  C   UNL     1      18.126   2.238   0.000  0.00  0.00    +0.000 C 
BRANCH  36  37
ATOM     37  C   UNL     1      17.808   1.476   0.000  0.00  0.00    +0.000 C 
ATOM     38  O   UNL     1      18.309   0.821   0.000  0.00  0.00    +0.000 OA
BRANCH  37  39
ATOM     39  O   UNL     1      16.990   1.371   0.000  0.00  0.00    +0.000 OA
BRANCH  39  51
ATOM     40  O   UNL     1      13.366   1.401   0.000  0.00  0.00    +0.000 OA
ATOM     41  C   UNL     1      13.621   0.616   0.000  0.00  0.00    +0.000 C 
ATOM     42  C   UNL     1      13.062   0.016   0.000  0.00  0.00    +0.000 C 
ATOM     43  C   UNL     1      13.375  -0.725   0.000  0.00  0.00    +0.000 C 
ATOM     44  C   UNL     1      14.349  -0.872   0.000  0.00  0.00    +0.000 C 
ATOM     45  O   UNL     1      13.926  -1.581   0.000  0.00  0.00    +0.000 OA
ATOM     46  C   UNL     1      14.939  -1.658   0.000  0.00  0.00    +0.000 C 
ATOM     47  C   UNL     1      15.758  -1.647   0.000  0.00  0.00    +0.000 C 
ATOM     48  C   UNL     1      16.056  -0.898   0.000  0.00  0.00    +0.000 A 
ATOM     49  C   UNL     1      16.881  -0.812   0.000  0.00  0.00    +0.000 A 
ATOM     50  C   UNL     1      17.193  -0.047   0.000  0.00  0.00    +0.000 A 
ATOM     51  C   UNL     1      16.673   0.609   0.000  0.00  0.00    +0.000 A 
ATOM     52  C   UNL     1      15.824   0.515   0.000  0.00  0.00    +0.000 A 
ATOM     53  C   UNL     1      15.534  -0.253   0.000  0.00  0.00    +0.000 A 
ATOM     54  C   UNL     1      14.662  -0.376   0.000  0.00  0.00    +0.000 C 
ATOM     55  C   UNL     1      13.816  -0.975   0.000  0.00  0.00    +0.000 C 
ATOM     56  C   UNL     1      13.674  -1.862   0.000  0.00  0.00    +0.000 C 
ATOM     57  N   UNL     1      14.396  -2.246   0.000  0.00  0.00    +0.000 NA
ATOM     58  C   UNL     1      14.447   0.456   0.000  0.00  0.00    +0.000 C 
ATOM     59  O   UNL     1      15.112   0.959   0.000  0.00  0.00    +0.000 OA
BRANCH  57  60
ATOM     60  C   UNL     1      14.533  -3.059   0.000  0.00  0.00    +0.000 C 
BRANCH  60  61
ATOM     61  C   UNL     1      13.898  -3.586   0.000  0.00  0.00    +0.000 C 
ATOM     62  C   UNL     1      13.820  -4.407   0.000  0.00  0.00    +0.000 C 
ATOM     63  C   UNL     1      12.999  -4.330   0.000  0.00  0.00    +0.000 C 
ATOM     64  C   UNL     1      13.076  -3.508   0.000  0.00  0.00    +0.000 C 
ENDBRANCH  60  61
ENDBRANCH  57  60
ENDBRANCH  39  51
ENDBRANCH  37  39
ENDBRANCH  36  37
ENDBRANCH  35  36
ENDBRANCH  34  35
ENDBRANCH   1  34
TORSDOF 17
