REMARK  Name = 
REMARK  5 active torsions:
REMARK  status: ('A' for Active; 'I' for Inactive)
REMARK    1  A    between atoms: C_7  and  C_8
REMARK    2  A    between atoms: C_17  and  C_20
REMARK    3  A    between atoms: N_24  and  C_25
REMARK    4  A    between atoms: C_25  and  C_26
REMARK    5  A    between atoms: C_25  and  C_32
REMARK                            x       y       z     vdW  Elec       q    Type
REMARK                         _______ _______ _______ _____ _____    ______ ____
ROOT
ATOM      1  C   UNL     1       3.960   0.241   0.000  0.00  0.00    +0.000 A 
ATOM      2  C   UNL     1       3.408  -0.372   0.000  0.00  0.00    +0.000 A 
ATOM      3  C   UNL     1       2.601  -0.201   0.000  0.00  0.00    +0.000 A 
ATOM      4  C   UNL     1       2.346   0.584   0.000  0.00  0.00    +0.000 A 
ATOM      5  N   UNL     1       2.898   1.197   0.000  0.00  0.00    +0.000 NA
ATOM      6  C   UNL     1       3.705   1.026   0.000  0.00  0.00    +0.000 A 
ATOM      7  C   UNL     1       1.521   0.584   0.000  0.00  0.00    +0.000 A 
ATOM      8  C   UNL     1       1.266  -0.201   0.000  0.00  0.00    +0.000 A 
ATOM      9  C   UNL     1       0.460  -0.372   0.000  0.00  0.00    +0.000 A 
ATOM     10  C   UNL     1      -0.092   0.241   0.000  0.00  0.00    +0.000 A 
ATOM     11  C   UNL     1       0.162   1.026   0.000  0.00  0.00    +0.000 A 
ATOM     12  C   UNL     1       0.969   1.197   0.000  0.00  0.00    +0.000 A 
ATOM     13  N   UNL     1       1.934  -0.685   0.000  0.00  0.00    +0.000 N 
ENDROOT
BRANCH   1  20
ATOM     14  C   UNL     1       5.294   1.442   0.000  0.00  0.00    +0.000 C 
ATOM     15  N   UNL     1       5.380   0.622   0.000  0.00  0.00    +0.000 N 
ATOM     16  N   UNL     1       6.095   0.209   0.000  0.00  0.00    +0.000 NA
ATOM     17  N   UNL     1       5.923  -0.598   0.000  0.00  0.00    +0.000 NA
ATOM     18  C   UNL     1       5.103  -0.684   0.000  0.00  0.00    +0.000 A 
ATOM     19  C   UNL     1       4.690  -1.399   0.000  0.00  0.00    +0.000 C 
ATOM     20  C   UNL     1       4.767   0.069   0.000  0.00  0.00    +0.000 A 
ENDBRANCH   1  20
BRANCH  10  21
ATOM     21  C   UNL     1      -0.899   0.069   0.000  0.00  0.00    +0.000 C 
ATOM     22  C   UNL     1      -1.706  -0.102   0.000  0.00  0.00    +0.000 C 
ATOM     23  C   UNL     1      -1.071   0.876   0.000  0.00  0.00    +0.000 C 
ATOM     24  O   UNL     1      -0.728  -0.738   0.000  0.00  0.00    +0.000 OA
ENDBRANCH  10  21
BRANCH  13  25
ATOM     25  C   UNL     1       1.934  -1.510   0.000  0.00  0.00    +0.000 C 
BRANCH  25  26
ATOM     26  C   UNL     1       2.648  -1.923   0.000  0.00  0.00    +0.000 C 
ATOM     27  C   UNL     1       3.363  -1.510   0.000  0.00  0.00    +0.000 C 
ATOM     28  C   UNL     1       4.077  -1.923   0.000  0.00  0.00    +0.000 C 
ATOM     29  O   UNL     1       4.077  -2.748   0.000  0.00  0.00    +0.000 OA
ATOM     30  C   UNL     1       3.363  -3.160   0.000  0.00  0.00    +0.000 C 
ATOM     31  C   UNL     1       2.648  -2.748   0.000  0.00  0.00    +0.000 C 
ENDBRANCH  25  26
BRANCH  25  32
ATOM     32  C   UNL     1       1.220  -1.923   0.000  0.00  0.00    +0.000 A 
ATOM     33  C   UNL     1       1.220  -2.748   0.000  0.00  0.00    +0.000 A 
ATOM     34  C   UNL     1       0.505  -3.160   0.000  0.00  0.00    +0.000 A 
ATOM     35  C   UNL     1      -0.209  -2.748   0.000  0.00  0.00    +0.000 A 
ATOM     36  C   UNL     1      -0.209  -1.923   0.000  0.00  0.00    +0.000 A 
ATOM     37  C   UNL     1       0.505  -1.510   0.000  0.00  0.00    +0.000 A 
ENDBRANCH  25  32
ENDBRANCH  13  25
TORSDOF 5
