REMARK  Name = 
REMARK  1 active torsions:
REMARK  status: ('A' for Active; 'I' for Inactive)
REMARK    1  A    between atoms: C_9  and  C_14
REMARK                            x       y       z     vdW  Elec       q    Type
REMARK                         _______ _______ _______ _____ _____    ______ ____
ROOT
ATOM      1  C   UNL     1      -2.502  -0.210   0.000  0.00  0.00    +0.000 A 
ATOM      2  C   UNL     1      -2.503  -1.037   0.000  0.00  0.00    +0.000 A 
ATOM      3  C   UNL     1      -1.791  -1.450   0.000  0.00  0.00    +0.000 A 
ATOM      4  C   UNL     1      -1.793   0.202   0.000  0.00  0.00    +0.000 A 
ATOM      5  C   UNL     1      -1.075  -0.206   0.000  0.00  0.00    +0.000 A 
ATOM      6  C   UNL     1      -1.072  -1.039   0.000  0.00  0.00    +0.000 A 
ATOM      7  C   UNL     1      -0.353  -1.450   0.000  0.00  0.00    +0.000 A 
ATOM      8  C   UNL     1       0.367  -1.033   0.000  0.00  0.00    +0.000 A 
ATOM      9  C   UNL     1       0.363  -0.200   0.000  0.00  0.00    +0.000 A 
ATOM     10  O   UNL     1      -0.360   0.215   0.000  0.00  0.00    +0.000 OA
ATOM     11  O   UNL     1      -3.216   0.201   0.000  0.00  0.00    +0.000 OA
ATOM     12  O   UNL     1      -1.794  -2.274   0.000  0.00  0.00    +0.000 OA
ATOM     13  O   UNL     1      -0.350  -2.274   0.000  0.00  0.00    +0.000 OA
ENDROOT
BRANCH   9  14
ATOM     14  C   UNL     1       1.074   0.213   0.000  0.00  0.00    +0.000 A 
ATOM     15  C   UNL     1       1.789  -0.198   0.000  0.00  0.00    +0.000 A 
ATOM     16  C   UNL     1       2.501   0.216   0.000  0.00  0.00    +0.000 A 
ATOM     17  C   UNL     1       2.498   1.041   0.000  0.00  0.00    +0.000 A 
ATOM     18  C   UNL     1       1.778   1.450   0.000  0.00  0.00    +0.000 A 
ATOM     19  C   UNL     1       1.070   1.034   0.000  0.00  0.00    +0.000 A 
ATOM     20  O   UNL     1       1.773   2.274   0.000  0.00  0.00    +0.000 OA
ATOM     21  O   UNL     1       3.210   1.456   0.000  0.00  0.00    +0.000 OA
ATOM     22  O   UNL     1       3.216  -0.194   0.000  0.00  0.00    +0.000 OA
ENDBRANCH   9  14
TORSDOF 1
