REMARK  Name = 
REMARK  6 active torsions:
REMARK  status: ('A' for Active; 'I' for Inactive)
REMARK    1  A    between atoms: C_23  and  O_24
REMARK    2  A    between atoms: O_24  and  C_26
REMARK    3  A    between atoms: C_30  and  C_32
REMARK    4  A    between atoms: C_30  and  C_34
REMARK    5  A    between atoms: C_34  and  C_35
REMARK    6  A    between atoms: C_35  and  C_36
REMARK                            x       y       z     vdW  Elec       q    Type
REMARK                         _______ _______ _______ _____ _____    ______ ____
ROOT
ATOM      1  C   UNL     1      -2.381  -1.159   0.000  0.00  0.00    +0.000 C 
ATOM      2  C   UNL     1      -3.095  -1.571   0.000  0.00  0.00    +0.000 C 
ATOM      3  C   UNL     1      -0.952  -2.809   0.000  0.00  0.00    +0.000 C 
ATOM      4  C   UNL     1      -0.237  -2.396   0.000  0.00  0.00    +0.000 C 
ATOM      5  C   UNL     1      -1.666  -1.571   0.000  0.00  0.00    +0.000 C 
ATOM      6  C   UNL     1      -0.237   0.079   0.000  0.00  0.00    +0.000 C 
ATOM      7  C   UNL     1       1.262  -1.414   0.000  0.00  0.00    +0.000 C 
ATOM      8  C   UNL     1      -1.666  -0.746   0.000  0.00  0.00    +0.000 C 
ATOM      9  C   UNL     1      -0.952  -1.159   0.000  0.00  0.00    +0.000 C 
ATOM     10  C   UNL     1      -0.237  -1.571   0.000  0.00  0.00    +0.000 C 
ATOM     11  C   UNL     1       0.477  -1.159   0.000  0.00  0.00    +0.000 C 
ATOM     12  C   UNL     1       0.477  -0.334   0.000  0.00  0.00    +0.000 C 
ATOM     13  C   UNL     1      -0.237  -0.746   0.000  0.00  0.00    +0.000 C 
ATOM     14  C   UNL     1       0.477  -1.984   0.000  0.00  0.00    +0.000 C 
ATOM     15  C   UNL     1      -1.666  -2.396   0.000  0.00  0.00    +0.000 C 
ATOM     16  C   UNL     1      -3.095  -2.396   0.000  0.00  0.00    +0.000 C 
ATOM     17  O   UNL     1      -3.809  -2.809   0.000  0.00  0.00    +0.000 OA
ATOM     18  C   UNL     1      -2.381  -2.809   0.000  0.00  0.00    +0.000 C 
ATOM     19  C   UNL     1      -2.381  -3.634   0.000  0.00  0.00    +0.000 C 
ATOM     20  C   UNL     1       1.747  -0.746   0.000  0.00  0.00    +0.000 C 
ATOM     21  C   UNL     1       1.262  -0.079   0.000  0.00  0.00    +0.000 C 
ATOM     22  C   UNL     1      -0.952  -0.334   0.000  0.00  0.00    +0.000 C 
ATOM     23  C   UNL     1       1.262   0.746   0.000  0.00  0.00    +0.000 C 
ATOM     24  O   UNL     1      -1.666   0.079   0.000  0.00  0.00    +0.000 OA
ENDROOT
BRANCH  23  26
ATOM     25  O   UNL     1       1.976   1.984   0.000  0.00  0.00    +0.000 OA
ATOM     26  C   UNL     1       1.976   1.159   0.000  0.00  0.00    +0.000 C 
ATOM     27  O   UNL     1       2.691   0.746   0.000  0.00  0.00    +0.000 OA
ENDBRANCH  23  26
BRANCH  20  28
ATOM     28  O   UNL     1       2.572  -0.746   0.000  0.00  0.00    +0.000 OA
BRANCH  28  30
ATOM     29  C   UNL     1       3.809  -1.461   0.000  0.00  0.00    +0.000 C 
ATOM     30  C   UNL     1       2.984  -1.461   0.000  0.00  0.00    +0.000 C 
ATOM     31  O   UNL     1       2.572  -2.175   0.000  0.00  0.00    +0.000 OA
ENDBRANCH  28  30
ENDBRANCH  20  28
BRANCH  23  32
ATOM     32  C   UNL     1       0.547   1.159   0.000  0.00  0.00    +0.000 C 
BRANCH  32  33
ATOM     33  C   UNL     1       0.547   1.984   0.000  0.00  0.00    +0.000 C 
BRANCH  33  34
ATOM     34  C   UNL     1       1.262   2.396   0.000  0.00  0.00    +0.000 C 
ATOM     35  C   UNL     1       0.547   3.634   0.000  0.00  0.00    +0.000 C 
ATOM     36  C   UNL     1       1.262   3.221   0.000  0.00  0.00    +0.000 C 
ATOM     37  C   UNL     1       1.976   3.634   0.000  0.00  0.00    +0.000 C 
ENDBRANCH  33  34
ENDBRANCH  32  33
ENDBRANCH  23  32
TORSDOF 6
