REMARK  Name = 
REMARK  7 active torsions:
REMARK  status: ('A' for Active; 'I' for Inactive)
REMARK    1  A    between atoms: C_3  and  N_20
REMARK    2  A    between atoms: C_4  and  C_16
REMARK    3  A    between atoms: N_6  and  C_7
REMARK    4  A    between atoms: C_7  and  C_8
REMARK    5  A    between atoms: C_11  and  C_14
REMARK    6  A    between atoms: C_21  and  C_23
REMARK    7  A    between atoms: C_25  and  C_34
REMARK                            x       y       z     vdW  Elec       q    Type
REMARK                         _______ _______ _______ _____ _____    ______ ____
ROOT
ATOM      1  C   UNL     1       0.784  -0.354   0.000  0.00  0.00    +0.000 C 
ATOM      2  C   UNL     1      -0.000  -0.099   0.000  0.00  0.00    +0.000 A 
ATOM      3  C   UNL     1      -0.668  -0.584   0.000  0.00  0.00    +0.000 A 
ATOM      4  C   UNL     1      -1.335  -0.099   0.000  0.00  0.00    +0.000 A 
ATOM      5  N   UNL     1      -1.080   0.686   0.000  0.00  0.00    +0.000 NA
ATOM      6  N   UNL     1      -0.255   0.686   0.000  0.00  0.00    +0.000 N 
ENDROOT
BRANCH   4   7
ATOM      7  C   UNL     1      -2.120  -0.354   0.000  0.00  0.00    +0.000 C 
ATOM      8  F   UNL     1      -2.905  -0.609   0.000  0.00  0.00    +0.000 F 
ATOM      9  F   UNL     1      -2.375   0.431   0.000  0.00  0.00    +0.000 F 
ATOM     10  F   UNL     1      -1.865  -1.139   0.000  0.00  0.00    +0.000 F 
ENDBRANCH   4   7
BRANCH   3  11
ATOM     11  N   UNL     1      -0.668  -1.409   0.000  0.00  0.00    +0.000 NA
ATOM     12  C   UNL     1       0.047  -1.821   0.000  0.00  0.00    +0.000 C 
ATOM     13  O   UNL     1       0.761  -1.409   0.000  0.00  0.00    +0.000 OA
BRANCH  12  14
ATOM     14  C   UNL     1       0.047  -2.646   0.000  0.00  0.00    +0.000 A 
ATOM     15  C   UNL     1      -0.668  -3.059   0.000  0.00  0.00    +0.000 A 
ATOM     16  C   UNL     1      -0.668  -3.884   0.000  0.00  0.00    +0.000 A 
ATOM     17  N   UNL     1       0.047  -4.296   0.000  0.00  0.00    +0.000 NA
ATOM     18  C   UNL     1       0.761  -3.884   0.000  0.00  0.00    +0.000 A 
ATOM     19  C   UNL     1       0.761  -3.059   0.000  0.00  0.00    +0.000 A 
ATOM     20  C   UNL     1       1.476  -2.646   0.000  0.00  0.00    +0.000 A 
ATOM     21  C   UNL     1       2.190  -3.059   0.000  0.00  0.00    +0.000 A 
ATOM     22  C   UNL     1       2.190  -3.884   0.000  0.00  0.00    +0.000 A 
ATOM     23  C   UNL     1       1.476  -4.296   0.000  0.00  0.00    +0.000 A 
ATOM     24  F   UNL     1       2.905  -4.296   0.000  0.00  0.00    +0.000 F 
BRANCH  16  25
ATOM     25  C   UNL     1      -1.382  -4.296   0.000  0.00  0.00    +0.000 C 
ATOM     26  O   UNL     1      -1.382  -5.121   0.000  0.00  0.00    +0.000 OA
ATOM     27  N   UNL     1      -2.097  -3.884   0.000  0.00  0.00    +0.000 NA
ENDBRANCH  16  25
ENDBRANCH  12  14
ENDBRANCH   3  11
BRANCH   6  28
ATOM     28  C   UNL     1       0.230   1.353   0.000  0.00  0.00    +0.000 C 
BRANCH  28  29
ATOM     29  C   UNL     1      -0.106   2.107   0.000  0.00  0.00    +0.000 A 
ATOM     30  C   UNL     1      -0.926   2.193   0.000  0.00  0.00    +0.000 A 
ATOM     31  C   UNL     1      -1.262   2.947   0.000  0.00  0.00    +0.000 A 
ATOM     32  C   UNL     1      -0.777   3.614   0.000  0.00  0.00    +0.000 A 
ATOM     33  C   UNL     1       0.043   3.528   0.000  0.00  0.00    +0.000 A 
ATOM     34  C   UNL     1       0.379   2.774   0.000  0.00  0.00    +0.000 A 
BRANCH  32  35
ATOM     35  C   UNL     1      -1.113   4.368   0.000  0.00  0.00    +0.000 C 
ATOM     36  N   UNL     1      -1.448   5.121   0.000  0.00  0.00    +0.000 NA
ENDBRANCH  32  35
ENDBRANCH  28  29
ENDBRANCH   6  28
TORSDOF 7
