REMARK  Name = 
REMARK  9 active torsions:
REMARK  status: ('A' for Active; 'I' for Inactive)
REMARK    1  A    between atoms: O_2  and  C_3
REMARK    2  A    between atoms: C_8  and  C_9
REMARK    3  A    between atoms: C_9  and  C_10
REMARK    4  A    between atoms: C_9  and  O_34
REMARK    5  A    between atoms: C_10  and  N_11
REMARK    6  A    between atoms: C_16  and  C_18
REMARK    7  A    between atoms: N_25  and  C_28
REMARK    8  A    between atoms: C_28  and  C_31
REMARK    9  A    between atoms: O_34  and  C_35
REMARK                            x       y       z     vdW  Elec       q    Type
REMARK                         _______ _______ _______ _____ _____    ______ ____
ROOT
ATOM      1  N   UNL     1       0.715  -0.412   0.000  0.00  0.00    +0.000 N 
ATOM      2  C   UNL     1       0.000   0.000   0.000  0.00  0.00    +0.000 A 
ATOM      3  C   UNL     1       0.000   0.825   0.000  0.00  0.00    +0.000 A 
ATOM      4  C   UNL     1      -0.785   1.080   0.000  0.00  0.00    +0.000 A 
ATOM      5  C   UNL     1      -1.040   1.865   0.000  0.00  0.00    +0.000 C 
ATOM      6  C   UNL     1      -1.270   0.412   0.000  0.00  0.00    +0.000 A 
ATOM      7  S   UNL     1      -0.785  -0.255   0.000  0.00  0.00    +0.000 S 
ATOM      8  C   UNL     1       0.715   1.238   0.000  0.00  0.00    +0.000 A 
ATOM      9  O   UNL     1       0.715   2.062   0.000  0.00  0.00    +0.000 OA
ATOM     10  N   UNL     1       1.429   0.825   0.000  0.00  0.00    +0.000 N 
ATOM     11  C   UNL     1       1.429   0.000   0.000  0.00  0.00    +0.000 A 
ATOM     12  O   UNL     1       2.143  -0.412   0.000  0.00  0.00    +0.000 OA
ENDROOT
BRANCH   6  13
ATOM     13  C   UNL     1      -2.095   0.412   0.000  0.00  0.00    +0.000 A 
ATOM     14  N   UNL     1      -2.579  -0.255   0.000  0.00  0.00    +0.000 NA
ATOM     15  C   UNL     1      -3.364   0.000   0.000  0.00  0.00    +0.000 A 
ATOM     16  C   UNL     1      -3.364   0.825   0.000  0.00  0.00    +0.000 A 
ATOM     17  O   UNL     1      -2.579   1.080   0.000  0.00  0.00    +0.000 OA
ENDBRANCH   6  13
BRANCH  10  18
ATOM     18  C   UNL     1       2.143   1.238   0.000  0.00  0.00    +0.000 C 
ATOM     19  C   UNL     1       1.731   1.952   0.000  0.00  0.00    +0.000 C 
ATOM     20  C   UNL     1       2.556   0.523   0.000  0.00  0.00    +0.000 C 
BRANCH  18  21
ATOM     21  C   UNL     1       2.858   1.650   0.000  0.00  0.00    +0.000 C 
ATOM     22  O   UNL     1       2.858   2.475   0.000  0.00  0.00    +0.000 OA
ATOM     23  O   UNL     1       3.572   1.238   0.000  0.00  0.00    +0.000 OA
ENDBRANCH  18  21
ENDBRANCH  10  18
BRANCH   1  24
ATOM     24  C   UNL     1       0.715  -1.238   0.000  0.00  0.00    +0.000 C 
BRANCH  24  25
ATOM     25  C   UNL     1       0.000  -1.650   0.000  0.00  0.00    +0.000 C 
BRANCH  25  31
ATOM     26  C   UNL     1       0.715  -2.888   0.000  0.00  0.00    +0.000 A 
ATOM     27  C   UNL     1       0.715  -3.712   0.000  0.00  0.00    +0.000 A 
ATOM     28  C   UNL     1       0.000  -4.125   0.000  0.00  0.00    +0.000 A 
ATOM     29  C   UNL     1      -0.715  -3.712   0.000  0.00  0.00    +0.000 A 
ATOM     30  C   UNL     1      -0.715  -2.888   0.000  0.00  0.00    +0.000 A 
ATOM     31  C   UNL     1       0.000  -2.475   0.000  0.00  0.00    +0.000 A 
BRANCH  26  33
ATOM     32  C   UNL     1       1.429  -1.650   0.000  0.00  0.00    +0.000 C 
ATOM     33  O   UNL     1       1.429  -2.475   0.000  0.00  0.00    +0.000 OA
ENDBRANCH  26  33
ENDBRANCH  25  31
BRANCH  25  34
ATOM     34  O   UNL     1      -0.715  -1.238   0.000  0.00  0.00    +0.000 OA
BRANCH  34  35
ATOM     35  C   UNL     1      -1.429  -1.650   0.000  0.00  0.00    +0.000 C 
ATOM     36  C   UNL     1      -1.429  -2.475   0.000  0.00  0.00    +0.000 C 
ATOM     37  C   UNL     1      -2.143  -2.888   0.000  0.00  0.00    +0.000 C 
ATOM     38  O   UNL     1      -2.858  -2.475   0.000  0.00  0.00    +0.000 OA
ATOM     39  C   UNL     1      -2.858  -1.650   0.000  0.00  0.00    +0.000 C 
ATOM     40  C   UNL     1      -2.143  -1.238   0.000  0.00  0.00    +0.000 C 
ENDBRANCH  34  35
ENDBRANCH  25  34
ENDBRANCH  24  25
ENDBRANCH   1  24
TORSDOF 9
