REMARK  Name = 
REMARK  10 active torsions:
REMARK  status: ('A' for Active; 'I' for Inactive)
REMARK    1  A    between atoms: C_3  and  C_5
REMARK    2  A    between atoms: C_5  and  C_6
REMARK    3  A    between atoms: C_6  and  C_7
REMARK    4  A    between atoms: C_10  and  C_11
REMARK    5  A    between atoms: C_11  and  N_12
REMARK    6  A    between atoms: N_12  and  C_13
REMARK    7  A    between atoms: C_13  and  C_14
REMARK    8  A    between atoms: C_13  and  C_20
REMARK    9  A    between atoms: C_20  and  O_22
REMARK   10  A    between atoms: O_22  and  C_23
REMARK                            x       y       z     vdW  Elec       q    Type
REMARK                         _______ _______ _______ _____ _____    ______ ____
ROOT
ATOM      1  C   UNL     1       0.715  -1.238   0.000  0.00  0.00    +0.000 C 
ENDROOT
BRANCH   1   2
ATOM      2  C   UNL     1       0.715  -0.412   0.000  0.00  0.00    +0.000 C 
ATOM      3  C   UNL     1       0.000   0.000   0.000  0.00  0.00    +0.000 C 
ATOM      4  C   UNL     1       0.000   0.825   0.000  0.00  0.00    +0.000 C 
ATOM      5  C   UNL     1       0.715   1.238   0.000  0.00  0.00    +0.000 C 
ATOM      6  C   UNL     1       1.429   0.825   0.000  0.00  0.00    +0.000 C 
ATOM      7  C   UNL     1       1.429   0.000   0.000  0.00  0.00    +0.000 C 
ENDBRANCH   1   2
BRANCH   1   8
ATOM      8  C   UNL     1       1.429  -1.650   0.000  0.00  0.00    +0.000 C 
ATOM      9  O   UNL     1       1.429  -2.475   0.000  0.00  0.00    +0.000 OA
BRANCH   8  10
ATOM     10  O   UNL     1       2.143  -1.238   0.000  0.00  0.00    +0.000 OA
BRANCH  10  11
ATOM     11  C   UNL     1       2.858  -1.650   0.000  0.00  0.00    +0.000 C 
ATOM     12  C   UNL     1       3.612  -1.314   0.000  0.00  0.00    +0.000 C 
ATOM     13  C   UNL     1       4.164  -1.927   0.000  0.00  0.00    +0.000 C 
ATOM     14  C   UNL     1       3.751  -2.642   0.000  0.00  0.00    +0.000 C 
ATOM     15  C   UNL     1       2.944  -2.470   0.000  0.00  0.00    +0.000 C 
ENDBRANCH  10  11
ENDBRANCH   8  10
ENDBRANCH   1   8
BRANCH   1  16
ATOM     16  N   UNL     1       0.000  -1.650   0.000  0.00  0.00    +0.000 NA
BRANCH  16  17
ATOM     17  C   UNL     1      -0.715  -1.238   0.000  0.00  0.00    +0.000 C 
BRANCH  17  21
ATOM     18  C   UNL     1      -2.858  -2.475   0.000  0.00  0.00    +0.000 A 
ATOM     19  N   UNL     1      -2.858  -1.650   0.000  0.00  0.00    +0.000 NA
ATOM     20  C   UNL     1      -2.143  -1.238   0.000  0.00  0.00    +0.000 A 
ATOM     21  C   UNL     1      -1.429  -1.650   0.000  0.00  0.00    +0.000 A 
ATOM     22  C   UNL     1      -1.429  -2.475   0.000  0.00  0.00    +0.000 A 
ATOM     23  C   UNL     1      -2.143  -2.888   0.000  0.00  0.00    +0.000 A 
BRANCH  18  24
ATOM     24  C   UNL     1      -3.572  -2.888   0.000  0.00  0.00    +0.000 C 
BRANCH  24  25
ATOM     25  C   UNL     1      -3.572  -3.712   0.000  0.00  0.00    +0.000 C 
BRANCH  25  28
ATOM     26  O   UNL     1      -5.001  -5.362   0.000  0.00  0.00    +0.000 OA
ATOM     27  N   UNL     1      -4.287  -4.950   0.000  0.00  0.00    +0.000 NA
ATOM     28  C   UNL     1      -4.287  -4.125   0.000  0.00  0.00    +0.000 C 
ATOM     29  O   UNL     1      -5.001  -3.712   0.000  0.00  0.00    +0.000 OA
ENDBRANCH  25  28
ENDBRANCH  24  25
ENDBRANCH  18  24
ENDBRANCH  17  21
ENDBRANCH  16  17
ENDBRANCH   1  16
TORSDOF 10
