REMARK  Name = 
REMARK  2 active torsions:
REMARK  status: ('A' for Active; 'I' for Inactive)
REMARK    1  A    between atoms: C_2  and  C_7
REMARK    2  A    between atoms: C_5  and  C_13
REMARK                            x       y       z     vdW  Elec       q    Type
REMARK                         _______ _______ _______ _____ _____    ______ ____
ROOT
ATOM      1  C   UNL     1       0.000  -0.825   0.000  0.00  0.00    +0.000 A 
ATOM      2  C   UNL     1      -0.714  -0.412   0.000  0.00  0.00    +0.000 A 
ATOM      3  C   UNL     1      -0.714   0.412   0.000  0.00  0.00    +0.000 A 
ATOM      4  C   UNL     1       0.000   0.825   0.000  0.00  0.00    +0.000 A 
ATOM      5  C   UNL     1       0.714   0.412   0.000  0.00  0.00    +0.000 A 
ATOM      6  C   UNL     1       0.714  -0.412   0.000  0.00  0.00    +0.000 A 
ATOM      7  O   UNL     1      -1.429   0.825   0.000  0.00  0.00    +0.000 OA
ATOM      8  O   UNL     1       1.429  -0.825   0.000  0.00  0.00    +0.000 OA
ENDROOT
BRANCH   2   9
ATOM      9  C   UNL     1      -1.429  -0.825   0.000  0.00  0.00    +0.000 C 
ATOM     10  C   UNL     1      -2.143  -0.412   0.000  0.00  0.00    +0.000 C 
ATOM     11  C   UNL     1      -1.429  -1.650   0.000  0.00  0.00    +0.000 C 
ATOM     12  C   UNL     1      -2.140  -1.232   0.000  0.00  0.00    +0.000 C 
ENDBRANCH   2   9
BRANCH   5  13
ATOM     13  C   UNL     1       1.429   0.825   0.000  0.00  0.00    +0.000 C 
ATOM     14  C   UNL     1       2.143   0.412   0.000  0.00  0.00    +0.000 C 
ATOM     15  C   UNL     1       1.429   1.650   0.000  0.00  0.00    +0.000 C 
ATOM     16  C   UNL     1       2.140   1.232   0.000  0.00  0.00    +0.000 C 
ENDBRANCH   5  13
TORSDOF 2
