REMARK  Name = 
REMARK  12 active torsions:
REMARK  status: ('A' for Active; 'I' for Inactive)
REMARK    1  A    between atoms: C_2  and  C_3
REMARK    2  A    between atoms: C_3  and  O_4
REMARK    3  A    between atoms: O_4  and  C_5
REMARK    4  A    between atoms: C_5  and  C_7
REMARK    5  A    between atoms: C_7  and  C_8
REMARK    6  A    between atoms: C_11  and  O_17
REMARK    7  A    between atoms: C_12  and  O_14
REMARK    8  A    between atoms: O_14  and  C_15
REMARK    9  A    between atoms: O_17  and  C_18
REMARK   10  A    between atoms: C_18  and  C_19
REMARK   11  A    between atoms: N_21  and  C_22
REMARK   12  A    between atoms: N_21  and  C_24
REMARK                            x       y       z     vdW  Elec       q    Type
REMARK                         _______ _______ _______ _____ _____    ______ ____
ROOT
ATOM      1  C   UNL     1      -0.523   4.206   0.000  0.00  0.00    +0.000 A 
ATOM      2  C   UNL     1       0.302   4.206   0.000  0.00  0.00    +0.000 A 
ATOM      3  C   UNL     1       0.715   3.491   0.000  0.00  0.00    +0.000 A 
ATOM      4  C   UNL     1       0.302   2.777   0.000  0.00  0.00    +0.000 A 
ATOM      5  C   UNL     1      -0.523   2.777   0.000  0.00  0.00    +0.000 A 
ATOM      6  C   UNL     1      -0.935   3.491   0.000  0.00  0.00    +0.000 A 
ENDROOT
BRANCH   4   7
ATOM      7  O   UNL     1       0.715   2.062   0.000  0.00  0.00    +0.000 OA
BRANCH   7   8
ATOM      8  C   UNL     1       1.540   2.062   0.000  0.00  0.00    +0.000 C 
BRANCH   8   9
ATOM      9  C   UNL     1       1.952   1.348   0.000  0.00  0.00    +0.000 C 
ATOM     10  O   UNL     1       1.540   0.634   0.000  0.00  0.00    +0.000 OA
ATOM     11  N   UNL     1       2.777   1.348   0.000  0.00  0.00    +0.000 N 
BRANCH  11  12
ATOM     12  C   UNL     1       3.189   2.062   0.000  0.00  0.00    +0.000 C 
ATOM     13  C   UNL     1       4.014   2.062   0.000  0.00  0.00    +0.000 C 
ENDBRANCH  11  12
BRANCH  11  14
ATOM     14  C   UNL     1       3.189   0.634   0.000  0.00  0.00    +0.000 C 
ATOM     15  C   UNL     1       4.014   0.634   0.000  0.00  0.00    +0.000 C 
ENDBRANCH  11  14
ENDBRANCH   8   9
ENDBRANCH   7   8
ENDBRANCH   4   7
BRANCH   1  16
ATOM     16  C   UNL     1      -0.935   4.920   0.000  0.00  0.00    +0.000 C 
BRANCH  16  17
ATOM     17  C   UNL     1      -1.760   4.920   0.000  0.00  0.00    +0.000 C 
ATOM     18  O   UNL     1      -2.173   4.206   0.000  0.00  0.00    +0.000 OA
BRANCH  17  19
ATOM     19  O   UNL     1      -2.173   5.635   0.000  0.00  0.00    +0.000 OA
BRANCH  19  20
ATOM     20  C   UNL     1      -2.998   5.635   0.000  0.00  0.00    +0.000 C 
BRANCH  20  22
ATOM     21  C   UNL     1      -4.236   6.349   0.000  0.00  0.00    +0.000 C 
ATOM     22  C   UNL     1      -3.410   6.349   0.000  0.00  0.00    +0.000 C 
ENDBRANCH  20  22
ENDBRANCH  19  20
ENDBRANCH  17  19
ENDBRANCH  16  17
ENDBRANCH   1  16
BRANCH   5  23
ATOM     23  O   UNL     1      -0.935   2.062   0.000  0.00  0.00    +0.000 OA
BRANCH  23  24
ATOM     24  C   UNL     1      -0.523   1.348   0.000  0.00  0.00    +0.000 C 
ATOM     25  C   UNL     1      -0.935   0.634   0.000  0.00  0.00    +0.000 C 
ENDBRANCH  23  24
ENDBRANCH   5  23
TORSDOF 12
