REMARK  Name = 
REMARK  11 active torsions:
REMARK  status: ('A' for Active; 'I' for Inactive)
REMARK    1  A    between atoms: C_1  and  P_38
REMARK    2  A    between atoms: C_2  and  P_42
REMARK    3  A    between atoms: C_4  and  C_7
REMARK    4  A    between atoms: C_7  and  C_8
REMARK    5  A    between atoms: C_8  and  C_9
REMARK    6  A    between atoms: C_8  and  N_34
REMARK    7  A    between atoms: N_11  and  C_18
REMARK    8  A    between atoms: C_20  and  O_23
REMARK    9  A    between atoms: C_21  and  C_31
REMARK   10  A    between atoms: O_23  and  C_24
REMARK   11  A    between atoms: C_24  and  C_25
REMARK                            x       y       z     vdW  Elec       q    Type
REMARK                         _______ _______ _______ _____ _____    ______ ____
ROOT
ATOM      1  C   UNL     1       0.726  -1.748   0.000  0.00  0.00    +0.000 C 
ATOM      2  O   UNL     1       0.726  -2.572   0.000  0.00  0.00    +0.000 OA
ATOM      3  N   UNL     1       0.012  -1.335   0.000  0.00  0.00    +0.000 NA
ENDROOT
BRANCH   3  10
ATOM      4  C   UNL     1      -1.384  -1.283   0.000  0.00  0.00    +0.000 A 
ATOM      5  C   UNL     1      -2.173  -1.526   0.000  0.00  0.00    +0.000 A 
ATOM      6  C   UNL     1      -2.474  -2.294   0.000  0.00  0.00    +0.000 C 
ATOM      7  C   UNL     1      -2.062  -3.009   0.000  0.00  0.00    +0.000 C 
ATOM      8  C   UNL     1      -1.246  -3.131   0.000  0.00  0.00    +0.000 C 
ATOM      9  C   UNL     1      -0.641  -2.570   0.000  0.00  0.00    +0.000 C 
ATOM     10  C   UNL     1      -0.703  -1.748   0.000  0.00  0.00    +0.000 C 
ATOM     11  C   UNL     1      -2.777  -0.965   0.000  0.00  0.00    +0.000 A 
ATOM     12  C   UNL     1      -2.594  -0.161   0.000  0.00  0.00    +0.000 A 
ATOM     13  C   UNL     1      -1.806   0.083   0.000  0.00  0.00    +0.000 A 
ATOM     14  C   UNL     1      -1.201  -0.478   0.000  0.00  0.00    +0.000 A 
BRANCH  13  15
ATOM     15  C   UNL     1      -1.622   0.887   0.000  0.00  0.00    +0.000 C 
ATOM     16  O   UNL     1      -2.227   1.448   0.000  0.00  0.00    +0.000 OA
ATOM     17  N   UNL     1      -0.825   1.100   0.000  0.00  0.00    +0.000 NA
ENDBRANCH  13  15
BRANCH  12  18
ATOM     18  O   UNL     1      -3.199   0.401   0.000  0.00  0.00    +0.000 OA
BRANCH  18  19
ATOM     19  C   UNL     1      -3.015   1.205   0.000  0.00  0.00    +0.000 C 
BRANCH  19  20
ATOM     20  C   UNL     1      -3.620   1.766   0.000  0.00  0.00    +0.000 C 
ATOM     21  C   UNL     1      -4.408   1.523   0.000  0.00  0.00    +0.000 C 
ATOM     22  C   UNL     1      -5.013   2.084   0.000  0.00  0.00    +0.000 C 
ATOM     23  C   UNL     1      -4.829   2.888   0.000  0.00  0.00    +0.000 C 
ATOM     24  C   UNL     1      -4.041   3.131   0.000  0.00  0.00    +0.000 C 
ATOM     25  C   UNL     1      -3.436   2.570   0.000  0.00  0.00    +0.000 C 
ENDBRANCH  19  20
ENDBRANCH  18  19
ENDBRANCH  12  18
ENDBRANCH   3  10
BRANCH   1  26
ATOM     26  C   UNL     1       1.441  -1.335   0.000  0.00  0.00    +0.000 C 
BRANCH  26  27
ATOM     27  N   UNL     1       2.155  -1.748   0.000  0.00  0.00    +0.000 NA
ATOM     28  C   UNL     1       2.155  -2.572   0.000  0.00  0.00    +0.000 C 
ATOM     29  O   UNL     1       1.441  -2.985   0.000  0.00  0.00    +0.000 OA
ATOM     30  C   UNL     1       2.869  -2.985   0.000  0.00  0.00    +0.000 C 
ENDBRANCH  26  27
BRANCH  26  31
ATOM     31  C   UNL     1       1.441  -0.510   0.000  0.00  0.00    +0.000 C 
BRANCH  31  35
ATOM     32  C   UNL     1       3.584   0.727   0.000  0.00  0.00    +0.000 A 
ATOM     33  C   UNL     1       3.584  -0.098   0.000  0.00  0.00    +0.000 A 
ATOM     34  C   UNL     1       2.869  -0.510   0.000  0.00  0.00    +0.000 A 
ATOM     35  C   UNL     1       2.155  -0.098   0.000  0.00  0.00    +0.000 A 
ATOM     36  C   UNL     1       2.155   0.727   0.000  0.00  0.00    +0.000 A 
ATOM     37  C   UNL     1       2.869   1.140   0.000  0.00  0.00    +0.000 A 
BRANCH  33  38
ATOM     38  P   UNL     1       4.298  -0.510   0.000  0.00  0.00    +0.000 P 
ATOM     39  O   UNL     1       3.584  -0.922   0.000  0.00  0.00    +0.000 OA
ATOM     40  O   UNL     1       4.298  -1.335   0.000  0.00  0.00    +0.000 OA
ATOM     41  O   UNL     1       5.013  -0.098   0.000  0.00  0.00    +0.000 OA
ENDBRANCH  33  38
BRANCH  32  42
ATOM     42  P   UNL     1       4.298   1.140   0.000  0.00  0.00    +0.000 P 
ATOM     43  O   UNL     1       4.298   0.315   0.000  0.00  0.00    +0.000 OA
ATOM     44  O   UNL     1       5.013   0.727   0.000  0.00  0.00    +0.000 OA
ATOM     45  O   UNL     1       4.298   1.965   0.000  0.00  0.00    +0.000 OA
ENDBRANCH  32  42
ENDBRANCH  31  35
ENDBRANCH  26  31
ENDBRANCH   1  26
TORSDOF 11
