REMARK  Name = 
REMARK  3 active torsions:
REMARK  status: ('A' for Active; 'I' for Inactive)
REMARK    1  A    between atoms: N_8  and  C_15
REMARK    2  A    between atoms: C_15  and  C_16
REMARK    3  A    between atoms: C_16  and  N_18
REMARK                            x       y       z     vdW  Elec       q    Type
REMARK                         _______ _______ _______ _____ _____    ______ ____
ROOT
ATOM      1  C   UNL     1      -3.102  -0.212   0.000  0.00  0.00    +0.000 A 
ATOM      2  C   UNL     1      -3.817   0.200   0.000  0.00  0.00    +0.000 A 
ATOM      3  C   UNL     1      -4.531  -0.212   0.000  0.00  0.00    +0.000 A 
ATOM      4  C   UNL     1      -4.532  -1.037   0.000  0.00  0.00    +0.000 A 
ATOM      5  C   UNL     1      -3.817  -1.450   0.000  0.00  0.00    +0.000 A 
ATOM      6  C   UNL     1      -3.102  -1.037   0.000  0.00  0.00    +0.000 A 
ATOM      7  S   UNL     1      -2.388  -1.450   0.000  0.00  0.00    +0.000 S 
ATOM      8  N   UNL     1      -2.388   0.200   0.000  0.00  0.00    +0.000 N 
ATOM      9  C   UNL     1      -0.959   0.200   0.000  0.00  0.00    +0.000 A 
ATOM     10  C   UNL     1      -1.673  -0.212   0.000  0.00  0.00    +0.000 A 
ATOM     11  C   UNL     1      -1.673  -1.037   0.000  0.00  0.00    +0.000 A 
ATOM     12  C   UNL     1      -0.959  -1.450   0.000  0.00  0.00    +0.000 A 
ATOM     13  C   UNL     1      -0.244  -1.037   0.000  0.00  0.00    +0.000 A 
ATOM     14  C   UNL     1      -0.244  -0.212   0.000  0.00  0.00    +0.000 A 
ENDROOT
BRANCH   8  15
ATOM     15  C   UNL     1      -2.388   1.025   0.000  0.00  0.00    +0.000 C 
BRANCH  15  16
ATOM     16  C   UNL     1      -3.103   1.438   0.000  0.00  0.00    +0.000 C 
ATOM     17  C   UNL     1      -3.817   1.025   0.000  0.00  0.00    +0.000 C 
BRANCH  16  18
ATOM     18  N   UNL     1      -3.103   2.263   0.000  0.00  0.00    +0.000 N 
ATOM     19  C   UNL     1      -3.817   2.675   0.000  0.00  0.00    +0.000 C 
ATOM     20  C   UNL     1      -2.388   2.675   0.000  0.00  0.00    +0.000 C 
ATOM     21  C   UNL     1      -3.103   3.087   0.000  0.00  0.00    +0.000 C 
ENDBRANCH  16  18
ENDBRANCH  15  16
ENDBRANCH   8  15
TORSDOF 3
