REMARK  Name = 
REMARK  5 active torsions:
REMARK  status: ('A' for Active; 'I' for Inactive)
REMARK    1  A    between atoms: C_20  and  C_25
REMARK    2  A    between atoms: C_25  and  C_27
REMARK    3  A    between atoms: C_27  and  O_28
REMARK    4  A    between atoms: O_28  and  C_29
REMARK    5  A    between atoms: C_29  and  C_31
REMARK                            x       y       z     vdW  Elec       q    Type
REMARK                         _______ _______ _______ _____ _____    ______ ____
ROOT
ATOM      1  C   UNL     1      -0.749  -1.984   0.000  0.00  0.00    +0.000 C 
ATOM      2  C   UNL     1      -1.464  -2.396   0.000  0.00  0.00    +0.000 C 
ATOM      3  C   UNL     1      -2.178  -1.984   0.000  0.00  0.00    +0.000 C 
ATOM      4  C   UNL     1      -2.893  -2.396   0.000  0.00  0.00    +0.000 C 
ATOM      5  C   UNL     1      -3.607  -1.159   0.000  0.00  0.00    +0.000 C 
ATOM      6  C   UNL     1      -2.893  -0.746   0.000  0.00  0.00    +0.000 C 
ATOM      7  C   UNL     1      -2.178  -1.159   0.000  0.00  0.00    +0.000 C 
ATOM      8  C   UNL     1      -2.178  -0.334   0.000  0.00  0.00    +0.000 C 
ATOM      9  C   UNL     1      -0.749   0.491   0.000  0.00  0.00    +0.000 C 
ATOM     10  C   UNL     1       1.234  -0.334   0.000  0.00  0.00    +0.000 C 
ATOM     11  C   UNL     1       0.750  -1.001   0.000  0.00  0.00    +0.000 C 
ATOM     12  C   UNL     1      -1.464  -0.746   0.000  0.00  0.00    +0.000 C 
ATOM     13  C   UNL     1      -0.035  -0.746   0.000  0.00  0.00    +0.000 C 
ATOM     14  C   UNL     1      -0.749  -1.159   0.000  0.00  0.00    +0.000 C 
ATOM     15  C   UNL     1      -0.035   0.079   0.000  0.00  0.00    +0.000 C 
ATOM     16  C   UNL     1      -0.035   0.904   0.000  0.00  0.00    +0.000 C 
ATOM     17  C   UNL     1       0.750   0.334   0.000  0.00  0.00    +0.000 C 
ATOM     18  C   UNL     1      -3.607  -1.984   0.000  0.00  0.00    +0.000 C 
ATOM     19  O   UNL     1      -4.322  -2.396   0.000  0.00  0.00    +0.000 OA
ATOM     20  C   UNL     1      -1.464   0.079   0.000  0.00  0.00    +0.000 C 
ENDROOT
BRANCH  17  21
ATOM     21  C   UNL     1       0.750   1.159   0.000  0.00  0.00    +0.000 C 
ATOM     22  O   UNL     1       0.035   1.571   0.000  0.00  0.00    +0.000 OA
BRANCH  21  23
ATOM     23  C   UNL     1       1.464   1.571   0.000  0.00  0.00    +0.000 C 
BRANCH  23  24
ATOM     24  O   UNL     1       2.179   1.159   0.000  0.00  0.00    +0.000 OA
BRANCH  24  25
ATOM     25  C   UNL     1       2.893   1.571   0.000  0.00  0.00    +0.000 C 
ATOM     26  O   UNL     1       2.893   2.396   0.000  0.00  0.00    +0.000 OA
BRANCH  25  27
ATOM     27  C   UNL     1       3.607   1.159   0.000  0.00  0.00    +0.000 C 
ATOM     28  C   UNL     1       4.322   1.571   0.000  0.00  0.00    +0.000 C 
ATOM     29  C   UNL     1       3.607   0.334   0.000  0.00  0.00    +0.000 C 
ATOM     30  C   UNL     1       4.322   0.746   0.000  0.00  0.00    +0.000 C 
ENDBRANCH  25  27
ENDBRANCH  24  25
ENDBRANCH  23  24
ENDBRANCH  21  23
ENDBRANCH  17  21
TORSDOF 5
