REMARK  Name = 
REMARK  2 active torsions:
REMARK  status: ('A' for Active; 'I' for Inactive)
REMARK    1  A    between atoms: N_11  and  C1*_12
REMARK    2  A    between atoms: C4*_14  and  C5*_15
REMARK                            x       y       z     vdW  Elec       q    Type
REMARK                         _______ _______ _______ _____ _____    ______ ____
ROOT
ATOM      1  N   UNL     1       3.279   2.062   0.000  0.00  0.00    +0.000 NA
ATOM      2  C   UNL     1       3.279   1.238   0.000  0.00  0.00    +0.000 A 
ATOM      3  N   UNL     1       3.993   0.825   0.000  0.00  0.00    +0.000 NA
ATOM      4  C   UNL     1       3.993   0.000   0.000  0.00  0.00    +0.000 A 
ATOM      5  N   UNL     1       3.279  -0.412   0.000  0.00  0.00    +0.000 NA
ATOM      6  C   UNL     1       2.564   0.000   0.000  0.00  0.00    +0.000 A 
ATOM      7  C   UNL     1       2.564   0.825   0.000  0.00  0.00    +0.000 A 
ATOM      8  N   UNL     1       1.780   1.080   0.000  0.00  0.00    +0.000 NA
ATOM      9  C   UNL     1       1.295   0.412   0.000  0.00  0.00    +0.000 A 
ATOM     10 CL   UNL     1       0.470   0.412   0.000  0.00  0.00    +0.000 Cl
ATOM     11  N   UNL     1       1.780  -0.255   0.000  0.00  0.00    +0.000 N 
ENDROOT
BRANCH  11  12
ATOM     12  C1* UNL     1       1.525  -1.040   0.000  0.00  0.00    +0.000 C 
ATOM     13  O4* UNL     1       2.010  -1.707   0.000  0.00  0.00    +0.000 OA
ATOM     14  C4* UNL     1       1.525  -2.374   0.000  0.00  0.00    +0.000 C 
ATOM     15  C3* UNL     1       0.740  -2.119   0.000  0.00  0.00    +0.000 C 
ATOM     16  O3* UNL     1       0.073  -2.604   0.000  0.00  0.00    +0.000 OA
ATOM     17  C2* UNL     1       0.740  -1.294   0.000  0.00  0.00    +0.000 C 
ATOM     18  O2* UNL     1       0.073  -0.810   0.000  0.00  0.00    +0.000 OA
BRANCH  14  19
ATOM     19  C5* UNL     1       1.780  -3.159   0.000  0.00  0.00    +0.000 C 
ATOM     20  O5* UNL     1       2.587  -3.331   0.000  0.00  0.00    +0.000 OA
ENDBRANCH  14  19
ENDBRANCH  11  12
TORSDOF 2
