REMARK  Name = 
REMARK  3 active torsions:
REMARK  status: ('A' for Active; 'I' for Inactive)
REMARK    1  A    between atoms: O_2  and  C_3
REMARK    2  A    between atoms: N_21  and  C_22
REMARK    3  A    between atoms: C_22  and  N_23
REMARK                            x       y       z     vdW  Elec       q    Type
REMARK                         _______ _______ _______ _____ _____    ______ ____
ROOT
ATOM      1  C   UNL     1       3.517   2.346   0.000  0.00  0.00    +0.000 A 
ATOM      2  C   UNL     1       4.258   1.982   0.000  0.00  0.00    +0.000 A 
ATOM      3  C   UNL     1       4.312   1.159   0.000  0.00  0.00    +0.000 A 
ATOM      4  C   UNL     1       3.627   0.700   0.000  0.00  0.00    +0.000 A 
ATOM      5  C   UNL     1       2.886   1.064   0.000  0.00  0.00    +0.000 A 
ATOM      6  C   UNL     1       2.832   1.887   0.000  0.00  0.00    +0.000 A 
ATOM      7  C   UNL     1       2.032   2.089   0.000  0.00  0.00    +0.000 A 
ATOM      8  C   UNL     1       1.592   1.391   0.000  0.00  0.00    +0.000 A 
ATOM      9  N   UNL     1       2.120   0.757   0.000  0.00  0.00    +0.000 NA
ATOM     10  C   UNL     1       0.768   1.423   0.000  0.00  0.00    +0.000 A 
ATOM     11  C   UNL     1       0.383   2.153   0.000  0.00  0.00    +0.000 A 
ATOM     12  C   UNL     1      -0.430   2.012   0.000  0.00  0.00    +0.000 C 
ATOM     13  C   UNL     1      -0.547   1.196   0.000  0.00  0.00    +0.000 C 
ATOM     14  C   UNL     1       0.193   0.831   0.000  0.00  0.00    +0.000 C 
ATOM     15  C   UNL     1       0.823   2.851   0.000  0.00  0.00    +0.000 A 
ATOM     16  C   UNL     1       1.647   2.819   0.000  0.00  0.00    +0.000 A 
ATOM     17  C   UNL     1       1.932   3.594   0.000  0.00  0.00    +0.000 C 
ATOM     18  O   UNL     1       2.726   3.818   0.000  0.00  0.00    +0.000 OA
ATOM     19  N   UNL     1       1.284   4.104   0.000  0.00  0.00    +0.000 N 
ATOM     20  C   UNL     1       0.598   3.645   0.000  0.00  0.00    +0.000 C 
ATOM     21  O   UNL     1      -0.176   3.929   0.000  0.00  0.00    +0.000 OA
ENDROOT
BRANCH   1  23
ATOM     22  C   UNL     1       4.148   3.628   0.000  0.00  0.00    +0.000 C 
ATOM     23  O   UNL     1       3.462   3.169   0.000  0.00  0.00    +0.000 OA
ENDBRANCH   1  23
BRANCH  19  24
ATOM     24  C   UNL     1       1.315   4.928   0.000  0.00  0.00    +0.000 C 
BRANCH  24  25
ATOM     25  N   UNL     1       2.045   5.313   0.000  0.00  0.00    +0.000 NA
ATOM     26  C   UNL     1       2.076   6.137   0.000  0.00  0.00    +0.000 C 
ATOM     27  C   UNL     1       2.806   6.522   0.000  0.00  0.00    +0.000 C 
ATOM     28  N   UNL     1       3.504   6.082   0.000  0.00  0.00    +0.000 NA
ATOM     29  C   UNL     1       4.234   6.467   0.000  0.00  0.00    +0.000 C 
ATOM     30  C   UNL     1       3.473   5.258   0.000  0.00  0.00    +0.000 C 
ATOM     31  C   UNL     1       2.743   4.873   0.000  0.00  0.00    +0.000 C 
ENDBRANCH  24  25
ENDBRANCH  19  24
TORSDOF 3
