REMARK  Name = 
REMARK  0 active torsions:
REMARK  status: ('A' for Active; 'I' for Inactive)
REMARK                            x       y       z     vdW  Elec       q    Type
REMARK                         _______ _______ _______ _____ _____    ______ ____
ROOT
ATOM      1  N   UNL     1      -0.002   0.660   0.000  0.00  0.00    +0.000 N 
ATOM      2  C   UNL     1       0.667   0.173   0.000  0.00  0.00    +0.000 C 
ATOM      3  C   UNL     1       0.410  -0.611   0.000  0.00  0.00    +0.000 C 
ATOM      4  N   UNL     1       0.894  -1.279   0.000  0.00  0.00    +0.000 NA
ATOM      5  C   UNL     1      -0.415  -0.611   0.000  0.00  0.00    +0.000 C 
ATOM      6  C   UNL     1      -0.668   0.173   0.000  0.00  0.00    +0.000 C 
ATOM      7  O   UNL     1       1.452   0.427   0.000  0.00  0.00    +0.000 OA
ATOM      8  O   UNL     1      -1.452   0.428   0.000  0.00  0.00    +0.000 OA
ATOM      9  H   UNL     1      -0.002   1.279   0.000  0.00  0.00    +0.000 HD
ENDROOT
TORSDOF 0
