REMARK  Name = 
REMARK  9 active torsions:
REMARK  status: ('A' for Active; 'I' for Inactive)
REMARK    1  A    between atoms: C_2  and  C_4
REMARK    2  A    between atoms: C_4  and  N_5
REMARK    3  A    between atoms: N_5  and  C_6
REMARK    4  A    between atoms: N_5  and  S_27
REMARK    5  A    between atoms: C_14  and  O_15
REMARK    6  A    between atoms: O_15  and  C_16
REMARK    7  A    between atoms: C_16  and  C_17
REMARK    8  A    between atoms: C_20  and  C_24
REMARK    9  A    between atoms: S_27  and  C_30
REMARK                            x       y       z     vdW  Elec       q    Type
REMARK                         _______ _______ _______ _____ _____    ______ ____
ROOT
ATOM      1  C   UNL     1       2.070   1.110   0.000  0.00  0.00    +0.000 A 
ATOM      2  C   UNL     1       1.356   0.698   0.000  0.00  0.00    +0.000 A 
ATOM      3  C   UNL     1       0.641   1.110   0.000  0.00  0.00    +0.000 A 
ATOM      4  C   UNL     1       0.641   1.935   0.000  0.00  0.00    +0.000 A 
ATOM      5  C   UNL     1      -0.143   2.190   0.000  0.00  0.00    +0.000 C 
ATOM      6  C   UNL     1      -0.628   1.523   0.000  0.00  0.00    +0.000 C 
ATOM      7  C   UNL     1      -0.143   0.856   0.000  0.00  0.00    +0.000 C 
ATOM      8  C   UNL     1       1.356   2.348   0.000  0.00  0.00    +0.000 A 
ATOM      9  C   UNL     1       2.070   1.935   0.000  0.00  0.00    +0.000 A 
ENDROOT
BRANCH   9  10
ATOM     10  O   UNL     1       2.784   2.348   0.000  0.00  0.00    +0.000 OA
BRANCH  10  11
ATOM     11  C   UNL     1       2.784   3.173   0.000  0.00  0.00    +0.000 C 
BRANCH  11  12
ATOM     12  C   UNL     1       3.499   3.585   0.000  0.00  0.00    +0.000 A 
ATOM     13  C   UNL     1       4.213   3.173   0.000  0.00  0.00    +0.000 A 
ATOM     14  C   UNL     1       4.928   3.585   0.000  0.00  0.00    +0.000 A 
ATOM     15  C   UNL     1       4.928   4.410   0.000  0.00  0.00    +0.000 A 
ATOM     16  C   UNL     1       4.213   4.823   0.000  0.00  0.00    +0.000 A 
ATOM     17  C   UNL     1       3.499   4.410   0.000  0.00  0.00    +0.000 A 
ATOM     18  C   UNL     1       2.784   4.823   0.000  0.00  0.00    +0.000 C 
BRANCH  15  19
ATOM     19  C   UNL     1       5.642   4.823   0.000  0.00  0.00    +0.000 C 
ATOM     20  O   UNL     1       6.357   4.410   0.000  0.00  0.00    +0.000 OA
ATOM     21  O   UNL     1       5.642   5.648   0.000  0.00  0.00    +0.000 OA
ENDBRANCH  15  19
ENDBRANCH  11  12
ENDBRANCH  10  11
ENDBRANCH   9  10
BRANCH   1  22
ATOM     22  N   UNL     1       2.784   0.698   0.000  0.00  0.00    +0.000 N 
BRANCH  22  23
ATOM     23  S   UNL     1       3.499   1.110   0.000  0.00  0.00    +0.000 S 
ATOM     24  O   UNL     1       3.912   0.396   0.000  0.00  0.00    +0.000 OA
ATOM     25  O   UNL     1       3.087   1.825   0.000  0.00  0.00    +0.000 OA
BRANCH  23  26
ATOM     26  C   UNL     1       4.213   1.523   0.000  0.00  0.00    +0.000 A 
ATOM     27  N   UNL     1       4.967   1.187   0.000  0.00  0.00    +0.000 NA
ATOM     28  C   UNL     1       5.519   1.800   0.000  0.00  0.00    +0.000 A 
ATOM     29  C   UNL     1       5.107   2.515   0.000  0.00  0.00    +0.000 A 
ATOM     30  S   UNL     1       4.300   2.343   0.000  0.00  0.00    +0.000 S 
ENDBRANCH  23  26
ENDBRANCH  22  23
BRANCH  22  31
ATOM     31  C   UNL     1       2.784  -0.127   0.000  0.00  0.00    +0.000 C 
BRANCH  31  33
ATOM     32  C   UNL     1       4.213  -0.127   0.000  0.00  0.00    +0.000 C 
ATOM     33  C   UNL     1       3.499  -0.540   0.000  0.00  0.00    +0.000 C 
ATOM     34  C   UNL     1       3.499  -1.365   0.000  0.00  0.00    +0.000 C 
ENDBRANCH  31  33
ENDBRANCH  22  31
ENDBRANCH   1  22
TORSDOF 9
