REMARK  Name = 
REMARK  5 active torsions:
REMARK  status: ('A' for Active; 'I' for Inactive)
REMARK    1  A    between atoms: C_4  and  C_5
REMARK    2  A    between atoms: C_4  and  C_6
REMARK    3  A    between atoms: C_5  and  C_9
REMARK    4  A    between atoms: C_7  and  C_8
REMARK    5  A    between atoms: C_8  and  C_10
REMARK                            x       y       z     vdW  Elec       q    Type
REMARK                         _______ _______ _______ _____ _____    ______ ____
ROOT
ATOM      1 SE   UNL     1      -0.786   0.410   0.000  0.00  0.00    +0.000 Se
ATOM      2  N   UNL     1      -0.374  -0.860   0.000  0.00  0.00    +0.000 NA
ATOM      3  N   UNL     1      -1.826  -0.630   0.000  0.00  0.00    +0.000 N 
ATOM      4  C   UNL     1       0.294  -0.375   0.000  0.00  0.00    +0.000 A 
ATOM      5  C   UNL     1       0.039   0.410   0.000  0.00  0.00    +0.000 A 
ATOM      6  C   UNL     1      -1.041  -0.375   0.000  0.00  0.00    +0.000 A 
ATOM      7  H   UNL     1      -1.932  -1.130   0.000  0.00  0.00    +0.000 HD
ATOM      8  H   UNL     1      -2.206  -0.287   0.000  0.00  0.00    +0.000 HD
ENDROOT
BRANCH   4   9
ATOM      9  C   UNL     1       1.078  -0.630   0.000  0.00  0.00    +0.000 C 
BRANCH   9  10
ATOM     10  C   UNL     1       1.250  -1.437   0.000  0.00  0.00    +0.000 C 
BRANCH  10  11
ATOM     11  C   UNL     1       2.034  -1.691   0.000  0.00  0.00    +0.000 C 
ATOM     12  C   UNL     1       2.206  -2.498   0.000  0.00  0.00    +0.000 C 
ENDBRANCH  10  11
ENDBRANCH   9  10
ENDBRANCH   4   9
BRANCH   5  13
ATOM     13  C   UNL     1       0.524   1.077   0.000  0.00  0.00    +0.000 C 
BRANCH  13  14
ATOM     14  C   UNL     1       0.188   1.831   0.000  0.00  0.00    +0.000 C 
ATOM     15  C   UNL     1       0.673   2.498   0.000  0.00  0.00    +0.000 C 
ENDBRANCH  13  14
ENDBRANCH   5  13
TORSDOF 5
