REMARK  Name = 
REMARK  2 active torsions:
REMARK  status: ('A' for Active; 'I' for Inactive)
REMARK    1  A    between atoms: C_1  and  C_3
REMARK    2  A    between atoms: C_3  and  C_5
REMARK                            x       y       z     vdW  Elec       q    Type
REMARK                         _______ _______ _______ _____ _____    ______ ____
ROOT
ATOM      1  C   UNL     1       0.048   0.000   0.000  0.00  0.00    +0.000 A 
ATOM      2  C   UNL     1      -0.669   0.408   0.000  0.00  0.00    +0.000 A 
ATOM      3  C   UNL     1       0.048  -0.828   0.000  0.00  0.00    +0.000 A 
ATOM      4  C   UNL     1      -1.386   0.000   0.000  0.00  0.00    +0.000 A 
ATOM      5  C   UNL     1      -0.669  -1.236   0.000  0.00  0.00    +0.000 A 
ATOM      6  C   UNL     1      -1.386  -0.828   0.000  0.00  0.00    +0.000 A 
ATOM      7  O   UNL     1      -2.103  -1.236   0.000  0.00  0.00    +0.000 OA
ENDROOT
BRANCH   1   8
ATOM      8  C   UNL     1       0.765   0.408   0.000  0.00  0.00    +0.000 C 
ATOM      9  O   UNL     1       0.765   1.236   0.000  0.00  0.00    +0.000 OA
BRANCH   8  10
ATOM     10  C   UNL     1       1.482   0.000   0.000  0.00  0.00    +0.000 C 
ATOM     11  N   UNL     1       2.103  -0.358   0.000  0.00  0.00    +0.000 NA
ENDBRANCH   8  10
ENDBRANCH   1   8
TORSDOF 2
