REMARK  Name = 
REMARK  4 active torsions:
REMARK  status: ('A' for Active; 'I' for Inactive)
REMARK    1  A    between atoms: S_2  and  C_4
REMARK    2  A    between atoms: C_4  and  C_5
REMARK    3  A    between atoms: C_5  and  CA_6
REMARK    4  A    between atoms: CA_6  and  C_7
REMARK                            x       y       z     vdW  Elec       q    Type
REMARK                         _______ _______ _______ _____ _____    ______ ____
ROOT
ATOM      1  C   UNL     1      -0.071  -0.124   0.000  0.00  0.00    +0.000 C 
ENDROOT
BRANCH   1   2
ATOM      2  CA  UNL     1       0.643   0.289   0.000  0.00  0.00    +0.000 C 
ATOM      3  N   UNL     1       0.643   1.114   0.000  0.00  0.00    +0.000 NA
BRANCH   2   4
ATOM      4  C   UNL     1       1.357  -0.124   0.000  0.00  0.00    +0.000 C 
ATOM      5  O   UNL     1       2.072   0.289   0.000  0.00  0.00    +0.000 OA
ATOM      6  OXT UNL     1       1.357  -0.949   0.000  0.00  0.00    +0.000 OA
ENDBRANCH   2   4
ENDBRANCH   1   2
BRANCH   1   7
ATOM      7  C   UNL     1      -0.786   0.289   0.000  0.00  0.00    +0.000 C 
BRANCH   7   9
ATOM      8  C   UNL     1      -2.215   0.289   0.000  0.00  0.00    +0.000 C 
ATOM      9  S   UNL     1      -1.500  -0.124   0.000  0.00  0.00    +0.000 S 
ATOM     10  C   UNL     1      -1.500  -0.949   0.000  0.00  0.00    +0.000 C 
ENDBRANCH   7   9
ENDBRANCH   1   7
TORSDOF 4
REMARK  Name = 
REMARK  4 active torsions:
REMARK  status: ('A' for Active; 'I' for Inactive)
REMARK    1  A    between atoms: S_2  and  C_4
REMARK    2  A    between atoms: C_4  and  C_5
REMARK    3  A    between atoms: C_5  and  CA_6
REMARK    4  A    between atoms: CA_6  and  C_7
REMARK                            x       y       z     vdW  Elec       q    Type
REMARK                         _______ _______ _______ _____ _____    ______ ____
ROOT
ATOM      1 CL   UNL     1       4.429   0.000   0.000  0.00  0.00    +0.000 Cl
ENDROOT
TORSDOF 0
