REMARK  Name = 
REMARK  20 active torsions:
REMARK  status: ('A' for Active; 'I' for Inactive)
REMARK    1  A    between atoms: O_3  and  C_30
REMARK    2  A    between atoms: O_3  and  C_31
REMARK    3  A    between atoms: N_8  and  C_17
REMARK    4  A    between atoms: N_9  and  C_16
REMARK    5  A    between atoms: N_10  and  C_26
REMARK    6  A    between atoms: C_13  and  C_14
REMARK    7  A    between atoms: C_13  and  C_15
REMARK    8  A    between atoms: C_13  and  C_18
REMARK    9  A    between atoms: C_14  and  C_19
REMARK   10  A    between atoms: C_15  and  C_22
REMARK   11  A    between atoms: C_16  and  C_19
REMARK   12  A    between atoms: C_16  and  C_21
REMARK   13  A    between atoms: C_17  and  C_20
REMARK   14  A    between atoms: C_17  and  C_23
REMARK   15  A    between atoms: C_20  and  C_24
REMARK   16  A    between atoms: C_21  and  C_25
REMARK   17  A    between atoms: C_24  and  C_34
REMARK   18  A    between atoms: C_26  and  C_29
REMARK   19  A    between atoms: C_26  and  C_38
REMARK   20  A    between atoms: C_29  and  C_37
REMARK                            x       y       z     vdW  Elec       q    Type
REMARK                         _______ _______ _______ _____ _____    ______ ____
ROOT
ATOM      1  O   UNL     1       0.850   0.825   0.000  0.00  0.00    +0.000 OA
ATOM      2  N   UNL     1       0.136  -0.412   0.000  0.00  0.00    +0.000 N 
ATOM      3  C   UNL     1       0.136   0.412   0.000  0.00  0.00    +0.000 C 
ATOM      4  H   UNL     1      -0.307  -0.668   0.000  0.00  0.00    +0.000 HD
ENDROOT
BRANCH   2   5
ATOM      5  C   UNL     1       0.850  -0.825   0.000  0.00  0.00    +0.000 C 
BRANCH   5   8
ATOM      6  O   UNL     1       0.136  -2.062   0.000  0.00  0.00    +0.000 OA
ATOM      7  N   UNL     1       1.565  -2.062   0.000  0.00  0.00    +0.000 N 
ATOM      8  C   UNL     1       0.850  -1.650   0.000  0.00  0.00    +0.000 C 
ATOM      9  H   UNL     1       2.008  -1.807   0.000  0.00  0.00    +0.000 HD
BRANCH   7  10
ATOM     10  C   UNL     1       1.565  -2.888   0.000  0.00  0.00    +0.000 C 
BRANCH  10  13
ATOM     11  O   UNL     1       2.279  -4.125   0.000  0.00  0.00    +0.000 OA
ATOM     12  N   UNL     1       2.994  -2.888   0.000  0.00  0.00    +0.000 N 
ATOM     13  C   UNL     1       2.279  -3.300   0.000  0.00  0.00    +0.000 C 
ATOM     14  H   UNL     1       2.994  -2.376   0.000  0.00  0.00    +0.000 HD
ATOM     15  H   UNL     1       3.437  -3.143   0.000  0.00  0.00    +0.000 HD
ENDBRANCH  10  13
BRANCH  10  16
ATOM     16  C   UNL     1       0.850  -3.300   0.000  0.00  0.00    +0.000 C 
BRANCH  16  17
ATOM     17  C   UNL     1       0.850  -4.125   0.000  0.00  0.00    +0.000 A 
ATOM     18  C   UNL     1       1.565  -4.537   0.000  0.00  0.00    +0.000 A 
ATOM     19  C   UNL     1       0.136  -4.537   0.000  0.00  0.00    +0.000 A 
ATOM     20  C   UNL     1       1.565  -5.362   0.000  0.00  0.00    +0.000 A 
ATOM     21  C   UNL     1       0.136  -5.362   0.000  0.00  0.00    +0.000 A 
ATOM     22  C   UNL     1       0.850  -5.775   0.000  0.00  0.00    +0.000 A 
ENDBRANCH  16  17
ENDBRANCH  10  16
ENDBRANCH   7  10
ENDBRANCH   5   8
BRANCH   5  23
ATOM     23  C   UNL     1       1.565  -0.412   0.000  0.00  0.00    +0.000 C 
BRANCH  23  24
ATOM     24  C   UNL     1       1.565   0.412   0.000  0.00  0.00    +0.000 C 
BRANCH  24  27
ATOM     25  O   UNL     1       2.994   0.412   0.000  0.00  0.00    +0.000 OA
ATOM     26  N   UNL     1       2.279   1.650   0.000  0.00  0.00    +0.000 N 
ATOM     27  C   UNL     1       2.279   0.825   0.000  0.00  0.00    +0.000 C 
ATOM     28  H   UNL     1       1.836   1.906   0.000  0.00  0.00    +0.000 HD
ATOM     29  H   UNL     1       2.722   1.906   0.000  0.00  0.00    +0.000 HD
ENDBRANCH  24  27
ENDBRANCH  23  24
ENDBRANCH   5  23
ENDBRANCH   2   5
BRANCH   3  30
ATOM     30  C   UNL     1      -0.579   0.825   0.000  0.00  0.00    +0.000 C 
BRANCH  30  31
ATOM     31  C   UNL     1      -1.293   0.412   0.000  0.00  0.00    +0.000 C 
BRANCH  31  32
ATOM     32  C   UNL     1      -2.008   0.825   0.000  0.00  0.00    +0.000 A 
ATOM     33  C   UNL     1      -2.008   1.650   0.000  0.00  0.00    +0.000 A 
ATOM     34  C   UNL     1      -2.722   0.412   0.000  0.00  0.00    +0.000 A 
ATOM     35  C   UNL     1      -2.722   2.062   0.000  0.00  0.00    +0.000 A 
ATOM     36  C   UNL     1      -3.437   0.825   0.000  0.00  0.00    +0.000 A 
ATOM     37  C   UNL     1      -3.437   1.650   0.000  0.00  0.00    +0.000 A 
ENDBRANCH  31  32
ENDBRANCH  30  31
BRANCH  30  38
ATOM     38  C   UNL     1      -0.579   1.650   0.000  0.00  0.00    +0.000 C 
BRANCH  38  40
ATOM     39  O   UNL     1       0.850   1.650   0.000  0.00  0.00    +0.000 OA
ATOM     40  C   UNL     1       0.136   2.062   0.000  0.00  0.00    +0.000 C 
BRANCH  40  41
ATOM     41  C   UNL     1       0.136   2.888   0.000  0.00  0.00    +0.000 C 
BRANCH  41  43
ATOM     42  O   UNL     1      -1.293   2.062   0.000  0.00  0.00    +0.000 OA
ATOM     43  N   UNL     1      -0.579   3.300   0.000  0.00  0.00    +0.000 N 
ATOM     44  C   UNL     1      -1.293   2.888   0.000  0.00  0.00    +0.000 C 
ATOM     45  H   UNL     1      -0.579   3.812   0.000  0.00  0.00    +0.000 HD
BRANCH  44  46
ATOM     46  O   UNL     1      -2.008   3.300   0.000  0.00  0.00    +0.000 OA
BRANCH  46  47
ATOM     47  C   UNL     1      -2.008   4.125   0.000  0.00  0.00    +0.000 C 
ATOM     48  C   UNL     1      -2.008   4.950   0.000  0.00  0.00    +0.000 C 
ATOM     49  C   UNL     1      -2.833   4.125   0.000  0.00  0.00    +0.000 C 
ATOM     50  C   UNL     1      -1.183   4.125   0.000  0.00  0.00    +0.000 C 
ENDBRANCH  46  47
ENDBRANCH  44  46
ENDBRANCH  41  43
BRANCH  41  51
ATOM     51  C   UNL     1       0.850   3.300   0.000  0.00  0.00    +0.000 C 
BRANCH  51  52
ATOM     52  C   UNL     1       0.850   4.125   0.000  0.00  0.00    +0.000 A 
ATOM     53  C   UNL     1       1.565   4.537   0.000  0.00  0.00    +0.000 A 
ATOM     54  C   UNL     1       0.136   4.537   0.000  0.00  0.00    +0.000 A 
ATOM     55  C   UNL     1       1.565   5.362   0.000  0.00  0.00    +0.000 A 
ATOM     56  C   UNL     1       0.136   5.362   0.000  0.00  0.00    +0.000 A 
ATOM     57  C   UNL     1       0.850   5.775   0.000  0.00  0.00    +0.000 A 
ENDBRANCH  51  52
ENDBRANCH  41  51
ENDBRANCH  40  41
ENDBRANCH  38  40
ENDBRANCH  30  38
ENDBRANCH   3  30
TORSDOF 20
