REMARK  Name = 
REMARK  8 active torsions:
REMARK  status: ('A' for Active; 'I' for Inactive)
REMARK    1  A    between atoms: C_1  and  C_2
REMARK    2  A    between atoms: C_4  and  C_9
REMARK    3  A    between atoms: N_13  and  C_16
REMARK    4  A    between atoms: C_16  and  C_17
REMARK    5  A    between atoms: C_19  and  C_23
REMARK    6  A    between atoms: C_26  and  O_29
REMARK    7  A    between atoms: O_29  and  C_30
REMARK    8  A    between atoms: C_30  and  C_34
REMARK                            x       y       z     vdW  Elec       q    Type
REMARK                         _______ _______ _______ _____ _____    ______ ____
ROOT
ATOM      1  C   UNL     1      -0.715   0.825   0.000  0.00  0.00    +0.000 A 
ATOM      2  C   UNL     1       0.000   0.412   0.000  0.00  0.00    +0.000 A 
ATOM      3  C   UNL     1       0.715   0.825   0.000  0.00  0.00    +0.000 A 
ATOM      4  C   UNL     1       0.715   1.650   0.000  0.00  0.00    +0.000 A 
ATOM      5  C   UNL     1       0.000   2.062   0.000  0.00  0.00    +0.000 A 
ATOM      6  C   UNL     1      -0.715   1.650   0.000  0.00  0.00    +0.000 A 
ENDROOT
BRANCH   3   7
ATOM      7  C   UNL     1       1.429   0.412   0.000  0.00  0.00    +0.000 A 
ATOM      8  N   UNL     1       2.143   0.825   0.000  0.00  0.00    +0.000 NA
ATOM      9  C   UNL     1       2.858   0.412   0.000  0.00  0.00    +0.000 A 
ATOM     10  C   UNL     1       2.858  -0.412   0.000  0.00  0.00    +0.000 A 
ATOM     11  C   UNL     1       2.143  -0.825   0.000  0.00  0.00    +0.000 A 
ATOM     12  N   UNL     1       1.429  -0.412   0.000  0.00  0.00    +0.000 NA
BRANCH  10  13
ATOM     13  O   UNL     1       3.572  -0.825   0.000  0.00  0.00    +0.000 OA
BRANCH  13  14
ATOM     14  C   UNL     1       4.287  -0.412   0.000  0.00  0.00    +0.000 C 
BRANCH  14  18
ATOM     15  N   UNL     1       6.430  -1.650   0.000  0.00  0.00    +0.000 NA
ATOM     16  C   UNL     1       5.716  -2.062   0.000  0.00  0.00    +0.000 C 
ATOM     17  C   UNL     1       5.001  -1.650   0.000  0.00  0.00    +0.000 C 
ATOM     18  C   UNL     1       5.001  -0.825   0.000  0.00  0.00    +0.000 C 
ATOM     19  C   UNL     1       5.716  -0.412   0.000  0.00  0.00    +0.000 C 
ATOM     20  C   UNL     1       6.430  -0.825   0.000  0.00  0.00    +0.000 C 
ATOM     21  C   UNL     1       7.145  -2.062   0.000  0.00  0.00    +0.000 C 
ENDBRANCH  14  18
ENDBRANCH  13  14
ENDBRANCH  10  13
ENDBRANCH   3   7
BRANCH   1  22
ATOM     22  C   UNL     1      -1.429   0.412   0.000  0.00  0.00    +0.000 C 
BRANCH  22  27
ATOM     23  C   UNL     1      -3.572   0.825   0.000  0.00  0.00    +0.000 A 
ATOM     24  C   UNL     1      -3.572   1.650   0.000  0.00  0.00    +0.000 A 
ATOM     25  C   UNL     1      -2.858   2.062   0.000  0.00  0.00    +0.000 A 
ATOM     26  C   UNL     1      -2.143   1.650   0.000  0.00  0.00    +0.000 A 
ATOM     27  N   UNL     1      -2.143   0.825   0.000  0.00  0.00    +0.000 N 
ATOM     28  N   UNL     1      -2.858   0.412   0.000  0.00  0.00    +0.000 NA
ATOM     29  O   UNL     1      -1.429   2.062   0.000  0.00  0.00    +0.000 OA
BRANCH  23  32
ATOM     30  C   UNL     1      -5.716   0.412   0.000  0.00  0.00    +0.000 A 
ATOM     31  C   UNL     1      -5.001   0.825   0.000  0.00  0.00    +0.000 A 
ATOM     32  C   UNL     1      -4.287   0.412   0.000  0.00  0.00    +0.000 A 
ATOM     33  C   UNL     1      -4.287  -0.412   0.000  0.00  0.00    +0.000 A 
ATOM     34  C   UNL     1      -5.001  -0.825   0.000  0.00  0.00    +0.000 A 
ATOM     35  C   UNL     1      -5.716  -0.412   0.000  0.00  0.00    +0.000 A 
BRANCH  30  36
ATOM     36  C   UNL     1      -6.430   0.825   0.000  0.00  0.00    +0.000 C 
ATOM     37  N   UNL     1      -7.145   1.237   0.000  0.00  0.00    +0.000 NA
ENDBRANCH  30  36
ENDBRANCH  23  32
ENDBRANCH  22  27
ENDBRANCH   1  22
TORSDOF 8
