REMARK  Name = 
REMARK  2 active torsions:
REMARK  status: ('A' for Active; 'I' for Inactive)
REMARK    1  A    between atoms: C_3  and  O_23
REMARK    2  A    between atoms: C_9  and  O_19
REMARK                            x       y       z     vdW  Elec       q    Type
REMARK                         _______ _______ _______ _____ _____    ______ ____
ROOT
ATOM      1  O   UNL     1       1.883  -2.177   0.000  0.00  0.00    +0.000 OA
ATOM      2  C   UNL     1       1.462  -1.456   0.000  0.00  0.00    +0.000 C 
ATOM      3  C   UNL     1       1.872  -0.747   0.000  0.00  0.00    +0.000 C 
ATOM      4  C   UNL     1       1.460  -0.036   0.000  0.00  0.00    +0.000 C 
ATOM      5  C   UNL     1       0.633  -0.037   0.000  0.00  0.00    +0.000 C 
ATOM      6  C   UNL     1       0.224  -0.749   0.000  0.00  0.00    +0.000 C 
ATOM      7  C   UNL     1      -0.602  -0.750   0.000  0.00  0.00    +0.000 A 
ATOM      8  C   UNL     1      -1.013  -1.466   0.000  0.00  0.00    +0.000 A 
ATOM      9  C   UNL     1      -1.839  -1.466   0.000  0.00  0.00    +0.000 A 
ATOM     10  C   UNL     1      -2.251  -0.753   0.000  0.00  0.00    +0.000 A 
ATOM     11  C   UNL     1      -1.842  -0.042   0.000  0.00  0.00    +0.000 A 
ATOM     12  C   UNL     1      -1.013  -0.043   0.000  0.00  0.00    +0.000 A 
ATOM     13  C   UNL     1      -0.528   0.670   0.000  0.00  0.00    +0.000 C 
ATOM     14  C   UNL     1       0.223   0.674   0.000  0.00  0.00    +0.000 C 
ATOM     15  N   UNL     1       0.716   1.384   0.000  0.00  0.00    +0.000 NA
ATOM     16  C   UNL     1      -0.430   1.377   0.000  0.00  0.00    +0.000 C 
ATOM     17  C   UNL     1      -0.432   0.006   0.000  0.00  0.00    +0.000 C 
ATOM     18  C   UNL     1       1.280   2.184   0.000  0.00  0.00    +0.000 C 
ATOM     19  O   UNL     1      -0.592  -2.183   0.000  0.00  0.00    +0.000 OA
ATOM     20  C   UNL     1       0.635  -1.458   0.000  0.00  0.00    +0.000 C 
ENDROOT
BRANCH   9  21
ATOM     21  O   UNL     1      -2.257  -2.184   0.000  0.00  0.00    +0.000 OA
ATOM     22  C   UNL     1      -3.203  -1.862   0.000  0.00  0.00    +0.000 C 
ENDBRANCH   9  21
BRANCH   3  23
ATOM     23  O   UNL     1       2.694  -0.746   0.000  0.00  0.00    +0.000 OA
ATOM     24  C   UNL     1       3.203  -0.145   0.000  0.00  0.00    +0.000 C 
ENDBRANCH   3  23
TORSDOF 2
