REMARK  Name = 
REMARK  8 active torsions:
REMARK  status: ('A' for Active; 'I' for Inactive)
REMARK    1  A    between atoms: N_6  and  C_17
REMARK    2  A    between atoms: N_6  and  C_19
REMARK    3  A    between atoms: N_8  and  C_20
REMARK    4  A    between atoms: N_9  and  C_25
REMARK    5  A    between atoms: C_12  and  C_17
REMARK    6  A    between atoms: C_19  and  C_20
REMARK    7  A    between atoms: C_25  and  C_26
REMARK    8  A    between atoms: C_26  and  C_27
REMARK                            x       y       z     vdW  Elec       q    Type
REMARK                         _______ _______ _______ _____ _____    ______ ____
ROOT
ATOM      1 CL   UNL     1       1.429  -2.681   0.000  0.00  0.00    +0.000 Cl
ATOM      2  O   UNL     1       0.000  -0.206   0.000  0.00  0.00    +0.000 OA
ATOM      3  N   UNL     1       0.714  -1.444   0.000  0.00  0.00    +0.000 N 
ATOM      4  N   UNL     1      -1.429  -1.031   0.000  0.00  0.00    +0.000 NA
ATOM      5  N   UNL     1      -0.714  -2.269   0.000  0.00  0.00    +0.000 NA
ATOM      6  C   UNL     1       0.000  -1.031   0.000  0.00  0.00    +0.000 C 
ATOM      7  C   UNL     1       0.714  -2.269   0.000  0.00  0.00    +0.000 C 
ATOM      8  C   UNL     1      -0.714  -1.444   0.000  0.00  0.00    +0.000 C 
ATOM      9  C   UNL     1       0.000  -2.681   0.000  0.00  0.00    +0.000 C 
ENDROOT
BRANCH   3  10
ATOM     10  C   UNL     1       1.429  -1.031   0.000  0.00  0.00    +0.000 C 
BRANCH  10  11
ATOM     11  C   UNL     1       1.429  -0.206   0.000  0.00  0.00    +0.000 C 
BRANCH  11  12
ATOM     12  N   UNL     1       2.143   0.206   0.000  0.00  0.00    +0.000 NA
BRANCH  12  13
ATOM     13  C   UNL     1       2.143   1.031   0.000  0.00  0.00    +0.000 C 
BRANCH  13  16
ATOM     14  N   UNL     1       3.572   2.681   0.000  0.00  0.00    +0.000 NA
ATOM     15  N   UNL     1       5.001   2.681   0.000  0.00  0.00    +0.000 NA
ATOM     16  C   UNL     1       2.858   1.444   0.000  0.00  0.00    +0.000 C 
ATOM     17  C   UNL     1       2.858   2.269   0.000  0.00  0.00    +0.000 C 
ATOM     18  C   UNL     1       3.572   1.031   0.000  0.00  0.00    +0.000 C 
ATOM     19  C   UNL     1       4.287   1.444   0.000  0.00  0.00    +0.000 C 
ATOM     20  C   UNL     1       4.287   2.269   0.000  0.00  0.00    +0.000 C 
ATOM     21  C   UNL     1       2.143   2.681   0.000  0.00  0.00    +0.000 C 
ENDBRANCH  13  16
ENDBRANCH  12  13
ENDBRANCH  11  12
ENDBRANCH  10  11
ENDBRANCH   3  10
BRANCH   4  22
ATOM     22  C   UNL     1      -2.143  -1.444   0.000  0.00  0.00    +0.000 C 
BRANCH  22  25
ATOM     23  F   UNL     1      -3.270  -1.746   0.000  0.00  0.00    +0.000 F 
ATOM     24  F   UNL     1      -2.445  -0.317   0.000  0.00  0.00    +0.000 F 
ATOM     25  C   UNL     1      -2.858  -1.031   0.000  0.00  0.00    +0.000 C 
BRANCH  25  27
ATOM     26  N   UNL     1      -4.287  -1.031   0.000  0.00  0.00    +0.000 NA
ATOM     27  C   UNL     1      -3.572  -0.619   0.000  0.00  0.00    +0.000 A 
ATOM     28  C   UNL     1      -3.572   0.206   0.000  0.00  0.00    +0.000 A 
ATOM     29  C   UNL     1      -4.287   0.619   0.000  0.00  0.00    +0.000 A 
ATOM     30  C   UNL     1      -5.001  -0.619   0.000  0.00  0.00    +0.000 A 
ATOM     31  C   UNL     1      -5.001   0.206   0.000  0.00  0.00    +0.000 A 
ENDBRANCH  25  27
ENDBRANCH  22  25
ENDBRANCH   4  22
TORSDOF 8
