REMARK  Name = 
REMARK  4 active torsions:
REMARK  status: ('A' for Active; 'I' for Inactive)
REMARK    1  A    between atoms: C_6  and  C_7
REMARK    2  A    between atoms: C_11  and  N_14
REMARK    3  A    between atoms: N_14  and  C_15
REMARK    4  A    between atoms: N_14  and  C_19
REMARK                            x       y       z     vdW  Elec       q    Type
REMARK                         _______ _______ _______ _____ _____    ______ ____
ROOT
ATOM      1  C   UNL     1      -0.715  -0.412   0.000  0.00  0.00    +0.000 A 
ATOM      2  C   UNL     1      -0.715  -1.238   0.000  0.00  0.00    +0.000 A 
ATOM      3  C   UNL     1       0.000  -1.650   0.000  0.00  0.00    +0.000 A 
ATOM      4  C   UNL     1       0.715  -1.238   0.000  0.00  0.00    +0.000 A 
ATOM      5  C   UNL     1       0.715  -0.412   0.000  0.00  0.00    +0.000 A 
ATOM      6  C   UNL     1       0.000   0.000   0.000  0.00  0.00    +0.000 A 
ATOM      7  C   UNL     1       1.429   0.000   0.000  0.00  0.00    +0.000 C 
ATOM      8  C   UNL     1       2.143  -0.412   0.000  0.00  0.00    +0.000 C 
ATOM      9  C   UNL     1       2.143  -1.238   0.000  0.00  0.00    +0.000 C 
ATOM     10  O   UNL     1       1.429  -1.650   0.000  0.00  0.00    +0.000 OA
ATOM     11  F   UNL     1       0.000  -2.475   0.000  0.00  0.00    +0.000 F 
ENDROOT
BRANCH   6  12
ATOM     12  C   UNL     1       0.000   0.825   0.000  0.00  0.00    +0.000 C 
ATOM     13  O   UNL     1      -0.715   1.238   0.000  0.00  0.00    +0.000 OA
ATOM     14  N   UNL     1       0.715   1.238   0.000  0.00  0.00    +0.000 NA
ENDBRANCH   6  12
BRANCH   8  15
ATOM     15  N   UNL     1       2.858   0.000   0.000  0.00  0.00    +0.000 NA
BRANCH  15  16
ATOM     16  C   UNL     1       3.572  -0.412   0.000  0.00  0.00    +0.000 C 
ATOM     17  C   UNL     1       4.369  -0.199   0.000  0.00  0.00    +0.000 C 
ATOM     18  C   UNL     1       4.583  -0.996   0.000  0.00  0.00    +0.000 C 
ATOM     19  C   UNL     1       3.786  -1.209   0.000  0.00  0.00    +0.000 C 
ENDBRANCH  15  16
BRANCH  15  20
ATOM     20  C   UNL     1       2.858   0.825   0.000  0.00  0.00    +0.000 C 
ATOM     21  C   UNL     1       2.275   1.408   0.000  0.00  0.00    +0.000 C 
ATOM     22  C   UNL     1       2.858   1.992   0.000  0.00  0.00    +0.000 C 
ATOM     23  C   UNL     1       3.441   1.408   0.000  0.00  0.00    +0.000 C 
ENDBRANCH  15  20
ENDBRANCH   8  15
TORSDOF 4
