REMARK  Name = 
REMARK  5 active torsions:
REMARK  status: ('A' for Active; 'I' for Inactive)
REMARK    1  A    between atoms: N_8  and  C_15
REMARK    2  A    between atoms: C_15  and  C_16
REMARK    3  A    between atoms: N_17  and  C_18
REMARK    4  A    between atoms: C_18  and  C_19
REMARK    5  A    between atoms: C_19  and  N_20
REMARK                            x       y       z     vdW  Elec       q    Type
REMARK                         _______ _______ _______ _____ _____    ______ ____
ROOT
ATOM      1  C   UNL     1      -1.398   1.060   0.000  0.00  0.00    +0.000 A 
ATOM      2  C   UNL     1      -0.577   0.972   0.000  0.00  0.00    +0.000 A 
ATOM      3  N   UNL     1       0.037   1.522   0.000  0.00  0.00    +0.000 NA
ATOM      4  C   UNL     1       0.821   1.266   0.000  0.00  0.00    +0.000 A 
ATOM      5  C   UNL     1       0.991   0.458   0.000  0.00  0.00    +0.000 A 
ATOM      6  N   UNL     1       0.376  -0.092   0.000  0.00  0.00    +0.000 NA
ATOM      7  C   UNL     1      -0.408   0.164   0.000  0.00  0.00    +0.000 A 
ATOM      8  N   UNL     1      -1.123  -0.246   0.000  0.00  0.00    +0.000 N 
ATOM      9  C   UNL     1      -1.735   0.307   0.000  0.00  0.00    +0.000 A 
ATOM     10  C   UNL     1      -2.556   0.222   0.000  0.00  0.00    +0.000 A 
ATOM     11  C   UNL     1      -3.039   0.891   0.000  0.00  0.00    +0.000 A 
ATOM     12  C   UNL     1      -2.702   1.644   0.000  0.00  0.00    +0.000 A 
ATOM     13  C   UNL     1      -1.881   1.728   0.000  0.00  0.00    +0.000 A 
ATOM     14 CL   UNL     1      -3.185   2.312   0.000  0.00  0.00    +0.000 Cl
ATOM     15  C   UNL     1       1.434   1.814   0.000  0.00  0.00    +0.000 A 
ATOM     16  C   UNL     1       2.218   1.558   0.000  0.00  0.00    +0.000 A 
ATOM     17  C   UNL     1       2.389   0.755   0.000  0.00  0.00    +0.000 A 
ATOM     18  C   UNL     1       1.778   0.201   0.000  0.00  0.00    +0.000 A 
ATOM     19  C   UNL     1       2.801   2.141   0.000  0.00  0.00    +0.000 C 
ATOM     20  C   UNL     1       3.185   0.541   0.000  0.00  0.00    +0.000 C 
ENDROOT
BRANCH   8  21
ATOM     21  C   UNL     1      -1.125  -1.071   0.000  0.00  0.00    +0.000 C 
BRANCH  21  22
ATOM     22  C   UNL     1      -0.411  -1.486   0.000  0.00  0.00    +0.000 C 
ATOM     23  N   UNL     1       0.304  -1.075   0.000  0.00  0.00    +0.000 NA
ATOM     24  O   UNL     1      -0.413  -2.311   0.000  0.00  0.00    +0.000 OA
BRANCH  23  25
ATOM     25  C   UNL     1       1.018  -1.487   0.000  0.00  0.00    +0.000 C 
BRANCH  25  26
ATOM     26  C   UNL     1       1.733  -1.075   0.000  0.00  0.00    +0.000 C 
BRANCH  26  27
ATOM     27  N   UNL     1       2.447  -1.487   0.000  0.00  0.00    +0.000 NA
ATOM     28  C   UNL     1       3.162  -1.075   0.000  0.00  0.00    +0.000 C 
ATOM     29  C   UNL     1       2.447  -2.312   0.000  0.00  0.00    +0.000 C 
ENDBRANCH  26  27
ENDBRANCH  25  26
ENDBRANCH  23  25
ENDBRANCH  21  22
ENDBRANCH   8  21
TORSDOF 5
