REMARK  Name = 
REMARK  4 active torsions:
REMARK  status: ('A' for Active; 'I' for Inactive)
REMARK    1  A    between atoms: C_8  and  O_13
REMARK    2  A    between atoms: C_9  and  O_14
REMARK    3  A    between atoms: C_23  and  C_24
REMARK    4  A    between atoms: C_24  and  C_26
REMARK                            x       y       z     vdW  Elec       q    Type
REMARK                         _______ _______ _______ _____ _____    ______ ____
ROOT
ATOM      1  C   UNL     1      -2.066   0.253   0.000  0.00  0.00    +0.000 A 
ATOM      2  C   UNL     1      -2.066   1.078   0.000  0.00  0.00    +0.000 A 
ATOM      3  N   UNL     1      -1.352  -0.159   0.000  0.00  0.00    +0.000 NA
ATOM      4  C   UNL     1      -2.781  -0.159   0.000  0.00  0.00    +0.000 A 
ATOM      5  C   UNL     1      -2.781   1.491   0.000  0.00  0.00    +0.000 A 
ATOM      6  C   UNL     1      -1.352   1.491   0.000  0.00  0.00    +0.000 A 
ATOM      7  C   UNL     1      -0.637   0.253   0.000  0.00  0.00    +0.000 A 
ATOM      8  C   UNL     1      -3.495   0.253   0.000  0.00  0.00    +0.000 A 
ATOM      9  C   UNL     1      -3.495   1.078   0.000  0.00  0.00    +0.000 A 
ATOM     10  N   UNL     1      -0.637   1.078   0.000  0.00  0.00    +0.000 NA
ATOM     11  N   UNL     1      -1.352   2.316   0.000  0.00  0.00    +0.000 NA
ATOM     12  N   UNL     1       0.077  -0.159   0.000  0.00  0.00    +0.000 N 
ATOM     13  C   UNL     1       0.759   0.305   0.000  0.00  0.00    +0.000 C 
ATOM     14  C   UNL     1       0.015  -0.982   0.000  0.00  0.00    +0.000 C 
ATOM     15  C   UNL     1       1.547   0.062   0.000  0.00  0.00    +0.000 C 
ATOM     16  C   UNL     1       0.620  -1.543   0.000  0.00  0.00    +0.000 C 
ATOM     17  N   UNL     1       1.848  -0.706   0.000  0.00  0.00    +0.000 N 
ATOM     18  C   UNL     1       1.436  -1.420   0.000  0.00  0.00    +0.000 C 
ATOM     19  C   UNL     1       2.671  -0.767   0.000  0.00  0.00    +0.000 C 
ATOM     20  O   UNL     1       3.136  -0.086   0.000  0.00  0.00    +0.000 OA
ENDROOT
BRANCH   8  21
ATOM     21  O   UNL     1      -4.210  -0.159   0.000  0.00  0.00    +0.000 OA
ATOM     22  C   UNL     1      -4.210  -0.984   0.000  0.00  0.00    +0.000 C 
ENDBRANCH   8  21
BRANCH   9  23
ATOM     23  O   UNL     1      -4.210   1.491   0.000  0.00  0.00    +0.000 OA
ATOM     24  C   UNL     1      -4.210   2.316   0.000  0.00  0.00    +0.000 C 
ENDBRANCH   9  23
BRANCH  19  25
ATOM     25  C   UNL     1       3.029  -1.511   0.000  0.00  0.00    +0.000 C 
BRANCH  25  26
ATOM     26  C   UNL     1       3.852  -1.572   0.000  0.00  0.00    +0.000 C 
ATOM     27  C   UNL     1       4.210  -2.316   0.000  0.00  0.00    +0.000 C 
ENDBRANCH  25  26
ENDBRANCH  19  25
TORSDOF 4
