REMARK  Name = 
REMARK  11 active torsions:
REMARK  status: ('A' for Active; 'I' for Inactive)
REMARK    1  A    between atoms: C_2  and  N_3
REMARK    2  A    between atoms: N_3  and  C_4
REMARK    3  A    between atoms: N_7  and  C_10
REMARK    4  A    between atoms: C_10  and  C_11
REMARK    5  A    between atoms: C_11  and  C_12
REMARK    6  A    between atoms: C_12  and  C_13
REMARK    7  A    between atoms: C_12  and  C_23
REMARK    8  A    between atoms: C_16  and  S_19
REMARK    9  A    between atoms: C_31  and  C_33
REMARK   10  A    between atoms: C_33  and  C_34
REMARK   11  A    between atoms: C_37  and  S_40
REMARK                            x       y       z     vdW  Elec       q    Type
REMARK                         _______ _______ _______ _____ _____    ______ ____
ROOT
ATOM      1  C   UNL     1       2.858  -2.475   0.000  0.00  0.00    +0.000 C 
ATOM      2  C   UNL     1       3.572  -2.888   0.000  0.00  0.00    +0.000 C 
ATOM      3  C   UNL     1       3.572  -3.712   0.000  0.00  0.00    +0.000 C 
ATOM      4  N   UNL     1       2.858  -4.125   0.000  0.00  0.00    +0.000 NA
ATOM      5  C   UNL     1       2.143  -3.712   0.000  0.00  0.00    +0.000 C 
ATOM      6  C   UNL     1       2.143  -2.888   0.000  0.00  0.00    +0.000 C 
ENDROOT
BRANCH   1   7
ATOM      7  N   UNL     1       2.858  -1.650   0.000  0.00  0.00    +0.000 N 
ATOM      8  C   UNL     1       3.572  -1.238   0.000  0.00  0.00    +0.000 C 
ATOM      9  O   UNL     1       4.287  -1.650   0.000  0.00  0.00    +0.000 OA
BRANCH   7  11
ATOM     10  C   UNL     1       2.143  -0.412   0.000  0.00  0.00    +0.000 C 
ATOM     11  C   UNL     1       2.143  -1.238   0.000  0.00  0.00    +0.000 C 
ENDBRANCH   7  11
BRANCH   8  12
ATOM     12  C   UNL     1       3.572  -0.412   0.000  0.00  0.00    +0.000 C 
BRANCH  12  13
ATOM     13  C   UNL     1       4.287   0.000   0.000  0.00  0.00    +0.000 A 
ATOM     14  C   UNL     1       4.287   0.825   0.000  0.00  0.00    +0.000 A 
ATOM     15  C   UNL     1       5.001   1.238   0.000  0.00  0.00    +0.000 A 
ATOM     16  C   UNL     1       5.716   0.825   0.000  0.00  0.00    +0.000 A 
ATOM     17  C   UNL     1       5.716   0.000   0.000  0.00  0.00    +0.000 A 
ATOM     18  C   UNL     1       5.001  -0.412   0.000  0.00  0.00    +0.000 A 
BRANCH  16  19
ATOM     19  S   UNL     1       6.430   1.238   0.000  0.00  0.00    +0.000 S 
ATOM     20  O   UNL     1       7.145   1.650   0.000  0.00  0.00    +0.000 OA
ATOM     21  O   UNL     1       6.843   0.523   0.000  0.00  0.00    +0.000 OA
ATOM     22  C   UNL     1       6.018   1.952   0.000  0.00  0.00    +0.000 C 
ENDBRANCH  16  19
ENDBRANCH  12  13
ENDBRANCH   8  12
ENDBRANCH   1   7
BRANCH   4  23
ATOM     23  C   UNL     1       2.858  -4.950   0.000  0.00  0.00    +0.000 C 
BRANCH  23  24
ATOM     24  C   UNL     1       2.143  -5.362   0.000  0.00  0.00    +0.000 C 
BRANCH  24  25
ATOM     25  C   UNL     1       2.143  -6.188   0.000  0.00  0.00    +0.000 C 
BRANCH  25  26
ATOM     26  C   UNL     1       2.858  -6.600   0.000  0.00  0.00    +0.000 A 
ATOM     27  C   UNL     1       3.572  -6.188   0.000  0.00  0.00    +0.000 A 
ATOM     28  C   UNL     1       4.287  -6.600   0.000  0.00  0.00    +0.000 A 
ATOM     29  C   UNL     1       4.287  -7.425   0.000  0.00  0.00    +0.000 A 
ATOM     30  C   UNL     1       3.572  -7.838   0.000  0.00  0.00    +0.000 A 
ATOM     31  C   UNL     1       2.858  -7.425   0.000  0.00  0.00    +0.000 A 
ATOM     32  F   UNL     1       3.572  -8.662   0.000  0.00  0.00    +0.000 F 
ATOM     33  F   UNL     1       5.001  -6.188   0.000  0.00  0.00    +0.000 F 
ENDBRANCH  25  26
BRANCH  25  34
ATOM     34  C   UNL     1       1.429  -6.600   0.000  0.00  0.00    +0.000 A 
ATOM     35  C   UNL     1       1.429  -7.425   0.000  0.00  0.00    +0.000 A 
ATOM     36  C   UNL     1       0.715  -7.838   0.000  0.00  0.00    +0.000 A 
ATOM     37  C   UNL     1       0.000  -7.425   0.000  0.00  0.00    +0.000 A 
ATOM     38  C   UNL     1       0.000  -6.600   0.000  0.00  0.00    +0.000 A 
ATOM     39  C   UNL     1       0.715  -6.188   0.000  0.00  0.00    +0.000 A 
BRANCH  37  40
ATOM     40  S   UNL     1      -0.715  -7.838   0.000  0.00  0.00    +0.000 S 
ATOM     41  O   UNL     1      -1.429  -8.250   0.000  0.00  0.00    +0.000 OA
ATOM     42  O   UNL     1      -0.302  -8.552   0.000  0.00  0.00    +0.000 OA
ATOM     43  C   UNL     1      -1.127  -7.123   0.000  0.00  0.00    +0.000 C 
ENDBRANCH  37  40
ENDBRANCH  25  34
ENDBRANCH  24  25
ENDBRANCH  23  24
ENDBRANCH   4  23
TORSDOF 11
