REMARK  Name = 
REMARK  7 active torsions:
REMARK  status: ('A' for Active; 'I' for Inactive)
REMARK    1  A    between atoms: C_2  and  C_28
REMARK    2  A    between atoms: C_3  and  N_23
REMARK    3  A    between atoms: C_4  and  C_11
REMARK    4  A    between atoms: N_13  and  C_14
REMARK    5  A    between atoms: C_14  and  C_15
REMARK    6  A    between atoms: C_14  and  C_17
REMARK    7  A    between atoms: N_23  and  S_24
REMARK                            x       y       z     vdW  Elec       q    Type
REMARK                         _______ _______ _______ _____ _____    ______ ____
ROOT
ATOM      1  N   UNL     1      -0.365   1.936   0.000  0.00  0.00    +0.000 NA
ATOM      2  C   UNL     1       0.350   1.524   0.000  0.00  0.00    +0.000 A 
ATOM      3  C   UNL     1       0.350   0.700   0.000  0.00  0.00    +0.000 A 
ATOM      4  C   UNL     1      -0.365   0.284   0.000  0.00  0.00    +0.000 A 
ATOM      5  C   UNL     1      -1.080   0.700   0.000  0.00  0.00    +0.000 A 
ATOM      6  C   UNL     1      -1.795   0.284   0.000  0.00  0.00    +0.000 A 
ATOM      7  C   UNL     1      -2.505   0.700   0.000  0.00  0.00    +0.000 A 
ATOM      8  C   UNL     1      -2.505   1.524   0.000  0.00  0.00    +0.000 A 
ATOM      9  C   UNL     1      -1.795   1.936   0.000  0.00  0.00    +0.000 A 
ATOM     10  C   UNL     1      -1.080   1.524   0.000  0.00  0.00    +0.000 A 
ENDROOT
BRANCH   2  11
ATOM     11  C   UNL     1       1.064   2.185   0.000  0.00  0.00    +0.000 A 
ATOM     12  C   UNL     1       1.064   3.010   0.000  0.00  0.00    +0.000 A 
ATOM     13  C   UNL     1       1.779   1.773   0.000  0.00  0.00    +0.000 A 
ATOM     14  C   UNL     1       1.778   3.423   0.000  0.00  0.00    +0.000 A 
ATOM     15  C   UNL     1       2.493   2.186   0.000  0.00  0.00    +0.000 A 
ATOM     16  C   UNL     1       2.493   3.011   0.000  0.00  0.00    +0.000 A 
ENDBRANCH   2  11
BRANCH   4  17
ATOM     17  C   UNL     1      -0.365  -0.540   0.000  0.00  0.00    +0.000 C 
ATOM     18  O   UNL     1      -1.080  -0.952   0.000  0.00  0.00    +0.000 OA
ATOM     19  N   UNL     1       0.350  -0.952   0.000  0.00  0.00    +0.000 NA
BRANCH  19  20
ATOM     20  C   UNL     1       0.350  -1.776   0.000  0.00  0.00    +0.000 C 
BRANCH  20  21
ATOM     21  C   UNL     1      -0.365  -2.188   0.000  0.00  0.00    +0.000 A 
ATOM     22  C   UNL     1      -0.365  -3.011   0.000  0.00  0.00    +0.000 A 
ATOM     23  C   UNL     1      -1.080  -3.423   0.000  0.00  0.00    +0.000 A 
ATOM     24  C   UNL     1      -1.795  -3.011   0.000  0.00  0.00    +0.000 A 
ATOM     25  C   UNL     1      -1.795  -2.188   0.000  0.00  0.00    +0.000 A 
ATOM     26  C   UNL     1      -1.080  -1.776   0.000  0.00  0.00    +0.000 A 
ENDBRANCH  20  21
BRANCH  20  27
ATOM     27  C   UNL     1       1.065  -2.188   0.000  0.00  0.00    +0.000 C 
ATOM     28  C   UNL     1       1.065  -3.011   0.000  0.00  0.00    +0.000 C 
ENDBRANCH  20  27
ENDBRANCH  19  20
ENDBRANCH   4  17
BRANCH   3  29
ATOM     29  N   UNL     1       1.065   0.284   0.000  0.00  0.00    +0.000 NA
BRANCH  29  30
ATOM     30  S   UNL     1       1.786   0.697   0.000  0.00  0.00    +0.000 S 
ATOM     31  C   UNL     1       2.505   0.278   0.000  0.00  0.00    +0.000 C 
ATOM     32  O   UNL     1       2.202   1.417   0.000  0.00  0.00    +0.000 OA
ATOM     33  O   UNL     1       1.371   1.417   0.000  0.00  0.00    +0.000 OA
ENDBRANCH  29  30
ENDBRANCH   3  29
TORSDOF 7
