REMARK  Name = 
REMARK  4 active torsions:
REMARK  status: ('A' for Active; 'I' for Inactive)
REMARK    1  A    between atoms: C_2  and  C_10
REMARK    2  A    between atoms: C_3  and  C_4
REMARK    3  A    between atoms: N_15  and  C_16
REMARK    4  A    between atoms: C_16  and  C_17
REMARK                            x       y       z     vdW  Elec       q    Type
REMARK                         _______ _______ _______ _____ _____    ______ ____
ROOT
ATOM      1  C   UNL     1       2.751  -1.712   0.000  0.00  0.00    +0.000 C 
ATOM      2  C   UNL     1       2.751  -2.537   0.000  0.00  0.00    +0.000 C 
ATOM      3  S   UNL     1       3.419  -3.022   0.000  0.00  0.00    +0.000 S 
ATOM      4  C   UNL     1       3.164  -3.806   0.000  0.00  0.00    +0.000 C 
ATOM      5  S   UNL     1       3.649  -4.474   0.000  0.00  0.00    +0.000 S 
ATOM      6  N   UNL     1       2.339  -3.806   0.000  0.00  0.00    +0.000 N 
ATOM      7  C   UNL     1       2.084  -3.022   0.000  0.00  0.00    +0.000 C 
ATOM      8  O   UNL     1       1.299  -2.767   0.000  0.00  0.00    +0.000 OA
ENDROOT
BRANCH   1  10
ATOM      9  C   UNL     1       4.180  -1.712   0.000  0.00  0.00    +0.000 C 
ATOM     10  C   UNL     1       3.466  -1.299   0.000  0.00  0.00    +0.000 C 
ATOM     11  C   UNL     1       3.466  -0.474   0.000  0.00  0.00    +0.000 C 
BRANCH  11  12
ATOM     12  C   UNL     1       4.180  -0.062   0.000  0.00  0.00    +0.000 A 
ATOM     13  C   UNL     1       4.180   0.763   0.000  0.00  0.00    +0.000 A 
ATOM     14  C   UNL     1       4.895   1.176   0.000  0.00  0.00    +0.000 A 
ATOM     15  C   UNL     1       5.609   0.763   0.000  0.00  0.00    +0.000 A 
ATOM     16  C   UNL     1       5.609  -0.062   0.000  0.00  0.00    +0.000 A 
ATOM     17  C   UNL     1       4.895  -0.474   0.000  0.00  0.00    +0.000 A 
ENDBRANCH  11  12
ENDBRANCH   1  10
BRANCH   6  18
ATOM     18  C   UNL     1       1.854  -4.474   0.000  0.00  0.00    +0.000 C 
BRANCH  18  19
ATOM     19  C   UNL     1       1.033  -4.387   0.000  0.00  0.00    +0.000 C 
ATOM     20  O   UNL     1       0.548  -5.055   0.000  0.00  0.00    +0.000 OA
ATOM     21  O   UNL     1       0.698  -3.634   0.000  0.00  0.00    +0.000 OA
ENDBRANCH  18  19
ENDBRANCH   6  18
TORSDOF 4
