REMARK  Name = 
REMARK  1 active torsions:
REMARK  status: ('A' for Active; 'I' for Inactive)
REMARK    1  A    between atoms: C_1  and  C_7
REMARK                            x       y       z     vdW  Elec       q    Type
REMARK                         _______ _______ _______ _____ _____    ______ ____
ROOT
ATOM      1  C   UNL     1      -0.005   0.000   0.000  0.00  0.00    +0.000 A 
ATOM      2  C   UNL     1      -0.005  -0.825   0.000  0.00  0.00    +0.000 A 
ATOM      3  C   UNL     1      -0.720   0.412   0.000  0.00  0.00    +0.000 A 
ATOM      4  C   UNL     1      -0.720  -1.238   0.000  0.00  0.00    +0.000 A 
ATOM      5  C   UNL     1      -1.434   0.000   0.000  0.00  0.00    +0.000 A 
ATOM      6  C   UNL     1      -1.434  -0.825   0.000  0.00  0.00    +0.000 A 
ATOM      7  S   UNL     1      -0.720   1.238   0.000  0.00  0.00    +0.000 S 
ENDROOT
BRANCH   1   8
ATOM      8  C   UNL     1       0.709   0.412   0.000  0.00  0.00    +0.000 C 
ATOM      9  O   UNL     1       0.709   1.238   0.000  0.00  0.00    +0.000 OA
ATOM     10  O   UNL     1       1.434   0.021   0.000  0.00  0.00    +0.000 OA
ENDBRANCH   1   8
TORSDOF 1
