REMARK  Name = 
REMARK  9 active torsions:
REMARK  status: ('A' for Active; 'I' for Inactive)
REMARK    1  A    between atoms: C_3  and  N_25
REMARK    2  A    between atoms: C_11  and  C_14
REMARK    3  A    between atoms: N_25  and  C_26
REMARK    4  A    between atoms: C_26  and  C_27
REMARK    5  A    between atoms: C_27  and  C_28
REMARK    6  A    between atoms: C_27  and  N_31
REMARK    7  A    between atoms: N_31  and  S_32
REMARK    8  A    between atoms: S_32  and  C_35
REMARK    9  A    between atoms: C_38  and  O_41
REMARK                            x       y       z     vdW  Elec       q    Type
REMARK                         _______ _______ _______ _____ _____    ______ ____
ROOT
ATOM      1  C   UNL     1      -4.287   0.000   0.000  0.00  0.00    +0.000 C 
ATOM      2  C   UNL     1      -4.287   0.825   0.000  0.00  0.00    +0.000 A 
ATOM      3  C   UNL     1      -5.001   1.238   0.000  0.00  0.00    +0.000 A 
ATOM      4  N   UNL     1      -5.001   2.062   0.000  0.00  0.00    +0.000 NA
ATOM      5  C   UNL     1      -4.287   2.475   0.000  0.00  0.00    +0.000 A 
ATOM      6  N   UNL     1      -3.572   2.062   0.000  0.00  0.00    +0.000 NA
ATOM      7  C   UNL     1      -3.572   1.238   0.000  0.00  0.00    +0.000 A 
ATOM      8  N   UNL     1      -2.858   0.825   0.000  0.00  0.00    +0.000 N 
ATOM      9  C   UNL     1      -2.143   1.238   0.000  0.00  0.00    +0.000 C 
ATOM     10  C   UNL     1      -1.429   0.825   0.000  0.00  0.00    +0.000 C 
ATOM     11  C   UNL     1      -1.429   0.000   0.000  0.00  0.00    +0.000 C 
ATOM     12  C   UNL     1      -2.143  -0.412   0.000  0.00  0.00    +0.000 C 
ATOM     13  C   UNL     1      -2.858   0.000   0.000  0.00  0.00    +0.000 C 
ATOM     14  C   UNL     1      -4.287   3.300   0.000  0.00  0.00    +0.000 C 
ENDROOT
BRANCH  11  15
ATOM     15  C   UNL     1      -0.715  -0.412   0.000  0.00  0.00    +0.000 A 
ATOM     16  C   UNL     1      -0.715  -1.238   0.000  0.00  0.00    +0.000 A 
ATOM     17  C   UNL     1       0.000  -1.650   0.000  0.00  0.00    +0.000 A 
ATOM     18  C   UNL     1       0.715  -1.238   0.000  0.00  0.00    +0.000 A 
ATOM     19  C   UNL     1       0.715  -0.412   0.000  0.00  0.00    +0.000 A 
ATOM     20  N   UNL     1       0.000   0.000   0.000  0.00  0.00    +0.000 NA
ATOM     21  N   UNL     1       1.429   0.000   0.000  0.00  0.00    +0.000 NA
ATOM     22  C   UNL     1       2.143  -0.412   0.000  0.00  0.00    +0.000 C 
ATOM     23  C   UNL     1       2.143  -1.238   0.000  0.00  0.00    +0.000 C 
ATOM     24  C   UNL     1       1.429  -1.650   0.000  0.00  0.00    +0.000 C 
ENDBRANCH  11  15
BRANCH   3  25
ATOM     25  N   UNL     1      -5.716   0.825   0.000  0.00  0.00    +0.000 NA
BRANCH  25  26
ATOM     26  C   UNL     1      -5.716   0.000   0.000  0.00  0.00    +0.000 C 
BRANCH  26  27
ATOM     27  C   UNL     1      -6.430  -0.412   0.000  0.00  0.00    +0.000 C 
BRANCH  27  28
ATOM     28  C   UNL     1      -7.145   0.000   0.000  0.00  0.00    +0.000 C 
ATOM     29  O   UNL     1      -7.859  -0.412   0.000  0.00  0.00    +0.000 OA
ATOM     30  O   UNL     1      -7.145   0.825   0.000  0.00  0.00    +0.000 OA
ENDBRANCH  27  28
BRANCH  27  31
ATOM     31  N   UNL     1      -6.430  -1.238   0.000  0.00  0.00    +0.000 NA
BRANCH  31  32
ATOM     32  S   UNL     1      -7.145  -1.650   0.000  0.00  0.00    +0.000 S 
ATOM     33  O   UNL     1      -7.557  -0.935   0.000  0.00  0.00    +0.000 OA
ATOM     34  O   UNL     1      -6.732  -2.365   0.000  0.00  0.00    +0.000 OA
BRANCH  32  35
ATOM     35  C   UNL     1      -7.859  -2.062   0.000  0.00  0.00    +0.000 A 
ATOM     36  C   UNL     1      -7.859  -2.888   0.000  0.00  0.00    +0.000 A 
ATOM     37  C   UNL     1      -8.574  -3.300   0.000  0.00  0.00    +0.000 A 
ATOM     38  C   UNL     1      -9.288  -2.888   0.000  0.00  0.00    +0.000 A 
ATOM     39  C   UNL     1      -9.288  -2.062   0.000  0.00  0.00    +0.000 A 
ATOM     40  C   UNL     1      -8.574  -1.650   0.000  0.00  0.00    +0.000 A 
BRANCH  38  41
ATOM     41  O   UNL     1     -10.003  -3.300   0.000  0.00  0.00    +0.000 OA
ATOM     42  C   UNL     1     -10.003  -4.125   0.000  0.00  0.00    +0.000 C 
ENDBRANCH  38  41
ENDBRANCH  32  35
ENDBRANCH  31  32
ENDBRANCH  27  31
ENDBRANCH  26  27
ENDBRANCH  25  26
ENDBRANCH   3  25
TORSDOF 9
