REMARK  Name = 
REMARK  3 active torsions:
REMARK  status: ('A' for Active; 'I' for Inactive)
REMARK    1  A    between atoms: CB_5  and  CG_6
REMARK    2  A    between atoms: CB_5  and  CA_8
REMARK    3  A    between atoms: CA_8  and  C_9
REMARK                            x       y       z     vdW  Elec       q    Type
REMARK                         _______ _______ _______ _____ _____    ______ ____
ROOT
ATOM      1  CD1 TYR A   1       1.429   0.000   0.000  0.00  0.00    +0.000 A 
ATOM      2  CD2 TYR A   1       0.000   0.000   0.000  0.00  0.00    +0.000 A 
ATOM      3  CE1 TYR A   1       1.429   0.825   0.000  0.00  0.00    +0.000 A 
ATOM      4  CE2 TYR A   1       0.000   0.825   0.000  0.00  0.00    +0.000 A 
ATOM      5  CG  TYR A   1       0.715  -0.412   0.000  0.00  0.00    +0.000 A 
ATOM      6  CZ  TYR A   1       0.715   1.238   0.000  0.00  0.00    +0.000 A 
ATOM      7  OH  TYR A   1       0.715   2.062   0.000  0.00  0.00    +0.000 OA
ENDROOT
BRANCH   5   8
ATOM      8  CB  TYR A   1       0.715  -1.238   0.000  0.00  0.00    +0.000 C 
BRANCH   8   9
ATOM      9  CA  TYR A   1       1.429  -1.650   0.000  0.00  0.00    +0.000 C 
ATOM     10  N   TYR A   1       2.143  -1.238   0.000  0.00  0.00    +0.000 NA
BRANCH   9  11
ATOM     11  C   TYR A   1       1.429  -2.475   0.000  0.00  0.00    +0.000 C 
ATOM     12  O   TYR A   1       2.143  -2.888   0.000  0.00  0.00    +0.000 OA
ATOM     13  OXT TYR A   1       0.715  -2.888   0.000  0.00  0.00    +0.000 OA
ENDBRANCH   9  11
ENDBRANCH   8   9
ENDBRANCH   5   8
TORSDOF 3
