REMARK  Name = 
REMARK  4 active torsions:
REMARK  status: ('A' for Active; 'I' for Inactive)
REMARK    1  A    between atoms: N_4  and  C_16
REMARK    2  A    between atoms: C_7  and  C_9
REMARK    3  A    between atoms: C_10  and  B_18
REMARK    4  A    between atoms: C_13  and  C_16
REMARK                            x       y       z     vdW  Elec       q    Type
REMARK                         _______ _______ _______ _____ _____    ______ ____
ROOT
ATOM      1  C   UNL     1       0.487   0.560   0.000  0.00  0.00    +0.000 A 
ATOM      2  C   UNL     1       1.202   0.148   0.000  0.00  0.00    +0.000 A 
ATOM      3  C   UNL     1      -0.227   0.148   0.000  0.00  0.00    +0.000 A 
ATOM      4  C   UNL     1       0.487  -1.090   0.000  0.00  0.00    +0.000 A 
ATOM      5  C   UNL     1       1.202  -0.677   0.000  0.00  0.00    +0.000 A 
ATOM      6  C   UNL     1      -0.227  -0.677   0.000  0.00  0.00    +0.000 A 
ENDROOT
BRANCH   1  11
ATOM      7  O   UNL     1       1.155   1.870   0.000  0.00  0.00    +0.000 OA
ATOM      8  O   UNL     1      -0.180   1.870   0.000  0.00  0.00    +0.000 OA
ATOM      9  C   UNL     1       0.900   2.655   0.000  0.00  0.00    +0.000 C 
ATOM     10  C   UNL     1       0.075   2.655   0.000  0.00  0.00    +0.000 C 
ATOM     11  B   UNL     1       0.487   1.385   0.000  0.00  0.00    +0.000 B 
BRANCH   9  13
ATOM     12  O   UNL     1       1.049   4.076   0.000  0.00  0.00    +0.000 OA
ATOM     13  C   UNL     1       1.385   3.323   0.000  0.00  0.00    +0.000 C 
ENDBRANCH   9  13
ENDBRANCH   1  11
BRANCH   4  14
ATOM     14  C   UNL     1       0.487  -1.915   0.000  0.00  0.00    +0.000 C 
BRANCH  14  15
ATOM     15  N   UNL     1      -0.227  -2.327   0.000  0.00  0.00    +0.000 NA
ATOM     16  N   UNL     1      -0.942  -3.565   0.000  0.00  0.00    +0.000 N 
ATOM     17  N   UNL     1       0.487  -3.565   0.000  0.00  0.00    +0.000 N 
ATOM     18  C   UNL     1      -0.227  -3.152   0.000  0.00  0.00    +0.000 C 
ATOM     19  H   UNL     1      -0.942  -4.076   0.000  0.00  0.00    +0.000 HD
ATOM     20  H   UNL     1      -1.385  -3.309   0.000  0.00  0.00    +0.000 HD
ATOM     21  H   UNL     1       0.487  -4.076   0.000  0.00  0.00    +0.000 HD
ATOM     22  H   UNL     1       0.930  -3.309   0.000  0.00  0.00    +0.000 HD
ENDBRANCH  14  15
ENDBRANCH   4  14
TORSDOF 4
