REMARK  Name = 
REMARK  5 active torsions:
REMARK  status: ('A' for Active; 'I' for Inactive)
REMARK    1  A    between atoms: C_3  and  C_24
REMARK    2  A    between atoms: C_5  and  N_7
REMARK    3  A    between atoms: C_9  and  C_18
REMARK    4  A    between atoms: N_20  and  C_21
REMARK    5  A    between atoms: C_25  and  C_26
REMARK                            x       y       z     vdW  Elec       q    Type
REMARK                         _______ _______ _______ _____ _____    ______ ____
ROOT
ATOM      1  N   UNL     1       0.000   0.000   0.000  0.00  0.00    +0.000 N 
ATOM      2  C   UNL     1      -0.715  -0.412   0.000  0.00  0.00    +0.000 A 
ATOM      3  C   UNL     1      -0.715  -1.238   0.000  0.00  0.00    +0.000 A 
ATOM      4  C   UNL     1       0.000  -1.650   0.000  0.00  0.00    +0.000 A 
ATOM      5  O   UNL     1       0.000  -2.475   0.000  0.00  0.00    +0.000 OA
ATOM      6  C   UNL     1       0.715  -1.238   0.000  0.00  0.00    +0.000 A 
ATOM      7  C   UNL     1       0.715  -0.412   0.000  0.00  0.00    +0.000 A 
ATOM      8  N   UNL     1       1.429   0.000   0.000  0.00  0.00    +0.000 NA
ATOM      9  C   UNL     1       2.143  -0.412   0.000  0.00  0.00    +0.000 A 
ATOM     10  C   UNL     1       2.143  -1.238   0.000  0.00  0.00    +0.000 A 
ATOM     11  C   UNL     1       1.429  -1.650   0.000  0.00  0.00    +0.000 A 
ENDROOT
BRANCH   1  16
ATOM     12  C   UNL     1      -0.715   2.062   0.000  0.00  0.00    +0.000 A 
ATOM     13  C   UNL     1       0.000   2.475   0.000  0.00  0.00    +0.000 A 
ATOM     14  C   UNL     1       0.715   2.062   0.000  0.00  0.00    +0.000 A 
ATOM     15  C   UNL     1       0.715   1.238   0.000  0.00  0.00    +0.000 A 
ATOM     16  C   UNL     1       0.000   0.825   0.000  0.00  0.00    +0.000 A 
ATOM     17  C   UNL     1      -0.715   1.238   0.000  0.00  0.00    +0.000 A 
BRANCH  14  18
ATOM     18  C   UNL     1       1.429   2.475   0.000  0.00  0.00    +0.000 C 
ATOM     19  C   UNL     1       2.143   2.888   0.000  0.00  0.00    +0.000 C 
BRANCH  19  20
ATOM     20  C   UNL     1       2.858   3.300   0.000  0.00  0.00    +0.000 A 
ATOM     21  C   UNL     1       2.858   4.125   0.000  0.00  0.00    +0.000 A 
ATOM     22  C   UNL     1       3.572   4.537   0.000  0.00  0.00    +0.000 A 
ATOM     23  C   UNL     1       4.287   4.125   0.000  0.00  0.00    +0.000 A 
ATOM     24  N   UNL     1       4.287   3.300   0.000  0.00  0.00    +0.000 N 
ATOM     25  C   UNL     1       3.572   2.888   0.000  0.00  0.00    +0.000 A 
ATOM     26  O   UNL     1       5.001   2.888   0.000  0.00  0.00    +0.000 OA
ENDBRANCH  19  20
ENDBRANCH  14  18
ENDBRANCH   1  16
BRANCH   3  27
ATOM     27  C   UNL     1      -1.429  -1.650   0.000  0.00  0.00    +0.000 C 
ATOM     28  O   UNL     1      -2.143  -1.238   0.000  0.00  0.00    +0.000 OA
ATOM     29  N   UNL     1      -1.429  -2.475   0.000  0.00  0.00    +0.000 NA
BRANCH  29  30
ATOM     30  C   UNL     1      -2.143  -2.888   0.000  0.00  0.00    +0.000 C 
ATOM     31  C   UNL     1      -2.556  -3.602   0.000  0.00  0.00    +0.000 C 
ATOM     32  C   UNL     1      -2.968  -2.888   0.000  0.00  0.00    +0.000 C 
ENDBRANCH  29  30
ENDBRANCH   3  27
TORSDOF 5
