REMARK  Name = 
REMARK  14 active torsions:
REMARK  status: ('A' for Active; 'I' for Inactive)
REMARK    1  A    between atoms: C_8  and  C_24
REMARK    2  A    between atoms: C_24  and  C_25
REMARK    3  A    between atoms: C_25  and  C_26
REMARK    4  A    between atoms: C_26  and  C_27
REMARK    5  A    between atoms: C_27  and  C_28
REMARK    6  A    between atoms: C_28  and  C_29
REMARK    7  A    between atoms: C_29  and  C_30
REMARK    8  A    between atoms: C_30  and  C_31
REMARK    9  A    between atoms: C_31  and  C_32
REMARK   10  A    between atoms: C_32  and  C_33
REMARK   11  A    between atoms: C_33  and  C_34
REMARK   12  A    between atoms: N_36  and  C_37
REMARK   13  A    between atoms: C_37  and  C_39
REMARK   14  A    between atoms: C_39  and  C_40
REMARK                            x       y       z     vdW  Elec       q    Type
REMARK                         _______ _______ _______ _____ _____    ______ ____
ROOT
ATOM      1  C   UNL     1      -6.776  -0.131   0.000  0.00  0.00    +0.000 A 
ATOM      2  C   UNL     1      -6.777  -0.959   0.000  0.00  0.00    +0.000 A 
ATOM      3  C   UNL     1      -6.062  -1.372   0.000  0.00  0.00    +0.000 A 
ATOM      4  C   UNL     1      -6.064   0.281   0.000  0.00  0.00    +0.000 A 
ATOM      5  C   UNL     1      -5.349  -0.128   0.000  0.00  0.00    +0.000 A 
ATOM      6  C   UNL     1      -5.350  -0.956   0.000  0.00  0.00    +0.000 A 
ATOM      7  C   UNL     1      -4.637  -1.369   0.000  0.00  0.00    +0.000 C 
ATOM      8  C   UNL     1      -3.918  -0.958   0.000  0.00  0.00    +0.000 C 
ATOM      9  C   UNL     1      -4.634   0.288   0.000  0.00  0.00    +0.000 C 
ATOM     10  C   UNL     1      -3.921  -0.131   0.000  0.00  0.00    +0.000 C 
ATOM     11  C   UNL     1      -3.910   1.521   0.000  0.00  0.00    +0.000 C 
ATOM     12  C   UNL     1      -4.632   1.113   0.000  0.00  0.00    +0.000 C 
ATOM     13  C   UNL     1      -3.196   1.101   0.000  0.00  0.00    +0.000 C 
ATOM     14  C   UNL     1      -3.208   0.276   0.000  0.00  0.00    +0.000 C 
ATOM     15  C   UNL     1      -2.426   0.011   0.000  0.00  0.00    +0.000 C 
ATOM     16  C   UNL     1      -1.933   0.672   0.000  0.00  0.00    +0.000 C 
ATOM     17  C   UNL     1      -2.408   1.346   0.000  0.00  0.00    +0.000 C 
ATOM     18  O   UNL     1      -7.492  -1.371   0.000  0.00  0.00    +0.000 OA
ATOM     19  C   UNL     1      -3.199   1.923   0.000  0.00  0.00    +0.000 C 
ATOM     20  O   UNL     1      -2.199   2.194   0.000  0.00  0.00    +0.000 OA
ENDROOT
BRANCH   8  21
ATOM     21  C   UNL     1      -3.207  -1.369   0.000  0.00  0.00    +0.000 C 
BRANCH  21  22
ATOM     22  C   UNL     1      -2.495  -0.957   0.000  0.00  0.00    +0.000 C 
BRANCH  22  23
ATOM     23  C   UNL     1      -1.782  -1.369   0.000  0.00  0.00    +0.000 C 
BRANCH  23  24
ATOM     24  C   UNL     1      -1.069  -0.957   0.000  0.00  0.00    +0.000 C 
BRANCH  24  25
ATOM     25  C   UNL     1      -0.357  -1.369   0.000  0.00  0.00    +0.000 C 
BRANCH  25  26
ATOM     26  C   UNL     1       0.356  -0.957   0.000  0.00  0.00    +0.000 C 
BRANCH  26  27
ATOM     27  C   UNL     1       1.068  -1.369   0.000  0.00  0.00    +0.000 C 
BRANCH  27  28
ATOM     28  C   UNL     1       1.781  -0.957   0.000  0.00  0.00    +0.000 C 
BRANCH  28  29
ATOM     29  C   UNL     1       2.494  -1.369   0.000  0.00  0.00    +0.000 C 
BRANCH  29  30
ATOM     30  C   UNL     1       3.206  -0.957   0.000  0.00  0.00    +0.000 C 
BRANCH  30  31
ATOM     31  C   UNL     1       3.919  -1.369   0.000  0.00  0.00    +0.000 C 
ATOM     32  O   UNL     1       3.918  -2.194   0.000  0.00  0.00    +0.000 OA
ATOM     33  N   UNL     1       4.634  -0.957   0.000  0.00  0.00    +0.000 N 
ATOM     34  C   UNL     1       4.635  -0.132   0.000  0.00  0.00    +0.000 C 
BRANCH  33  35
ATOM     35  C   UNL     1       5.348  -1.371   0.000  0.00  0.00    +0.000 C 
BRANCH  35  36
ATOM     36  C   UNL     1       6.063  -0.959   0.000  0.00  0.00    +0.000 C 
BRANCH  36  37
ATOM     37  C   UNL     1       6.777  -1.373   0.000  0.00  0.00    +0.000 C 
ATOM     38  C   UNL     1       7.492  -0.961   0.000  0.00  0.00    +0.000 C 
ENDBRANCH  36  37
ENDBRANCH  35  36
ENDBRANCH  33  35
ENDBRANCH  30  31
ENDBRANCH  29  30
ENDBRANCH  28  29
ENDBRANCH  27  28
ENDBRANCH  26  27
ENDBRANCH  25  26
ENDBRANCH  24  25
ENDBRANCH  23  24
ENDBRANCH  22  23
ENDBRANCH  21  22
ENDBRANCH   8  21
TORSDOF 14
