REMARK  Name = 
REMARK  2 active torsions:
REMARK  status: ('A' for Active; 'I' for Inactive)
REMARK    1  A    between atoms: C_2  and  N_7
REMARK    2  A    between atoms: C_11  and  C_15
REMARK                            x       y       z     vdW  Elec       q    Type
REMARK                         _______ _______ _______ _____ _____    ______ ____
ROOT
ATOM      1  N   UNL     1       1.367  -0.034   0.000  0.00  0.00    +0.000 NA
ATOM      2  C   UNL     1       0.653   0.378   0.000  0.00  0.00    +0.000 A 
ATOM      3  N   UNL     1      -0.062  -0.034   0.000  0.00  0.00    +0.000 NA
ATOM      4  C   UNL     1      -0.776   0.378   0.000  0.00  0.00    +0.000 A 
ATOM      5  C   UNL     1      -0.776   1.203   0.000  0.00  0.00    +0.000 A 
ATOM      6  C   UNL     1      -0.062   1.616   0.000  0.00  0.00    +0.000 A 
ATOM      7  C   UNL     1       0.653   1.203   0.000  0.00  0.00    +0.000 A 
ATOM      8  F   UNL     1       1.367   1.616   0.000  0.00  0.00    +0.000 F 
ATOM      9  C   UNL     1      -0.233   2.423   0.000  0.00  0.00    +0.000 C 
ATOM     10  N   UNL     1      -1.054   2.509   0.000  0.00  0.00    +0.000 NA
ATOM     11  C   UNL     1      -1.389   1.755   0.000  0.00  0.00    +0.000 C 
ATOM     12  O   UNL     1      -2.196   1.584   0.000  0.00  0.00    +0.000 OA
ENDROOT
BRANCH   1  14
ATOM     13  C   UNL     1       0.653  -1.272   0.000  0.00  0.00    +0.000 C 
ATOM     14  C   UNL     1       1.367  -0.859   0.000  0.00  0.00    +0.000 C 
ATOM     15  C   UNL     1       2.082  -1.272   0.000  0.00  0.00    +0.000 C 
ATOM     16  C   UNL     1       2.082  -2.097   0.000  0.00  0.00    +0.000 C 
ATOM     17  C   UNL     1       1.367  -2.509   0.000  0.00  0.00    +0.000 C 
ATOM     18  C   UNL     1       0.653  -2.097   0.000  0.00  0.00    +0.000 C 
ATOM     19  N   UNL     1       2.796  -0.859   0.000  0.00  0.00    +0.000 NA
ENDBRANCH   1  14
BRANCH   4  20
ATOM     20  C   UNL     1      -1.490  -0.034   0.000  0.00  0.00    +0.000 A 
ATOM     21  C   UNL     1      -2.244   0.301   0.000  0.00  0.00    +0.000 A 
ATOM     22  N   UNL     1      -2.796  -0.312   0.000  0.00  0.00    +0.000 NA
ATOM     23  N   UNL     1      -2.384  -1.026   0.000  0.00  0.00    +0.000 N 
ATOM     24  C   UNL     1      -1.577  -0.855   0.000  0.00  0.00    +0.000 A 
ATOM     25  C   UNL     1      -2.719  -1.780   0.000  0.00  0.00    +0.000 C 
ENDBRANCH   4  20
TORSDOF 2
