REMARK  Name = 
REMARK  4 active torsions:
REMARK  status: ('A' for Active; 'I' for Inactive)
REMARK    1  A    between atoms: O_2  and  C_18
REMARK    2  A    between atoms: O_2  and  C_20
REMARK    3  A    between atoms: N_6  and  C_21
REMARK    4  A    between atoms: C_22  and  C_24
REMARK                            x       y       z     vdW  Elec       q    Type
REMARK                         _______ _______ _______ _____ _____    ______ ____
ROOT
ATOM      1  O   UNL     1       4.333  -1.628   0.000  0.00  0.00    +0.000 OA
ATOM      2  N   UNL     1       3.549  -1.371   0.000  0.00  0.00    +0.000 N 
ATOM      3  N   UNL     1       2.632  -0.103   0.000  0.00  0.00    +0.000 N 
ATOM      4  C   UNL     1       2.219  -1.373   0.000  0.00  0.00    +0.000 C 
ATOM      5  C   UNL     1       2.887  -0.888   0.000  0.00  0.00    +0.000 C 
ATOM      6  C   UNL     1       2.475  -2.152   0.000  0.00  0.00    +0.000 C 
ATOM      7  C   UNL     1       3.295  -2.151   0.000  0.00  0.00    +0.000 C 
ATOM      8  C   UNL     1       1.552  -0.888   0.000  0.00  0.00    +0.000 A 
ATOM      9  C   UNL     1       1.807  -0.103   0.000  0.00  0.00    +0.000 A 
ATOM     10  C   UNL     1       1.552  -1.857   0.000  0.00  0.00    +0.000 C 
ATOM     11  C   UNL     1       4.035  -0.705   0.000  0.00  0.00    +0.000 C 
ATOM     12  C   UNL     1       3.116   0.564   0.000  0.00  0.00    +0.000 C 
ATOM     13  C   UNL     1       0.714  -1.079   0.000  0.00  0.00    +0.000 A 
ATOM     14  C   UNL     1       1.242   0.544   0.000  0.00  0.00    +0.000 A 
ATOM     15  C   UNL     1       0.134  -0.445   0.000  0.00  0.00    +0.000 A 
ATOM     16  C   UNL     1       0.400   0.372   0.000  0.00  0.00    +0.000 A 
ENDROOT
BRANCH  15  17
ATOM     17  O   UNL     1      -0.672  -0.620   0.000  0.00  0.00    +0.000 OA
BRANCH  17  20
ATOM     18  O   UNL     1      -0.975   0.777   0.000  0.00  0.00    +0.000 OA
ATOM     19  N   UNL     1      -2.033  -0.183   0.000  0.00  0.00    +0.000 NA
ATOM     20  C   UNL     1      -1.227  -0.009   0.000  0.00  0.00    +0.000 C 
BRANCH  19  21
ATOM     21  C   UNL     1      -2.587   0.427   0.000  0.00  0.00    +0.000 A 
ATOM     22  C   UNL     1      -2.336   1.213   0.000  0.00  0.00    +0.000 A 
ATOM     23  C   UNL     1      -3.394   0.253   0.000  0.00  0.00    +0.000 A 
ATOM     24  C   UNL     1      -2.890   1.824   0.000  0.00  0.00    +0.000 A 
ATOM     25  C   UNL     1      -3.948   0.864   0.000  0.00  0.00    +0.000 A 
ATOM     26  C   UNL     1      -3.696   1.649   0.000  0.00  0.00    +0.000 A 
BRANCH  22  27
ATOM     27  C   UNL     1      -1.529   1.388   0.000  0.00  0.00    +0.000 C 
ATOM     28  C   UNL     1      -1.277   2.174   0.000  0.00  0.00    +0.000 C 
ENDBRANCH  22  27
ENDBRANCH  19  21
ENDBRANCH  17  20
ENDBRANCH  15  17
TORSDOF 4
