REMARK  Name = 
REMARK  2 active torsions:
REMARK  status: ('A' for Active; 'I' for Inactive)
REMARK    1  A    between atoms: N_4  and  C_7
REMARK    2  A    between atoms: N_9  and  C_13
REMARK                            x       y       z     vdW  Elec       q    Type
REMARK                         _______ _______ _______ _____ _____    ______ ____
ROOT
ATOM      1  C   UNL     1      -0.711  -0.821   0.000  0.00  0.00    +0.000 A 
ATOM      2  N   UNL     1       0.002  -1.231   0.000  0.00  0.00    +0.000 NA
ATOM      3  N   UNL     1      -0.711   0.016   0.000  0.00  0.00    +0.000 NA
ATOM      4  N   UNL     1      -1.440  -1.230   0.000  0.00  0.00    +0.000 NA
ATOM      5  C   UNL     1       0.721  -0.821   0.000  0.00  0.00    +0.000 A 
ATOM      6  C   UNL     1      -0.006   0.422   0.000  0.00  0.00    +0.000 A 
ATOM      7  N   UNL     1       0.717   0.005   0.000  0.00  0.00    +0.000 NA
ATOM      8  N   UNL     1       1.429  -1.241   0.000  0.00  0.00    +0.000 NA
ATOM      9 CL   UNL     1       0.004   1.241   0.000  0.00  0.00    +0.000 Cl
ENDROOT
BRANCH   4  10
ATOM     10  C   UNL     1      -2.149  -0.813   0.000  0.00  0.00    +0.000 C 
ATOM     11  C   UNL     1      -2.868  -1.226   0.000  0.00  0.00    +0.000 C 
ATOM     12  C   UNL     1      -2.153   0.010   0.000  0.00  0.00    +0.000 C 
ENDBRANCH   4  10
BRANCH   8  13
ATOM     13  C   UNL     1       2.148  -0.832   0.000  0.00  0.00    +0.000 C 
ATOM     14  C   UNL     1       2.868  -1.235   0.000  0.00  0.00    +0.000 C 
ENDBRANCH   8  13
TORSDOF 2
