REMARK  Name = 
REMARK  8 active torsions:
REMARK  status: ('A' for Active; 'I' for Inactive)
REMARK    1  A    between atoms: O_5  and  C_37
REMARK    2  A    between atoms: O_6  and  C_38
REMARK    3  A    between atoms: N_7  and  C_14
REMARK    4  A    between atoms: N_8  and  C_13
REMARK    5  A    between atoms: N_9  and  C_19
REMARK    6  A    between atoms: N_9  and  C_28
REMARK    7  A    between atoms: C_16  and  C_17
REMARK    8  A    between atoms: C_27  and  C_31
REMARK                            x       y       z     vdW  Elec       q    Type
REMARK                         _______ _______ _______ _____ _____    ______ ____
ROOT
ATOM      1  O   UNL     1      -1.869  -0.398   0.000  0.00  0.00    +0.000 OA
ATOM      2  O   UNL     1      -1.674  -2.523   0.000  0.00  0.00    +0.000 OA
ATOM      3  C   UNL     1      -0.875  -1.289   0.000  0.00  0.00    +0.000 C 
ATOM      4  C   UNL     1      -1.048  -0.482   0.000  0.00  0.00    +0.000 C 
ATOM      5  C   UNL     1      -1.589  -1.703   0.000  0.00  0.00    +0.000 C 
ATOM      6  C   UNL     1      -2.203  -1.152   0.000  0.00  0.00    +0.000 C 
ENDROOT
BRANCH   4   7
ATOM      7  N   UNL     1      -0.497   0.132   0.000  0.00  0.00    +0.000 N 
ATOM      8  N   UNL     1       0.653   0.796   0.000  0.00  0.00    +0.000 NA
ATOM      9  N   UNL     1      -1.384   1.346   0.000  0.00  0.00    +0.000 NA
ATOM     10  N   UNL     1      -0.670   2.583   0.000  0.00  0.00    +0.000 NA
ATOM     11  C   UNL     1      -0.670   0.933   0.000  0.00  0.00    +0.000 A 
ATOM     12  C   UNL     1       0.319   0.047   0.000  0.00  0.00    +0.000 A 
ATOM     13  C   UNL     1       0.045   1.346   0.000  0.00  0.00    +0.000 A 
ATOM     14  C   UNL     1       0.045   2.171   0.000  0.00  0.00    +0.000 A 
ATOM     15  C   UNL     1      -1.384   2.171   0.000  0.00  0.00    +0.000 A 
BRANCH  14  16
ATOM     16  N   UNL     1       0.759   2.583   0.000  0.00  0.00    +0.000 N 
ATOM     17  H   UNL     1       1.202   2.328   0.000  0.00  0.00    +0.000 HD
BRANCH  16  18
ATOM     18  C   UNL     1       0.759   3.408   0.000  0.00  0.00    +0.000 C 
ATOM     19  C   UNL     1       0.045   3.821   0.000  0.00  0.00    +0.000 C 
ATOM     20  C   UNL     1       0.045   4.646   0.000  0.00  0.00    +0.000 C 
ATOM     21  C   UNL     1       1.474   3.821   0.000  0.00  0.00    +0.000 A 
ATOM     22  C   UNL     1       0.759   5.058   0.000  0.00  0.00    +0.000 C 
ATOM     23  C   UNL     1       1.474   4.646   0.000  0.00  0.00    +0.000 A 
ATOM     24  C   UNL     1       2.211   3.380   0.000  0.00  0.00    +0.000 A 
ATOM     25  C   UNL     1       2.211   5.087   0.000  0.00  0.00    +0.000 A 
ATOM     26  C   UNL     1       2.959   3.804   0.000  0.00  0.00    +0.000 A 
ATOM     27  C   UNL     1       2.959   4.663   0.000  0.00  0.00    +0.000 A 
ENDBRANCH  16  18
ENDBRANCH  14  16
ENDBRANCH   4   7
BRANCH   3  29
ATOM     28  O   UNL     1      -0.700  -2.930   0.000  0.00  0.00    +0.000 OA
ATOM     29  N   UNL     1      -0.121  -1.623   0.000  0.00  0.00    +0.000 N 
ATOM     30  C   UNL     1      -0.033  -2.444   0.000  0.00  0.00    +0.000 C 
ATOM     31  H   UNL     1       0.292  -1.322   0.000  0.00  0.00    +0.000 HD
BRANCH  30  32
ATOM     32  C   UNL     1       0.721  -2.778   0.000  0.00  0.00    +0.000 A 
ATOM     33  C   UNL     1       1.388  -2.292   0.000  0.00  0.00    +0.000 A 
ATOM     34  C   UNL     1       0.809  -3.598   0.000  0.00  0.00    +0.000 A 
ATOM     35  C   UNL     1       1.563  -3.932   0.000  0.00  0.00    +0.000 A 
ATOM     36  C   UNL     1       2.142  -2.626   0.000  0.00  0.00    +0.000 A 
ATOM     37  C   UNL     1       2.229  -3.446   0.000  0.00  0.00    +0.000 A 
BRANCH  35  38
ATOM     38  O   UNL     1       1.651  -4.753   0.000  0.00  0.00    +0.000 OA
ATOM     39  C   UNL     1       2.405  -5.087   0.000  0.00  0.00    +0.000 C 
ENDBRANCH  35  38
BRANCH  36  40
ATOM     40  O   UNL     1       2.808  -2.140   0.000  0.00  0.00    +0.000 OA
ATOM     41  C   UNL     1       3.563  -2.474   0.000  0.00  0.00    +0.000 C 
ENDBRANCH  36  40
ENDBRANCH  30  32
ENDBRANCH   3  29
BRANCH   6  43
ATOM     42  O   UNL     1      -3.563  -0.713   0.000  0.00  0.00    +0.000 OA
ATOM     43  C   UNL     1      -3.010  -1.325   0.000  0.00  0.00    +0.000 C 
ENDBRANCH   6  43
TORSDOF 8
