REMARK  Name = 
REMARK  0 active torsions:
REMARK  status: ('A' for Active; 'I' for Inactive)
REMARK                            x       y       z     vdW  Elec       q    Type
REMARK                         _______ _______ _______ _____ _____    ______ ____
ROOT
ATOM      1  N   UNL     1       0.017   0.268   0.000  0.00  0.00    +0.000 N 
ATOM      2  C   UNL     1       0.815   0.065   0.000  0.00  0.00    +0.000 C 
ATOM      3  C   UNL     1       1.149  -0.704   0.000  0.00  0.00    +0.000 A 
ATOM      4  N   UNL     1       0.752  -1.415   0.000  0.00  0.00    +0.000 N 
ATOM      5  C   UNL     1      -0.636  -0.234   0.000  0.00  0.00    +0.000 A 
ATOM      6  C   UNL     1      -0.650  -1.067   0.000  0.00  0.00    +0.000 A 
ATOM      7  C   UNL     1      -0.012  -1.589   0.000  0.00  0.00    +0.000 C 
ATOM      8  C   UNL     1      -0.201   1.071   0.000  0.00  0.00    +0.000 C 
ATOM      9  C   UNL     1       1.405   0.651   0.000  0.00  0.00    +0.000 C 
ATOM     10  N   UNL     1       1.173   1.434   0.000  0.00  0.00    +0.000 NA
ATOM     11  C   UNL     1       1.337  -2.024   0.000  0.00  0.00    +0.000 A 
ATOM     12  C   UNL     1       1.971  -0.834   0.000  0.00  0.00    +0.000 A 
ATOM     13  C   UNL     1       2.073  -1.657   0.000  0.00  0.00    +0.000 A 
ATOM     14  C   UNL     1       0.365   1.652   0.000  0.00  0.00    +0.000 C 
ATOM     15  C   UNL     1      -1.366  -1.473   0.000  0.00  0.00    +0.000 A 
ATOM     16  C   UNL     1      -1.337   0.181   0.000  0.00  0.00    +0.000 A 
ATOM     17  C   UNL     1       1.739   2.024   0.000  0.00  0.00    +0.000 C 
ATOM     18  C   UNL     1      -2.073  -1.038   0.000  0.00  0.00    +0.000 A 
ATOM     19  C   UNL     1      -2.058  -0.220   0.000  0.00  0.00    +0.000 A 
ENDROOT
TORSDOF 0
