REMARK  Name = 
REMARK  2 active torsions:
REMARK  status: ('A' for Active; 'I' for Inactive)
REMARK    1  A    between atoms: N_2  and  C_5
REMARK    2  A    between atoms: N_4  and  C_7
REMARK                            x       y       z     vdW  Elec       q    Type
REMARK                         _______ _______ _______ _____ _____    ______ ____
ROOT
ATOM      1  C   UNL     1       0.000  -0.412   0.000  0.00  0.00    +0.000 C 
ATOM      2  N   UNL     1       0.715  -0.825   0.000  0.00  0.00    +0.000 NA
ATOM      3  N   UNL     1      -0.715  -0.825   0.000  0.00  0.00    +0.000 NA
ATOM      4  O   UNL     1       0.000   0.412   0.000  0.00  0.00    +0.000 OA
ENDROOT
BRANCH   2   6
ATOM      5  C   UNL     1       2.143   0.825   0.000  0.00  0.00    +0.000 A 
ATOM      6  C   UNL     1       1.429  -0.412   0.000  0.00  0.00    +0.000 A 
ATOM      7  C   UNL     1       2.858   0.412   0.000  0.00  0.00    +0.000 A 
ATOM      8  C   UNL     1       2.143  -0.825   0.000  0.00  0.00    +0.000 A 
ATOM      9  C   UNL     1       1.429   0.412   0.000  0.00  0.00    +0.000 A 
ATOM     10  C   UNL     1       2.858  -0.412   0.000  0.00  0.00    +0.000 A 
ENDBRANCH   2   6
BRANCH   3  11
ATOM     11  C   UNL     1      -1.429  -0.412   0.000  0.00  0.00    +0.000 A 
ATOM     12  C   UNL     1      -2.858   0.412   0.000  0.00  0.00    +0.000 A 
ATOM     13  C   UNL     1      -2.143  -0.825   0.000  0.00  0.00    +0.000 A 
ATOM     14  C   UNL     1      -2.143   0.825   0.000  0.00  0.00    +0.000 A 
ATOM     15  C   UNL     1      -1.429   0.412   0.000  0.00  0.00    +0.000 A 
ATOM     16  C   UNL     1      -2.858  -0.412   0.000  0.00  0.00    +0.000 A 
ENDBRANCH   3  11
TORSDOF 2
