REMARK  Name = 
REMARK  0 active torsions:
REMARK  status: ('A' for Active; 'I' for Inactive)
REMARK                            x       y       z     vdW  Elec       q    Type
REMARK                         _______ _______ _______ _____ _____    ______ ____
ROOT
ATOM      1 ZR   UNL     1       0.000   0.000   0.000  0.00  0.00    +0.000 Zr
ATOM      2  O   UNL     1      -0.825   0.000   0.000  0.00  0.00    +0.000 OA
ATOM      3 CL   UNL     1       0.825   0.000   0.000  0.00  0.00    +0.000 Cl
ENDROOT
TORSDOF 0
