REMARK  Name = 
REMARK  5 active torsions:
REMARK  status: ('A' for Active; 'I' for Inactive)
REMARK    1  A    between atoms: O_2  and  C_3
REMARK    2  A    between atoms: C_5  and  C_13
REMARK    3  A    between atoms: C_7  and  O_11
REMARK    4  A    between atoms: C_8  and  O_9
REMARK    5  A    between atoms: C_13  and  C_14
REMARK                            x       y       z     vdW  Elec       q    Type
REMARK                         _______ _______ _______ _____ _____    ______ ____
ROOT
ATOM      1  C   UNL     1       1.429   0.825   0.000  0.00  0.00    +0.000 C 
ENDROOT
BRANCH   1   2
ATOM      2  C   UNL     1       1.429   0.000   0.000  0.00  0.00    +0.000 C 
ATOM      3  C   UNL     1       2.143  -0.412   0.000  0.00  0.00    +0.000 A 
ATOM      4  C   UNL     1       2.858   0.000   0.000  0.00  0.00    +0.000 A 
ATOM      5  C   UNL     1       3.572  -0.412   0.000  0.00  0.00    +0.000 A 
ATOM      6  C   UNL     1       3.572  -1.238   0.000  0.00  0.00    +0.000 A 
ATOM      7  C   UNL     1       2.858  -1.650   0.000  0.00  0.00    +0.000 A 
ATOM      8  C   UNL     1       2.143  -1.238   0.000  0.00  0.00    +0.000 A 
ATOM      9  C   UNL     1       1.429  -1.650   0.000  0.00  0.00    +0.000 C 
ATOM     10  C   UNL     1       0.715  -1.238   0.000  0.00  0.00    +0.000 C 
ATOM     11  N   UNL     1       0.715  -0.412   0.000  0.00  0.00    +0.000 NA
ATOM     12  O   UNL     1       4.287  -1.650   0.000  0.00  0.00    +0.000 OA
ATOM     13  O   UNL     1       4.287   0.000   0.000  0.00  0.00    +0.000 OA
ENDBRANCH   1   2
BRANCH   1  16
ATOM     14  C   UNL     1       0.000   2.475   0.000  0.00  0.00    +0.000 A 
ATOM     15  C   UNL     1       0.715   2.062   0.000  0.00  0.00    +0.000 A 
ATOM     16  C   UNL     1       0.715   1.238   0.000  0.00  0.00    +0.000 A 
ATOM     17  C   UNL     1       0.000   0.825   0.000  0.00  0.00    +0.000 A 
ATOM     18  C   UNL     1      -0.715   1.238   0.000  0.00  0.00    +0.000 A 
ATOM     19  C   UNL     1      -0.715   2.062   0.000  0.00  0.00    +0.000 A 
BRANCH  14  21
ATOM     20  C   UNL     1      -0.715   3.712   0.000  0.00  0.00    +0.000 C 
ATOM     21  O   UNL     1       0.000   3.300   0.000  0.00  0.00    +0.000 OA
ENDBRANCH  14  21
BRANCH  19  22
ATOM     22  O   UNL     1      -1.429   2.475   0.000  0.00  0.00    +0.000 OA
ATOM     23  C   UNL     1      -2.143   2.062   0.000  0.00  0.00    +0.000 C 
ENDBRANCH  19  22
BRANCH  18  24
ATOM     24  O   UNL     1      -1.429   0.825   0.000  0.00  0.00    +0.000 OA
ATOM     25  C   UNL     1      -2.143   1.238   0.000  0.00  0.00    +0.000 C 
ENDBRANCH  18  24
ENDBRANCH   1  16
TORSDOF 5
