REMARK  Name = 
REMARK  9 active torsions:
REMARK  status: ('A' for Active; 'I' for Inactive)
REMARK    1  A    between atoms: CA_4  and  N_15
REMARK    2  A    between atoms: C_8  and  S_24
REMARK    3  A    between atoms: CA_9  and  C_22
REMARK    4  A    between atoms: C_17  and  C_27
REMARK    5  A    between atoms: N_18  and  CA_21
REMARK    6  A    between atoms: C_19  and  CA_21
REMARK    7  A    between atoms: N_20  and  C_42
REMARK    8  A    between atoms: CA_21  and  C_32
REMARK    9  A    between atoms: S_24  and  C_27
REMARK                            x       y       z     vdW  Elec       q    Type
REMARK                         _______ _______ _______ _____ _____    ______ ____
ROOT
ATOM      1  N   UNL     1      -0.427  -0.519   0.000  0.00  0.00    +0.000 NA
ATOM      2  C   UNL     1      -0.826   0.203   0.000  0.00  0.00    +0.000 C 
ATOM      3  O   UNL     1      -0.427   0.905   0.000  0.00  0.00    +0.000 OA
ENDROOT
BRANCH   1   6
ATOM      4  N   UNL     1       1.262  -1.337   0.000  0.00  0.00    +0.000 N 
ATOM      5  C   UNL     1       0.407  -1.337   0.000  0.00  0.00    +0.000 C 
ATOM      6  CA  UNL     1       0.407  -0.519   0.000  0.00  0.00    +0.000 C 
ATOM      7  C   UNL     1       1.262  -0.519   0.000  0.00  0.00    +0.000 C 
ATOM      8  CA  UNL     1       1.964  -1.760   0.000  0.00  0.00    +0.000 C 
ATOM      9  S   UNL     1       1.964  -0.096   0.000  0.00  0.00    +0.000 S 
ATOM     10  C   UNL     1       2.674  -1.337   0.000  0.00  0.00    +0.000 C 
ATOM     11  C   UNL     1       2.674  -0.519   0.000  0.00  0.00    +0.000 C 
ATOM     12  O   UNL     1      -0.166  -1.910   0.000  0.00  0.00    +0.000 OA
BRANCH   8  13
ATOM     13  C   UNL     1       1.964  -2.599   0.000  0.00  0.00    +0.000 C 
ATOM     14  O   UNL     1       2.674  -3.022   0.000  0.00  0.00    +0.000 OA
ATOM     15  OXT UNL     1       1.262  -3.022   0.000  0.00  0.00    +0.000 OA
ENDBRANCH   8  13
BRANCH  10  16
ATOM     16  C   UNL     1       3.396  -1.773   0.000  0.00  0.00    +0.000 C 
BRANCH  16  17
ATOM     17  S   UNL     1       3.396  -2.611   0.000  0.00  0.00    +0.000 S 
BRANCH  17  18
ATOM     18  C   UNL     1       4.143  -3.022   0.000  0.00  0.00    +0.000 A 
ATOM     19  N   UNL     1       4.804  -2.611   0.000  0.00  0.00    +0.000 N 
ATOM     20  N   UNL     1       4.330  -3.782   0.000  0.00  0.00    +0.000 NA
ATOM     21  N   UNL     1       5.202  -3.795   0.000  0.00  0.00    +0.000 NA
ATOM     22  N   UNL     1       5.385  -3.056   0.000  0.00  0.00    +0.000 NA
ATOM     23  C   UNL     1       4.804  -1.802   0.000  0.00  0.00    +0.000 C 
ENDBRANCH  17  18
ENDBRANCH  16  17
ENDBRANCH  10  16
ENDBRANCH   1   6
BRANCH   2  24
ATOM     24  CA  UNL     1      -1.661   0.203   0.000  0.00  0.00    +0.000 C 
BRANCH  24  29
ATOM     25  N   UNL     1      -3.280   1.636   0.000  0.00  0.00    +0.000 N 
ATOM     26  C   UNL     1      -2.894   2.333   0.000  0.00  0.00    +0.000 C 
ATOM     27  C   UNL     1      -2.894   0.905   0.000  0.00  0.00    +0.000 C 
ATOM     28  C   UNL     1      -3.280   3.056   0.000  0.00  0.00    +0.000 C 
ATOM     29  N   UNL     1      -2.059   0.905   0.000  0.00  0.00    +0.000 NA
ATOM     30  N   UNL     1      -4.143   3.056   0.000  0.00  0.00    +0.000 N 
ATOM     31  C   UNL     1      -4.143   1.636   0.000  0.00  0.00    +0.000 C 
ATOM     32  O   UNL     1      -2.047   2.333   0.000  0.00  0.00    +0.000 OA
ATOM     33  O   UNL     1      -3.280   0.203   0.000  0.00  0.00    +0.000 OA
ATOM     34  C   UNL     1      -4.538   2.333   0.000  0.00  0.00    +0.000 C 
ATOM     35  O   UNL     1      -2.881   3.795   0.000  0.00  0.00    +0.000 OA
BRANCH  30  36
ATOM     36  C   UNL     1      -4.550   3.770   0.000  0.00  0.00    +0.000 C 
ATOM     37  C   UNL     1      -5.385   3.770   0.000  0.00  0.00    +0.000 C 
ENDBRANCH  30  36
ENDBRANCH  24  29
BRANCH  24  38
ATOM     38  C   UNL     1      -2.059  -0.519   0.000  0.00  0.00    +0.000 A 
ATOM     39  C   UNL     1      -2.894  -0.519   0.000  0.00  0.00    +0.000 A 
ATOM     40  C   UNL     1      -1.661  -1.237   0.000  0.00  0.00    +0.000 A 
ATOM     41  C   UNL     1      -2.894  -1.927   0.000  0.00  0.00    +0.000 A 
ATOM     42  C   UNL     1      -3.280  -1.237   0.000  0.00  0.00    +0.000 A 
ATOM     43  C   UNL     1      -2.059  -1.927   0.000  0.00  0.00    +0.000 A 
ATOM     44  O   UNL     1      -3.317  -2.674   0.000  0.00  0.00    +0.000 OA
ENDBRANCH  24  38
ENDBRANCH   2  24
TORSDOF 9
