REMARK  Name = 
REMARK  11 active torsions:
REMARK  status: ('A' for Active; 'I' for Inactive)
REMARK    1  A    between atoms: C_2  and  O_3
REMARK    2  A    between atoms: O_3  and  C_4
REMARK    3  A    between atoms: C_4  and  C_5
REMARK    4  A    between atoms: C_7  and  O_35
REMARK    5  A    between atoms: C_8  and  C_13
REMARK    6  A    between atoms: C_9  and  O_11
REMARK    7  A    between atoms: C_16  and  C_19
REMARK    8  A    between atoms: C_19  and  CA_20
REMARK    9  A    between atoms: CA_20  and  C_21
REMARK   10  A    between atoms: CA_20  and  N_24
REMARK   11  A    between atoms: C_25  and  C_27
REMARK                            x       y       z     vdW  Elec       q    Type
REMARK                         _______ _______ _______ _____ _____    ______ ____
ROOT
ATOM      1  C   UNL     1      -1.429  -1.650   0.000  0.00  0.00    +0.000 A 
ATOM      2  C   UNL     1      -0.715  -1.238   0.000  0.00  0.00    +0.000 A 
ATOM      3  C   UNL     1       0.000  -1.650   0.000  0.00  0.00    +0.000 A 
ATOM      4  C   UNL     1       0.000  -2.475   0.000  0.00  0.00    +0.000 A 
ATOM      5  C   UNL     1      -0.715  -2.888   0.000  0.00  0.00    +0.000 A 
ATOM      6  C   UNL     1      -1.429  -2.475   0.000  0.00  0.00    +0.000 A 
ENDROOT
BRANCH   1  10
ATOM      7  C   UNL     1      -3.572  -0.412   0.000  0.00  0.00    +0.000 A 
ATOM      8  C   UNL     1      -2.858   0.000   0.000  0.00  0.00    +0.000 A 
ATOM      9  C   UNL     1      -2.143  -0.412   0.000  0.00  0.00    +0.000 A 
ATOM     10  C   UNL     1      -2.143  -1.238   0.000  0.00  0.00    +0.000 A 
ATOM     11  C   UNL     1      -2.858  -1.650   0.000  0.00  0.00    +0.000 A 
ATOM     12  C   UNL     1      -3.572  -1.238   0.000  0.00  0.00    +0.000 A 
BRANCH  11  13
ATOM     13  O   UNL     1      -2.858  -2.475   0.000  0.00  0.00    +0.000 OA
ATOM     14  C   UNL     1      -3.572  -2.888   0.000  0.00  0.00    +0.000 C 
ENDBRANCH  11  13
BRANCH   9  15
ATOM     15  O   UNL     1      -1.429   0.000   0.000  0.00  0.00    +0.000 OA
ATOM     16  C   UNL     1      -0.715  -0.412   0.000  0.00  0.00    +0.000 C 
ENDBRANCH   9  15
BRANCH   7  17
ATOM     17  C   UNL     1      -4.287   0.000   0.000  0.00  0.00    +0.000 C 
BRANCH  17  18
ATOM     18  O   UNL     1      -5.001  -0.412   0.000  0.00  0.00    +0.000 OA
BRANCH  18  20
ATOM     19  C   UNL     1      -6.430  -0.412   0.000  0.00  0.00    +0.000 C 
ATOM     20  C   UNL     1      -5.716   0.000   0.000  0.00  0.00    +0.000 C 
ENDBRANCH  18  20
ENDBRANCH  17  18
ENDBRANCH   7  17
ENDBRANCH   1  10
BRANCH   4  21
ATOM     21  C   UNL     1       0.715  -2.888   0.000  0.00  0.00    +0.000 C 
BRANCH  21  22
ATOM     22  CA  UNL     1       1.429  -2.475   0.000  0.00  0.00    +0.000 C 
BRANCH  22  23
ATOM     23  N   UNL     1       2.143  -2.888   0.000  0.00  0.00    +0.000 NA
ATOM     24  C   UNL     1       2.858  -2.475   0.000  0.00  0.00    +0.000 C 
ATOM     25  O   UNL     1       2.858  -1.650   0.000  0.00  0.00    +0.000 OA
BRANCH  24  26
ATOM     26  C   UNL     1       3.572  -2.888   0.000  0.00  0.00    +0.000 A 
ATOM     27  C   UNL     1       4.287  -2.475   0.000  0.00  0.00    +0.000 A 
ATOM     28  C   UNL     1       5.001  -2.888   0.000  0.00  0.00    +0.000 A 
ATOM     29  C   UNL     1       5.001  -3.712   0.000  0.00  0.00    +0.000 A 
ATOM     30  C   UNL     1       4.287  -4.125   0.000  0.00  0.00    +0.000 A 
ATOM     31  C   UNL     1       3.572  -3.712   0.000  0.00  0.00    +0.000 A 
ATOM     32  F   UNL     1       2.858  -4.125   0.000  0.00  0.00    +0.000 F 
ATOM     33  F   UNL     1       4.287  -1.650   0.000  0.00  0.00    +0.000 F 
ENDBRANCH  24  26
ENDBRANCH  22  23
BRANCH  22  34
ATOM     34  C   UNL     1       1.429  -1.650   0.000  0.00  0.00    +0.000 C 
ATOM     35  O   UNL     1       0.715  -1.238   0.000  0.00  0.00    +0.000 OA
ATOM     36  OXT UNL     1       2.143  -1.238   0.000  0.00  0.00    +0.000 OA
ENDBRANCH  22  34
ENDBRANCH  21  22
ENDBRANCH   4  21
TORSDOF 11
