REMARK  Name = 
REMARK  6 active torsions:
REMARK  status: ('A' for Active; 'I' for Inactive)
REMARK    1  A    between atoms: C_8  and  C_17
REMARK    2  A    between atoms: C_10  and  C_11
REMARK    3  A    between atoms: C_13  and  N_25
REMARK    4  A    between atoms: C_18  and  O_23
REMARK    5  A    between atoms: N_28  and  C_29
REMARK    6  A    between atoms: C_30  and  C_36
REMARK                            x       y       z     vdW  Elec       q    Type
REMARK                         _______ _______ _______ _____ _____    ______ ____
ROOT
ATOM      1  C   UNL     1      -0.482  -1.818   0.000  0.00  0.00    +0.000 A 
ATOM      2  C   UNL     1       0.756  -1.102   0.000  0.00  0.00    +0.000 A 
ATOM      3  C   UNL     1       0.346  -0.386   0.000  0.00  0.00    +0.000 A 
ATOM      4  C   UNL     1      -0.482  -0.386   0.000  0.00  0.00    +0.000 A 
ATOM      5  C   UNL     1      -0.893  -1.102   0.000  0.00  0.00    +0.000 A 
ATOM      6  C   UNL     1       0.346  -1.818   0.000  0.00  0.00    +0.000 A 
ENDROOT
BRANCH   1  16
ATOM      7  C   UNL     1      -2.389  -2.373   0.000  0.00  0.00    +0.000 A 
ATOM      8  C   UNL     1      -3.104  -3.611   0.000  0.00  0.00    +0.000 A 
ATOM      9  N   UNL     1      -3.104  -2.783   0.000  0.00  0.00    +0.000 NA
ATOM     10  N   UNL     1      -2.389  -4.021   0.000  0.00  0.00    +0.000 NA
ATOM     11  N   UNL     1      -2.389  -1.544   0.000  0.00  0.00    +0.000 NA
ATOM     12  C   UNL     1      -1.673  -2.783   0.000  0.00  0.00    +0.000 A 
ATOM     13  C   UNL     1      -1.673  -3.611   0.000  0.00  0.00    +0.000 A 
ATOM     14  C   UNL     1      -0.410  -3.193   0.000  0.00  0.00    +0.000 A 
ATOM     15  O   UNL     1      -0.893  -3.861   0.000  0.00  0.00    +0.000 OA
ATOM     16  C   UNL     1      -0.893  -2.525   0.000  0.00  0.00    +0.000 A 
BRANCH  14  17
ATOM     17  C   UNL     1       0.418  -3.193   0.000  0.00  0.00    +0.000 A 
ATOM     18  C   UNL     1       2.067  -3.193   0.000  0.00  0.00    +0.000 A 
ATOM     19  C   UNL     1       1.657  -2.485   0.000  0.00  0.00    +0.000 A 
ATOM     20  C   UNL     1       0.828  -2.485   0.000  0.00  0.00    +0.000 A 
ATOM     21  C   UNL     1       0.828  -3.909   0.000  0.00  0.00    +0.000 A 
ATOM     22  C   UNL     1       1.657  -3.909   0.000  0.00  0.00    +0.000 A 
BRANCH  18  23
ATOM     23  O   UNL     1       2.895  -3.193   0.000  0.00  0.00    +0.000 OA
ATOM     24  C   UNL     1       3.104  -3.997   0.000  0.00  0.00    +0.000 C 
ENDBRANCH  18  23
ENDBRANCH  14  17
ENDBRANCH   1  16
BRANCH   3  25
ATOM     25  N   UNL     1       0.756   0.330   0.000  0.00  0.00    +0.000 NA
ATOM     26  C   UNL     1       0.346   1.046   0.000  0.00  0.00    +0.000 C 
ATOM     27  O   UNL     1      -0.482   1.046   0.000  0.00  0.00    +0.000 OA
ATOM     28  N   UNL     1       0.756   1.753   0.000  0.00  0.00    +0.000 NA
BRANCH  28  29
ATOM     29  C   UNL     1       0.346   2.469   0.000  0.00  0.00    +0.000 A 
ATOM     30  C   UNL     1      -0.877   3.209   0.000  0.00  0.00    +0.000 A 
ATOM     31  C   UNL     1      -0.482   2.485   0.000  0.00  0.00    +0.000 A 
ATOM     32  C   UNL     1       0.772   3.177   0.000  0.00  0.00    +0.000 A 
ATOM     33  C   UNL     1       0.378   3.901   0.000  0.00  0.00    +0.000 A 
ATOM     34  C   UNL     1      -0.450   3.917   0.000  0.00  0.00    +0.000 A 
ATOM     35  F   UNL     1       1.600   3.161   0.000  0.00  0.00    +0.000 F 
BRANCH  30  36
ATOM     36  C   UNL     1      -1.705   3.225   0.000  0.00  0.00    +0.000 C 
ATOM     37  F   UNL     1      -1.480   4.021   0.000  0.00  0.00    +0.000 F 
ATOM     38  F   UNL     1      -1.922   2.429   0.000  0.00  0.00    +0.000 F 
ATOM     39  F   UNL     1      -2.413   3.635   0.000  0.00  0.00    +0.000 F 
ENDBRANCH  30  36
ENDBRANCH  28  29
ENDBRANCH   3  25
TORSDOF 6
