REMARK  Name = 
REMARK  5 active torsions:
REMARK  status: ('A' for Active; 'I' for Inactive)
REMARK    1  A    between atoms: C_2  and  O_3
REMARK    2  A    between atoms: O_3  and  C_4
REMARK    3  A    between atoms: C_7  and  C_10
REMARK    4  A    between atoms: C_11  and  C_19
REMARK    5  A    between atoms: C_22  and  S_25
REMARK                            x       y       z     vdW  Elec       q    Type
REMARK                         _______ _______ _______ _____ _____    ______ ____
ROOT
ATOM      1  C   UNL     1       0.654  -0.698   0.000  0.00  0.00    +0.000 A 
ATOM      2  C   UNL     1       1.139  -0.030   0.000  0.00  0.00    +0.000 A 
ATOM      3  C   UNL     1       1.923  -0.285   0.000  0.00  0.00    +0.000 A 
ATOM      4  C   UNL     1       2.638   0.127   0.000  0.00  0.00    +0.000 A 
ATOM      5  C   UNL     1       3.352  -0.285   0.000  0.00  0.00    +0.000 A 
ATOM      6  C   UNL     1       3.352  -1.110   0.000  0.00  0.00    +0.000 A 
ATOM      7  N   UNL     1       2.638  -1.523   0.000  0.00  0.00    +0.000 NA
ATOM      8  N   UNL     1       1.923  -1.110   0.000  0.00  0.00    +0.000 N 
ATOM      9  N   UNL     1       1.139  -1.365   0.000  0.00  0.00    +0.000 NA
ENDROOT
BRANCH   1  13
ATOM     10  C   UNL     1      -1.821  -0.698   0.000  0.00  0.00    +0.000 A 
ATOM     11  C   UNL     1      -1.409   0.017   0.000  0.00  0.00    +0.000 A 
ATOM     12  C   UNL     1      -0.584   0.017   0.000  0.00  0.00    +0.000 A 
ATOM     13  C   UNL     1      -0.171  -0.698   0.000  0.00  0.00    +0.000 A 
ATOM     14  C   UNL     1      -0.584  -1.412   0.000  0.00  0.00    +0.000 A 
ATOM     15  C   UNL     1      -1.409  -1.412   0.000  0.00  0.00    +0.000 A 
BRANCH  10  16
ATOM     16  O   UNL     1      -2.646  -0.698   0.000  0.00  0.00    +0.000 OA
BRANCH  16  18
ATOM     17  C   UNL     1      -3.884  -1.412   0.000  0.00  0.00    +0.000 C 
ATOM     18  C   UNL     1      -3.059  -1.412   0.000  0.00  0.00    +0.000 C 
ENDBRANCH  16  18
ENDBRANCH  10  16
ENDBRANCH   1  13
BRANCH   2  19
ATOM     19  C   UNL     1       0.884   0.754   0.000  0.00  0.00    +0.000 A 
ATOM     20  C   UNL     1       0.077   0.926   0.000  0.00  0.00    +0.000 A 
ATOM     21  C   UNL     1      -0.178   1.710   0.000  0.00  0.00    +0.000 A 
ATOM     22  C   UNL     1       0.374   2.323   0.000  0.00  0.00    +0.000 A 
ATOM     23  C   UNL     1       1.181   2.152   0.000  0.00  0.00    +0.000 A 
ATOM     24  C   UNL     1       1.436   1.367   0.000  0.00  0.00    +0.000 A 
BRANCH  22  25
ATOM     25  S   UNL     1       0.119   3.108   0.000  0.00  0.00    +0.000 S 
ATOM     26  O   UNL     1      -0.136   3.893   0.000  0.00  0.00    +0.000 OA
ATOM     27  O   UNL     1       0.904   3.363   0.000  0.00  0.00    +0.000 OA
ATOM     28  C   UNL     1      -0.666   2.853   0.000  0.00  0.00    +0.000 C 
ENDBRANCH  22  25
ENDBRANCH   2  19
TORSDOF 5
