REMARK  Name = 
REMARK  1 active torsions:
REMARK  status: ('A' for Active; 'I' for Inactive)
REMARK    1  A    between atoms: C_13  and  C_18
REMARK                            x       y       z     vdW  Elec       q    Type
REMARK                         _______ _______ _______ _____ _____    ______ ____
ROOT
ATOM      1  C   UNL     1      -2.235  -0.617   0.000  0.00  0.00    +0.000 C 
ATOM      2  C   UNL     1       2.235   0.265   0.000  0.00  0.00    +0.000 A 
ATOM      3  C   UNL     1       1.904  -0.491   0.000  0.00  0.00    +0.000 A 
ATOM      4  C   UNL     1       0.926   0.839   0.000  0.00  0.00    +0.000 A 
ATOM      5  C   UNL     1      -0.617  -1.320   0.000  0.00  0.00    +0.000 C 
ATOM      6  C   UNL     1      -1.460   0.633   0.000  0.00  0.00    +0.000 C 
ATOM      7  C   UNL     1      -1.529  -0.190   0.000  0.00  0.00    +0.000 C 
ATOM      8  C   UNL     1       1.746   0.930   0.000  0.00  0.00    +0.000 A 
ATOM      9  C   UNL     1       0.595   0.083   0.000  0.00  0.00    +0.000 A 
ATOM     10  C   UNL     1       1.084  -0.582   0.000  0.00  0.00    +0.000 A 
ATOM     11  C   UNL     1       0.112  -1.707   0.000  0.00  0.00    +0.000 C 
ATOM     12  C   UNL     1      -0.229   0.115   0.000  0.00  0.00    +0.000 C 
ATOM     13 CL   UNL     1       2.077   1.685   0.000  0.00  0.00    +0.000 Cl
ATOM     14  N   UNL     1       0.869  -1.378   0.000  0.00  0.00    +0.000 NA
ATOM     15  N   UNL     1      -0.769  -0.509   0.000  0.00  0.00    +0.000 NA
ATOM     16  O   UNL     1       0.080  -2.531   0.000  0.00  0.00    +0.000 OA
ATOM     17  O   UNL     1      -0.657   0.821   0.000  0.00  0.00    +0.000 OA
ENDROOT
BRANCH  12  22
ATOM     18  C   UNL     1      -0.480   2.284   0.000  0.00  0.00    +0.000 A 
ATOM     19  C   UNL     1       0.307   2.531   0.000  0.00  0.00    +0.000 A 
ATOM     20  C   UNL     1      -0.659   1.478   0.000  0.00  0.00    +0.000 A 
ATOM     21  C   UNL     1       0.915   1.974   0.000  0.00  0.00    +0.000 A 
ATOM     22  C   UNL     1      -0.051   0.921   0.000  0.00  0.00    +0.000 A 
ATOM     23  C   UNL     1       0.736   1.168   0.000  0.00  0.00    +0.000 A 
ATOM     24 CL   UNL     1       1.545   1.333   0.000  0.00  0.00    +0.000 Cl
ENDBRANCH  12  22
TORSDOF 1
