REMARK  Name = 
REMARK  6 active torsions:
REMARK  status: ('A' for Active; 'I' for Inactive)
REMARK    1  A    between atoms: C_7  and  C_8
REMARK    2  A    between atoms: C_8  and  O_9
REMARK    3  A    between atoms: O_9  and  C_10
REMARK    4  A    between atoms: C_10  and  C_12
REMARK    5  A    between atoms: C_12  and  C_13
REMARK    6  A    between atoms: C_12  and  C_19
REMARK                            x       y       z     vdW  Elec       q    Type
REMARK                         _______ _______ _______ _____ _____    ______ ____
ROOT
ATOM      1  C   UNL     1       1.459   3.793   0.000  0.00  0.00    +0.000 C 
ATOM      2  O   UNL     1       0.634   3.793   0.000  0.00  0.00    +0.000 OA
ENDROOT
BRANCH   1   3
ATOM      3  C   UNL     1       2.284   3.793   0.000  0.00  0.00    +0.000 A 
ATOM      4  C   UNL     1       2.696   4.508   0.000  0.00  0.00    +0.000 A 
ATOM      5  C   UNL     1       3.521   4.508   0.000  0.00  0.00    +0.000 A 
ATOM      6  C   UNL     1       3.934   3.793   0.000  0.00  0.00    +0.000 A 
ATOM      7  C   UNL     1       3.521   3.079   0.000  0.00  0.00    +0.000 A 
ATOM      8  C   UNL     1       2.696   3.079   0.000  0.00  0.00    +0.000 A 
ENDBRANCH   1   3
BRANCH   1   9
ATOM      9  C   UNL     1       1.459   4.618   0.000  0.00  0.00    +0.000 A 
ATOM     10  C   UNL     1       0.744   5.031   0.000  0.00  0.00    +0.000 A 
ATOM     11  C   UNL     1       0.744   5.856   0.000  0.00  0.00    +0.000 A 
ATOM     12  C   UNL     1       1.459   6.268   0.000  0.00  0.00    +0.000 A 
ATOM     13  C   UNL     1       2.173   5.856   0.000  0.00  0.00    +0.000 A 
ATOM     14  C   UNL     1       2.173   5.031   0.000  0.00  0.00    +0.000 A 
ENDBRANCH   1   9
BRANCH   1  15
ATOM     15  C   UNL     1       1.459   2.968   0.000  0.00  0.00    +0.000 C 
ATOM     16  O   UNL     1       0.744   2.556   0.000  0.00  0.00    +0.000 OA
BRANCH  15  17
ATOM     17  O   UNL     1       2.173   2.556   0.000  0.00  0.00    +0.000 OA
BRANCH  17  18
ATOM     18  C   UNL     1       2.173   1.731   0.000  0.00  0.00    +0.000 C 
BRANCH  18  25
ATOM     19  C   UNL     1       3.072   2.363   0.000  0.00  0.00    +0.000 C 
ATOM     20  N   UNL     1       3.602   1.731   0.000  0.00  0.00    +0.000 N 
ATOM     21  C   UNL     1       4.316   1.318   0.000  0.00  0.00    +0.000 C 
ATOM     22  C   UNL     1       4.316   0.493   0.000  0.00  0.00    +0.000 C 
ATOM     23  C   UNL     1       3.602   0.081   0.000  0.00  0.00    +0.000 C 
ATOM     24  C   UNL     1       2.888   0.493   0.000  0.00  0.00    +0.000 C 
ATOM     25  C   UNL     1       2.888   1.318   0.000  0.00  0.00    +0.000 C 
ATOM     26  C   UNL     1       4.132   2.363   0.000  0.00  0.00    +0.000 C 
ENDBRANCH  18  25
ENDBRANCH  17  18
ENDBRANCH  15  17
ENDBRANCH   1  15
TORSDOF 6
