REMARK  Name = 
REMARK  4 active torsions:
REMARK  status: ('A' for Active; 'I' for Inactive)
REMARK    1  A    between atoms: C_3  and  C_16
REMARK    2  A    between atoms: C_4  and  N_7
REMARK    3  A    between atoms: N_8  and  C_9
REMARK    4  A    between atoms: C_12  and  N_15
REMARK                            x       y       z     vdW  Elec       q    Type
REMARK                         _______ _______ _______ _____ _____    ______ ____
ROOT
ATOM      1  N   UNL     1      -0.714   0.412   0.000  0.00  0.00    +0.000 NA
ATOM      2  N   UNL     1      -0.714  -0.413   0.000  0.00  0.00    +0.000 NA
ENDROOT
BRANCH   1   6
ATOM      3  C   UNL     1      -2.858   1.649   0.000  0.00  0.00    +0.000 A 
ATOM      4  C   UNL     1      -2.143   2.062   0.000  0.00  0.00    +0.000 A 
ATOM      5  C   UNL     1      -1.429   1.650   0.000  0.00  0.00    +0.000 A 
ATOM      6  C   UNL     1      -1.429   0.825   0.000  0.00  0.00    +0.000 A 
ATOM      7  C   UNL     1      -2.143   0.412   0.000  0.00  0.00    +0.000 A 
ATOM      8  C   UNL     1      -2.858   0.825   0.000  0.00  0.00    +0.000 A 
BRANCH   5   9
ATOM      9  C   UNL     1      -0.715   2.062   0.000  0.00  0.00    +0.000 C 
ATOM     10  O   UNL     1      -0.000   1.650   0.000  0.00  0.00    +0.000 OA
ATOM     11  O   UNL     1      -0.715   2.887   0.000  0.00  0.00    +0.000 OA
ENDBRANCH   5   9
ENDBRANCH   1   6
BRANCH   2  12
ATOM     12  C   UNL     1       0.000  -0.825   0.000  0.00  0.00    +0.000 A 
ATOM     13  C   UNL     1       0.714  -0.412   0.000  0.00  0.00    +0.000 A 
ATOM     14  C   UNL     1       1.429  -0.825   0.000  0.00  0.00    +0.000 A 
ATOM     15  C   UNL     1       1.429  -1.650   0.000  0.00  0.00    +0.000 A 
ATOM     16  C   UNL     1       0.715  -2.062   0.000  0.00  0.00    +0.000 A 
ATOM     17  C   UNL     1       0.000  -1.650   0.000  0.00  0.00    +0.000 A 
BRANCH  15  18
ATOM     18  N   UNL     1       2.143  -2.062   0.000  0.00  0.00    +0.000 N 
ATOM     19  C   UNL     1       2.144  -2.887   0.000  0.00  0.00    +0.000 C 
ATOM     20  C   UNL     1       2.858  -1.650   0.000  0.00  0.00    +0.000 C 
ENDBRANCH  15  18
ENDBRANCH   2  12
TORSDOF 4
