REMARK  Name = 
REMARK  19 active torsions:
REMARK  status: ('A' for Active; 'I' for Inactive)
REMARK    1  A    between atoms: C_2  and  C_3
REMARK    2  A    between atoms: C_3  and  C_4
REMARK    3  A    between atoms: C_4  and  C_5
REMARK    4  A    between atoms: C_5  and  C_6
REMARK    5  A    between atoms: C_6  and  C_7
REMARK    6  A    between atoms: C_7  and  C_8
REMARK    7  A    between atoms: C_8  and  C_9
REMARK    8  A    between atoms: C_10  and  C_11
REMARK    9  A    between atoms: C_11  and  C_12
REMARK   10  A    between atoms: C_12  and  C_13
REMARK   11  A    between atoms: C_13  and  C_14
REMARK   12  A    between atoms: C_14  and  C_15
REMARK   13  A    between atoms: C_15  and  C_16
REMARK   14  A    between atoms: C_16  and  C_17
REMARK   15  A    between atoms: C_17  and  C_18
REMARK   16  A    between atoms: C_18  and  O_19
REMARK   17  A    between atoms: O_19  and  C_20
REMARK   18  A    between atoms: C_20  and  C_21
REMARK   19  A    between atoms: N_22  and  C_23
REMARK                            x       y       z     vdW  Elec       q    Type
REMARK                         _______ _______ _______ _____ _____    ______ ____
ROOT
ATOM      1  C   UNL     1       4.020  -0.750   0.000  0.00  0.00    +0.000 C 
ATOM      2  O   UNL     1       4.020   0.076   0.000  0.00  0.00    +0.000 OA
ENDROOT
BRANCH   1   3
ATOM      3  C   UNL     1       3.305  -1.161   0.000  0.00  0.00    +0.000 C 
BRANCH   3   4
ATOM      4  C   UNL     1       2.590  -0.750   0.000  0.00  0.00    +0.000 C 
BRANCH   4   5
ATOM      5  C   UNL     1       1.875  -1.161   0.000  0.00  0.00    +0.000 C 
BRANCH   5   6
ATOM      6  C   UNL     1       1.160  -0.750   0.000  0.00  0.00    +0.000 C 
BRANCH   6   7
ATOM      7  C   UNL     1       0.445  -1.161   0.000  0.00  0.00    +0.000 C 
BRANCH   7   8
ATOM      8  C   UNL     1      -0.270  -0.750   0.000  0.00  0.00    +0.000 C 
BRANCH   8   9
ATOM      9  C   UNL     1      -0.985  -1.161   0.000  0.00  0.00    +0.000 C 
BRANCH   9  11
ATOM     10  C   UNL     1      -2.415  -1.161   0.000  0.00  0.00    +0.000 C 
ATOM     11  C   UNL     1      -1.700  -0.750   0.000  0.00  0.00    +0.000 C 
BRANCH  10  12
ATOM     12  C   UNL     1      -3.130  -0.750   0.000  0.00  0.00    +0.000 C 
BRANCH  12  13
ATOM     13  C   UNL     1      -3.845  -1.161   0.000  0.00  0.00    +0.000 C 
BRANCH  13  14
ATOM     14  C   UNL     1      -4.560  -0.750   0.000  0.00  0.00    +0.000 C 
BRANCH  14  15
ATOM     15  C   UNL     1      -5.276  -1.161   0.000  0.00  0.00    +0.000 C 
BRANCH  15  16
ATOM     16  C   UNL     1      -5.991  -0.750   0.000  0.00  0.00    +0.000 C 
BRANCH  16  17
ATOM     17  C   UNL     1      -6.706  -1.161   0.000  0.00  0.00    +0.000 C 
BRANCH  17  19
ATOM     18  C   UNL     1      -8.136  -1.161   0.000  0.00  0.00    +0.000 C 
ATOM     19  C   UNL     1      -7.421  -0.750   0.000  0.00  0.00    +0.000 C 
ENDBRANCH  17  19
ENDBRANCH  16  17
ENDBRANCH  15  16
ENDBRANCH  14  15
ENDBRANCH  13  14
ENDBRANCH  12  13
ENDBRANCH  10  12
ENDBRANCH   9  11
ENDBRANCH   8   9
ENDBRANCH   7   8
ENDBRANCH   6   7
ENDBRANCH   5   6
ENDBRANCH   4   5
ENDBRANCH   3   4
ENDBRANCH   1   3
BRANCH   1  20
ATOM     20  O   UNL     1       4.736  -1.161   0.000  0.00  0.00    +0.000 OA
BRANCH  20  21
ATOM     21  C   UNL     1       5.451  -0.750   0.000  0.00  0.00    +0.000 C 
BRANCH  21  22
ATOM     22  C   UNL     1       6.166  -1.161   0.000  0.00  0.00    +0.000 C 
ATOM     23  C   UNL     1       7.485  -1.173   0.000  0.00  0.00    +0.000 C 
ATOM     24  C   UNL     1       7.231  -1.926   0.000  0.00  0.00    +0.000 C 
ATOM     25  O   UNL     1       6.817  -0.686   0.000  0.00  0.00    +0.000 OA
ATOM     26  C   UNL     1       6.423  -1.926   0.000  0.00  0.00    +0.000 C 
ATOM     27  O   UNL     1       7.716  -2.566   0.000  0.00  0.00    +0.000 OA
ATOM     28  O   UNL     1       5.962  -2.574   0.000  0.00  0.00    +0.000 OA
BRANCH  23  29
ATOM     29  N   UNL     1       7.438   0.155   0.000  0.00  0.00    +0.000 N 
ATOM     30  C   UNL     1       6.744   0.560   0.000  0.00  0.00    +0.000 A 
ATOM     31  N   UNL     1       6.744   1.369   0.000  0.00  0.00    +0.000 NA
ATOM     32  C   UNL     1       8.136   0.560   0.000  0.00  0.00    +0.000 A 
ATOM     33  C   UNL     1       8.136   1.381   0.000  0.00  0.00    +0.000 A 
ATOM     34  C   UNL     1       7.438   1.780   0.000  0.00  0.00    +0.000 A 
ATOM     35  O   UNL     1       6.172   0.231   0.000  0.00  0.00    +0.000 OA
ATOM     36  N   UNL     1       7.438   2.574   0.000  0.00  0.00    +0.000 NA
ENDBRANCH  23  29
ENDBRANCH  21  22
ENDBRANCH  20  21
ENDBRANCH   1  20
TORSDOF 19
