REMARK  Name = 
REMARK  6 active torsions:
REMARK  status: ('A' for Active; 'I' for Inactive)
REMARK    1  A    between atoms: C_13  and  C_18
REMARK    2  A    between atoms: C_13  and  C_19
REMARK    3  A    between atoms: C_14  and  C_18
REMARK    4  A    between atoms: C_15  and  C_19
REMARK    5  A    between atoms: C_16  and  C_20
REMARK    6  A    between atoms: C_17  and  O_23
REMARK                            x       y       z     vdW  Elec       q    Type
REMARK                         _______ _______ _______ _____ _____    ______ ____
ROOT
ATOM      1  C   UNL     1      -1.429   2.475   0.000  0.00  0.00    +0.000 C 
ATOM      2  O   UNL     1      -2.143   2.062   0.000  0.00  0.00    +0.000 OA
ENDROOT
BRANCH   1   7
ATOM      3  C   UNL     1      -0.714   3.712   0.000  0.00  0.00    +0.000 A 
ATOM      4  C   UNL     1      -2.143   3.712   0.000  0.00  0.00    +0.000 A 
ATOM      5  C   UNL     1      -0.714   4.537   0.000  0.00  0.00    +0.000 A 
ATOM      6  C   UNL     1      -2.143   4.537   0.000  0.00  0.00    +0.000 A 
ATOM      7  C   UNL     1      -1.429   3.300   0.000  0.00  0.00    +0.000 A 
ATOM      8  C   UNL     1      -1.429   4.950   0.000  0.00  0.00    +0.000 A 
BRANCH   8  12
ATOM      9  C   UNL     1      -1.429   6.600   0.000  0.00  0.00    +0.000 C 
ATOM     10  C   UNL     1      -2.254   5.775   0.000  0.00  0.00    +0.000 C 
ATOM     11  C   UNL     1      -0.604   5.775   0.000  0.00  0.00    +0.000 C 
ATOM     12  C   UNL     1      -1.429   5.775   0.000  0.00  0.00    +0.000 C 
ENDBRANCH   8  12
ENDBRANCH   1   7
BRANCH   1  13
ATOM     13  C   UNL     1      -0.714   2.062   0.000  0.00  0.00    +0.000 C 
BRANCH  13  14
ATOM     14  C   UNL     1      -0.714   1.238   0.000  0.00  0.00    +0.000 C 
ATOM     15  O   UNL     1      -1.429   0.825   0.000  0.00  0.00    +0.000 OA
BRANCH  14  20
ATOM     16  C   UNL     1       0.000   0.000   0.000  0.00  0.00    +0.000 A 
ATOM     17  C   UNL     1       0.714   1.238   0.000  0.00  0.00    +0.000 A 
ATOM     18  C   UNL     1       0.714  -0.412   0.000  0.00  0.00    +0.000 A 
ATOM     19  C   UNL     1       1.429   0.825   0.000  0.00  0.00    +0.000 A 
ATOM     20  C   UNL     1       0.000   0.825   0.000  0.00  0.00    +0.000 A 
ATOM     21  C   UNL     1       1.429   0.000   0.000  0.00  0.00    +0.000 A 
BRANCH  21  23
ATOM     22  C   UNL     1       2.858   0.000   0.000  0.00  0.00    +0.000 C 
ATOM     23  O   UNL     1       2.143  -0.412   0.000  0.00  0.00    +0.000 OA
ENDBRANCH  21  23
ENDBRANCH  14  20
ENDBRANCH  13  14
ENDBRANCH   1  13
TORSDOF 6
