REMARK  Name = 
REMARK  19 active torsions:
REMARK  status: ('A' for Active; 'I' for Inactive)
REMARK    1  A    between atoms: C_2  and  C_4
REMARK    2  A    between atoms: C_4  and  O_5
REMARK    3  A    between atoms: O_5  and  C_6
REMARK    4  A    between atoms: C_6  and  C_7
REMARK    5  A    between atoms: C_12  and  C_13
REMARK    6  A    between atoms: C_19  and  C_20
REMARK    7  A    between atoms: C_26  and  C_27
REMARK    8  A    between atoms: C_33  and  C_34
REMARK    9  A    between atoms: C_34  and  O_35
REMARK   10  A    between atoms: O_35  and  C_36
REMARK   11  A    between atoms: C_36  and  C_37
REMARK   12  A    between atoms: C_44  and  C_45
REMARK   13  A    between atoms: C_51  and  C_52
REMARK   14  A    between atoms: C_52  and  O_53
REMARK   15  A    between atoms: O_53  and  C_54
REMARK   16  A    between atoms: C_54  and  C_55
REMARK   17  A    between atoms: C_85  and  O_86
REMARK   18  A    between atoms: O_86  and  C_87
REMARK   19  A    between atoms: C_87  and  C_88
REMARK                            x       y       z     vdW  Elec       q    Type
REMARK                         _______ _______ _______ _____ _____    ______ ____
ROOT
ATOM      1  C   UNL     1       6.369  -1.604   0.000  0.00  0.00    +0.000 C 
ATOM      2  O   UNL     1       7.081  -1.195   0.000  0.00  0.00    +0.000 OA
ATOM      3  C   UNL     1       7.105  -0.351   0.000  0.00  0.00    +0.000 C 
ATOM      4  O   UNL     1       7.962  -0.225   0.000  0.00  0.00    +0.000 OA
ATOM      5  C   UNL     1       8.786  -0.462   0.000  0.00  0.00    +0.000 C 
ATOM      6  C   UNL     1       8.932  -1.293   0.000  0.00  0.00    +0.000 C 
ATOM      7  O   UNL     1       9.696  -1.594   0.000  0.00  0.00    +0.000 OA
ATOM      8  C   UNL     1      10.371  -1.087   0.000  0.00  0.00    +0.000 C 
ATOM      9  O   UNL     1      11.003  -1.678   0.000  0.00  0.00    +0.000 OA
ATOM     10  C   UNL     1      11.332  -2.470   0.000  0.00  0.00    +0.000 C 
ATOM     11  C   UNL     1      10.773  -3.102   0.000  0.00  0.00    +0.000 C 
ATOM     12  O   UNL     1      11.014  -3.888   0.000  0.00  0.00    +0.000 OA
ATOM     13  C   UNL     1      11.832  -4.099   0.000  0.00  0.00    +0.000 C 
ATOM     14  O   UNL     1      11.764  -4.962   0.000  0.00  0.00    +0.000 OA
ATOM     15  C   UNL     1      11.349  -5.713   0.000  0.00  0.00    +0.000 C 
ATOM     16  C   UNL     1      11.700  -6.485   0.000  0.00  0.00    +0.000 C 
ATOM     17  O   UNL     1      11.234  -7.179   0.000  0.00  0.00    +0.000 OA
ATOM     18  C   UNL     1      10.387  -7.119   0.000  0.00  0.00    +0.000 C 
ATOM     19  O   UNL     1       9.670  -7.604   0.000  0.00  0.00    +0.000 OA
ATOM     20  C   UNL     1       8.825  -7.748   0.000  0.00  0.00    +0.000 C 
ATOM     21  C   UNL     1       8.440  -8.504   0.000  0.00  0.00    +0.000 C 
ATOM     22  O   UNL     1       7.606  -8.572   0.000  0.00  0.00    +0.000 OA
ATOM     23  C   UNL     1       7.125  -7.873   0.000  0.00  0.00    +0.000 C 
ATOM     24  O   UNL     1       6.299  -7.615   0.000  0.00  0.00    +0.000 OA
ATOM     25  C   UNL     1       5.659  -7.044   0.000  0.00  0.00    +0.000 C 
ATOM     26  C   UNL     1       4.829  -7.214   0.000  0.00  0.00    +0.000 C 
ATOM     27  O   UNL     1       4.255  -6.604   0.000  0.00  0.00    +0.000 OA
ATOM     28  C   UNL     1       4.502  -5.793   0.000  0.00  0.00    +0.000 C 
ATOM     29  O   UNL     1       4.189  -4.986   0.000  0.00  0.00    +0.000 OA
ATOM     30  C   UNL     1       4.237  -4.130   0.000  0.00  0.00    +0.000 C 
ATOM     31  C   UNL     1       3.586  -3.586   0.000  0.00  0.00    +0.000 C 
ATOM     32  O   UNL     1       3.705  -2.758   0.000  0.00  0.00    +0.000 OA
ATOM     33  C   UNL     1       4.493  -2.445   0.000  0.00  0.00    +0.000 C 
ATOM     34  O   UNL     1       4.929  -1.697   0.000  0.00  0.00    +0.000 OA
ATOM     35  C   UNL     1       5.628  -1.200   0.000  0.00  0.00    +0.000 C 
ATOM     36  C   UNL     1       5.647  -0.353   0.000  0.00  0.00    +0.000 C 
ATOM     37  C   UNL     1       6.369   0.071   0.000  0.00  0.00    +0.000 C 
ATOM     38  O   UNL     1       6.364   0.896   0.000  0.00  0.00    +0.000 OA
ATOM     39  C   UNL     1       5.138  -2.990   0.000  0.00  0.00    +0.000 C 
ATOM     40  O   UNL     1       5.911  -2.700   0.000  0.00  0.00    +0.000 OA
ATOM     41  C   UNL     1       5.014  -3.803   0.000  0.00  0.00    +0.000 C 
ATOM     42  O   UNL     1       5.665  -4.310   0.000  0.00  0.00    +0.000 OA
ATOM     43  C   UNL     1       5.331  -5.628   0.000  0.00  0.00    +0.000 C 
ATOM     44  O   UNL     1       5.586  -4.844   0.000  0.00  0.00    +0.000 OA
ATOM     45  C   UNL     1       5.889  -6.232   0.000  0.00  0.00    +0.000 C 
ATOM     46  O   UNL     1       6.691  -6.039   0.000  0.00  0.00    +0.000 OA
ATOM     47  C   UNL     1       7.513  -7.123   0.000  0.00  0.00    +0.000 C 
ATOM     48  O   UNL     1       7.059  -6.434   0.000  0.00  0.00    +0.000 OA
ATOM     49  C   UNL     1       8.333  -7.063   0.000  0.00  0.00    +0.000 C 
ATOM     50  O   UNL     1       8.683  -6.316   0.000  0.00  0.00    +0.000 OA
ATOM     51  C   UNL     1      10.043  -6.348   0.000  0.00  0.00    +0.000 C 
ATOM     52  O   UNL     1       9.221  -6.274   0.000  0.00  0.00    +0.000 OA
ATOM     53  C   UNL     1      10.507  -5.670   0.000  0.00  0.00    +0.000 C 
ATOM     54  O   UNL     1      10.141  -4.931   0.000  0.00  0.00    +0.000 OA
ATOM     55  C   UNL     1      12.406  -3.475   0.000  0.00  0.00    +0.000 C 
ATOM     56  O   UNL     1      13.212  -3.654   0.000  0.00  0.00    +0.000 OA
ATOM     57  C   UNL     1      12.154  -2.677   0.000  0.00  0.00    +0.000 C 
ATOM     58  O   UNL     1      12.720  -2.077   0.000  0.00  0.00    +0.000 OA
ATOM     59  C   UNL     1      10.241  -0.248   0.000  0.00  0.00    +0.000 C 
ATOM     60  C   UNL     1       9.460   0.052   0.000  0.00  0.00    +0.000 C 
ATOM     61  O   UNL     1       9.344   0.868   0.000  0.00  0.00    +0.000 OA
ENDROOT
BRANCH   6  62
ATOM     62  C   UNL     1       8.292  -1.814   0.000  0.00  0.00    +0.000 C 
ATOM     63  O   UNL     1       8.424  -2.628   0.000  0.00  0.00    +0.000 OA
ENDBRANCH   6  62
BRANCH  11  64
ATOM     64  C   UNL     1       9.967  -2.927   0.000  0.00  0.00    +0.000 C 
ATOM     65  O   UNL     1       9.412  -3.538   0.000  0.00  0.00    +0.000 OA
ENDBRANCH  11  64
BRANCH  16  66
ATOM     66  C   UNL     1      12.522  -6.553   0.000  0.00  0.00    +0.000 C 
ATOM     67  O   UNL     1      12.874  -7.299   0.000  0.00  0.00    +0.000 OA
ENDBRANCH  16  66
BRANCH  26  68
ATOM     68  C   UNL     1       4.580  -8.000   0.000  0.00  0.00    +0.000 C 
ATOM     69  O   UNL     1       3.774  -8.178   0.000  0.00  0.00    +0.000 OA
ENDBRANCH  26  68
BRANCH  21  70
ATOM     70  C   UNL     1       8.899  -9.189   0.000  0.00  0.00    +0.000 C 
BRANCH  70  71
ATOM     71  O   UNL     1       8.536  -9.929   0.000  0.00  0.00    +0.000 OA
BRANCH  71  72
ATOM     72  C   UNL     1       8.995 -10.615   0.000  0.00  0.00    +0.000 C 
BRANCH  72  73
ATOM     73  C   UNL     1       8.631 -11.355   0.000  0.00  0.00    +0.000 C 
ATOM     74  C   UNL     1       9.091 -12.040   0.000  0.00  0.00    +0.000 C 
ATOM     75  O   UNL     1       7.808 -11.411   0.000  0.00  0.00    +0.000 OA
ENDBRANCH  72  73
ENDBRANCH  71  72
ENDBRANCH  70  71
ENDBRANCH  21  70
BRANCH  31  76
ATOM     76  C   UNL     1       2.816  -3.882   0.000  0.00  0.00    +0.000 C 
BRANCH  76  77
ATOM     77  O   UNL     1       2.687  -4.696   0.000  0.00  0.00    +0.000 OA
BRANCH  77  78
ATOM     78  C   UNL     1       1.916  -4.992   0.000  0.00  0.00    +0.000 C 
BRANCH  78  79
ATOM     79  C   UNL     1       1.787  -5.807   0.000  0.00  0.00    +0.000 C 
ATOM     80  C   UNL     1       2.428  -6.326   0.000  0.00  0.00    +0.000 C 
ATOM     81  O   UNL     1       1.017  -6.102   0.000  0.00  0.00    +0.000 OA
ENDBRANCH  78  79
ENDBRANCH  77  78
ENDBRANCH  76  77
ENDBRANCH  31  76
BRANCH   1  82
ATOM     82  C   UNL     1       6.378  -2.429   0.000  0.00  0.00    +0.000 C 
BRANCH  82  83
ATOM     83  O   UNL     1       7.097  -2.834   0.000  0.00  0.00    +0.000 OA
BRANCH  83  84
ATOM     84  C   UNL     1       7.106  -3.659   0.000  0.00  0.00    +0.000 C 
BRANCH  84  86
ATOM     85  C   UNL     1       7.834  -4.888   0.000  0.00  0.00    +0.000 C 
ATOM     86  C   UNL     1       7.825  -4.064   0.000  0.00  0.00    +0.000 C 
ATOM     87  O   UNL     1       8.535  -3.643   0.000  0.00  0.00    +0.000 OA
ENDBRANCH  84  86
ENDBRANCH  83  84
ENDBRANCH  82  83
ENDBRANCH   1  82
BRANCH  59  88
ATOM     88  O   UNL     1      10.883   0.270   0.000  0.00  0.00    +0.000 OA
BRANCH  88  89
ATOM     89  C   UNL     1      10.756   1.085   0.000  0.00  0.00    +0.000 C 
BRANCH  89  90
ATOM     90  C   UNL     1      11.398   1.603   0.000  0.00  0.00    +0.000 C 
ATOM     91  C   UNL     1      12.168   1.306   0.000  0.00  0.00    +0.000 C 
ATOM     92  O   UNL     1      11.271   2.418   0.000  0.00  0.00    +0.000 OA
ENDBRANCH  89  90
ENDBRANCH  88  89
ENDBRANCH  59  88
TORSDOF 19
