REMARK  Name = 
REMARK  0 active torsions:
REMARK  status: ('A' for Active; 'I' for Inactive)
REMARK                            x       y       z     vdW  Elec       q    Type
REMARK                         _______ _______ _______ _____ _____    ______ ____
ROOT
ATOM      1  C   UNL     1       4.542  -0.234   0.000  0.00  0.00    +0.000 A 
ATOM      2  C   UNL     1       4.845   0.533   0.000  0.00  0.00    +0.000 A 
ATOM      3  C   UNL     1       4.332   1.180   0.000  0.00  0.00    +0.000 A 
ATOM      4  C   UNL     1       3.516   1.059   0.000  0.00  0.00    +0.000 A 
ATOM      5  C   UNL     1       3.213   0.292   0.000  0.00  0.00    +0.000 A 
ATOM      6  C   UNL     1       3.725  -0.355   0.000  0.00  0.00    +0.000 A 
ATOM      7  C   UNL     1       2.389   0.343   0.000  0.00  0.00    +0.000 C 
ATOM      8  C   UNL     1       2.184   1.143   0.000  0.00  0.00    +0.000 C 
ATOM      9  C   UNL     1       2.881   1.585   0.000  0.00  0.00    +0.000 C 
ATOM     10  C   UNL     1       1.979   1.942   0.000  0.00  0.00    +0.000 C 
ATOM     11  O   UNL     1       2.505   2.577   0.000  0.00  0.00    +0.000 OA
ATOM     12  N   UNL     1       1.155   1.993   0.000  0.00  0.00    +0.000 NA
ATOM     13  C   UNL     1       0.852   1.226   0.000  0.00  0.00    +0.000 C 
ATOM     14  N   UNL     1       1.488   0.700   0.000  0.00  0.00    +0.000 N 
ATOM     15  C   UNL     1       1.350  -0.113   0.000  0.00  0.00    +0.000 C 
ATOM     16  C   UNL     1       0.577  -0.401   0.000  0.00  0.00    +0.000 C 
ATOM     17  C   UNL     1      -0.059   0.125   0.000  0.00  0.00    +0.000 C 
ATOM     18  C   UNL     1       0.079   0.938   0.000  0.00  0.00    +0.000 C 
ENDROOT
TORSDOF 0
