REMARK  Name = 
REMARK  8 active torsions:
REMARK  status: ('A' for Active; 'I' for Inactive)
REMARK    1  A    between atoms: C_2  and  C_4
REMARK    2  A    between atoms: C_20  and  O_22
REMARK    3  A    between atoms: O_22  and  C_23
REMARK    4  A    between atoms: C_23  and  C_24
REMARK    5  A    between atoms: C_25  and  C_40
REMARK    6  A    between atoms: C_28  and  C_29
REMARK    7  A    between atoms: C_30  and  O_31
REMARK    8  A    between atoms: O_31  and  C_32
REMARK                            x       y       z     vdW  Elec       q    Type
REMARK                         _______ _______ _______ _____ _____    ______ ____
ROOT
ATOM      1  C   UNL     1       6.308   3.642   0.000  0.00  0.00    +0.000 A 
ATOM      2  C   UNL     1       6.308   2.817   0.000  0.00  0.00    +0.000 A 
ATOM      3  C   UNL     1       5.593   2.404   0.000  0.00  0.00    +0.000 A 
ATOM      4  F   UNL     1       5.904   1.595   0.000  0.00  0.00    +0.000 F 
ATOM      5  C   UNL     1       4.879   2.817   0.000  0.00  0.00    +0.000 A 
ATOM      6  N   UNL     1       4.094   2.562   0.000  0.00  0.00    +0.000 NA
ATOM      7  C   UNL     1       3.384   3.290   0.000  0.00  0.00    +0.000 A 
ATOM      8  S   UNL     1       4.094   3.897   0.000  0.00  0.00    +0.000 S 
ATOM      9  C   UNL     1       4.879   3.642   0.000  0.00  0.00    +0.000 A 
ATOM     10  C   UNL     1       5.593   4.054   0.000  0.00  0.00    +0.000 A 
ATOM     11  N   UNL     1       2.784   3.229   0.000  0.00  0.00    +0.000 N 
ATOM     12  C   UNL     1       2.552   4.156   0.000  0.00  0.00    +0.000 C 
ATOM     13  C   UNL     1       1.907   3.642   0.000  0.00  0.00    +0.000 C 
ATOM     14  C   UNL     1       1.907   2.817   0.000  0.00  0.00    +0.000 C 
ATOM     15  C   UNL     1       2.552   2.302   0.000  0.00  0.00    +0.000 C 
ATOM     16  C   UNL     1       3.357   2.486   0.000  0.00  0.00    +0.000 C 
ATOM     17  C   UNL     1       3.715   3.229   0.000  0.00  0.00    +0.000 C 
ATOM     18  C   UNL     1       3.357   3.973   0.000  0.00  0.00    +0.000 C 
ENDROOT
BRANCH   1  20
ATOM     19  O   UNL     1       7.907   3.762   0.000  0.00  0.00    +0.000 OA
ATOM     20  C   UNL     1       7.102   4.034   0.000  0.00  0.00    +0.000 C 
ATOM     21  O   UNL     1       7.298   4.871   0.000  0.00  0.00    +0.000 OA
ENDBRANCH   1  20
BRANCH  17  22
ATOM     22  O   UNL     1       4.552   3.236   0.000  0.00  0.00    +0.000 OA
BRANCH  22  23
ATOM     23  C   UNL     1       4.754   4.229   0.000  0.00  0.00    +0.000 C 
BRANCH  23  24
ATOM     24  C   UNL     1       4.137   4.795   0.000  0.00  0.00    +0.000 A 
ATOM     25  C   UNL     1       3.326   4.641   0.000  0.00  0.00    +0.000 A 
ATOM     26  O   UNL     1       2.930   5.365   0.000  0.00  0.00    +0.000 OA
ATOM     27  N   UNL     1       3.435   5.740   0.000  0.00  0.00    +0.000 NA
ATOM     28  C   UNL     1       4.580   5.523   0.000  0.00  0.00    +0.000 A 
BRANCH  28  29
ATOM     29  C   UNL     1       5.056   6.348   0.000  0.00  0.00    +0.000 A 
ATOM     30  C   UNL     1       4.242   5.613   0.000  0.00  0.00    +0.000 A 
ATOM     31  C   UNL     1       3.537   6.042   0.000  0.00  0.00    +0.000 A 
ATOM     32  C   UNL     1       3.555   6.866   0.000  0.00  0.00    +0.000 A 
ATOM     33  C   UNL     1       4.279   7.263   0.000  0.00  0.00    +0.000 A 
ATOM     34  C   UNL     1       4.984   6.834   0.000  0.00  0.00    +0.000 A 
BRANCH  30  35
ATOM     35  O   UNL     1       4.965   6.010   0.000  0.00  0.00    +0.000 OA
BRANCH  35  36
ATOM     36  C   UNL     1       5.670   5.581   0.000  0.00  0.00    +0.000 C 
ATOM     37  F   UNL     1       6.375   5.153   0.000  0.00  0.00    +0.000 F 
ATOM     38  F   UNL     1       5.242   4.876   0.000  0.00  0.00    +0.000 F 
ATOM     39  F   UNL     1       6.099   6.286   0.000  0.00  0.00    +0.000 F 
ENDBRANCH  35  36
ENDBRANCH  30  35
ENDBRANCH  28  29
BRANCH  25  40
ATOM     40  C   UNL     1       2.974   3.896   0.000  0.00  0.00    +0.000 C 
ATOM     41  C   UNL     1       3.042   3.073   0.000  0.00  0.00    +0.000 C 
ATOM     42  C   UNL     1       2.296   3.426   0.000  0.00  0.00    +0.000 C 
ENDBRANCH  25  40
ENDBRANCH  23  24
ENDBRANCH  22  23
ENDBRANCH  17  22
TORSDOF 8
