REMARK  Name = 
REMARK  6 active torsions:
REMARK  status: ('A' for Active; 'I' for Inactive)
REMARK    1  A    between atoms: C_6  and  C_7
REMARK    2  A    between atoms: C_7  and  N_8
REMARK    3  A    between atoms: C_9  and  C_11
REMARK    4  A    between atoms: C_11  and  C_12
REMARK    5  A    between atoms: C_15  and  C_18
REMARK    6  A    between atoms: C_21  and  N_24
REMARK                            x       y       z     vdW  Elec       q    Type
REMARK                         _______ _______ _______ _____ _____    ______ ____
ROOT
ATOM      1  C   UNL     1      -0.715 -12.787   0.000  0.00  0.00    +0.000 A 
ATOM      2  N   UNL     1      -0.715 -13.613   0.000  0.00  0.00    +0.000 NA
ATOM      3  C   UNL     1      -1.429 -14.025   0.000  0.00  0.00    +0.000 A 
ATOM      4  C   UNL     1      -2.143 -13.613   0.000  0.00  0.00    +0.000 A 
ATOM      5  C   UNL     1      -2.143 -12.787   0.000  0.00  0.00    +0.000 A 
ATOM      6  C   UNL     1      -1.429 -12.375   0.000  0.00  0.00    +0.000 A 
ENDROOT
BRANCH   4   7
ATOM      7  C   UNL     1      -2.858 -14.025   0.000  0.00  0.00    +0.000 A 
ATOM      8  C   UNL     1      -2.858 -14.850   0.000  0.00  0.00    +0.000 A 
ATOM      9  C   UNL     1      -3.572 -15.262   0.000  0.00  0.00    +0.000 A 
ATOM     10  C   UNL     1      -4.287 -14.850   0.000  0.00  0.00    +0.000 A 
ATOM     11  C   UNL     1      -4.287 -14.025   0.000  0.00  0.00    +0.000 A 
ATOM     12  C   UNL     1      -3.572 -13.613   0.000  0.00  0.00    +0.000 A 
BRANCH  10  13
ATOM     13  N   UNL     1      -5.001 -15.262   0.000  0.00  0.00    +0.000 N 
ATOM     14  C   UNL     1      -5.001 -16.087   0.000  0.00  0.00    +0.000 C 
ATOM     15  C   UNL     1      -5.716 -16.500   0.000  0.00  0.00    +0.000 C 
ATOM     16  O   UNL     1      -6.430 -16.087   0.000  0.00  0.00    +0.000 OA
ATOM     17  C   UNL     1      -6.430 -15.262   0.000  0.00  0.00    +0.000 C 
ATOM     18  C   UNL     1      -5.716 -14.850   0.000  0.00  0.00    +0.000 C 
ENDBRANCH  10  13
ENDBRANCH   4   7
BRANCH   1  19
ATOM     19  C   UNL     1       0.000 -12.375   0.000  0.00  0.00    +0.000 C 
BRANCH  19  21
ATOM     20  N   UNL     1       0.715 -11.137   0.000  0.00  0.00    +0.000 NA
ATOM     21  C   UNL     1       0.000 -11.550   0.000  0.00  0.00    +0.000 C 
ATOM     22  O   UNL     1      -0.715 -11.137   0.000  0.00  0.00    +0.000 OA
BRANCH  20  23
ATOM     23  C   UNL     1       0.715 -10.312   0.000  0.00  0.00    +0.000 C 
BRANCH  23  29
ATOM     24  F   UNL     1       2.143  -7.838   0.000  0.00  0.00    +0.000 F 
ATOM     25  C   UNL     1       2.143  -8.662   0.000  0.00  0.00    +0.000 A 
ATOM     26  C   UNL     1       2.858  -9.075   0.000  0.00  0.00    +0.000 A 
ATOM     27  C   UNL     1       2.858  -9.900   0.000  0.00  0.00    +0.000 A 
ATOM     28  C   UNL     1       2.143 -10.312   0.000  0.00  0.00    +0.000 A 
ATOM     29  C   UNL     1       1.429  -9.900   0.000  0.00  0.00    +0.000 A 
ATOM     30  C   UNL     1       1.429  -9.075   0.000  0.00  0.00    +0.000 A 
ENDBRANCH  23  29
ENDBRANCH  20  23
ENDBRANCH  19  21
ENDBRANCH   1  19
TORSDOF 6
