REMARK  Name = 
REMARK  5 active torsions:
REMARK  status: ('A' for Active; 'I' for Inactive)
REMARK    1  A    between atoms: N_1  and  C_2
REMARK    2  A    between atoms: C_3  and  C_11
REMARK    3  A    between atoms: C_10  and  C_16
REMARK    4  A    between atoms: C_16  and  O_17
REMARK    5  A    between atoms: O_17  and  P_18
REMARK                            x       y       z     vdW  Elec       q    Type
REMARK                         _______ _______ _______ _____ _____    ______ ____
ROOT
ATOM      1  C   UNL     1       0.179  -0.529   0.000  0.00  0.00    +0.000 C 
ATOM      2  C   UNL     1      -0.083  -1.315   0.000  0.00  0.00    +0.000 C 
ATOM      3  O   UNL     1      -0.482  -0.042   0.000  0.00  0.00    +0.000 OA
ATOM      4  C   UNL     1      -0.907  -1.311   0.000  0.00  0.00    +0.000 C 
ATOM      5  C   UNL     1      -1.156  -0.525   0.000  0.00  0.00    +0.000 C 
ATOM      6  O   UNL     1       0.399  -1.985   0.000  0.00  0.00    +0.000 OA
ATOM      7  O   UNL     1      -1.394  -1.973   0.000  0.00  0.00    +0.000 OA
ENDROOT
BRANCH   1   8
ATOM      8  N   UNL     1       0.829  -0.024   0.000  0.00  0.00    +0.000 N 
ATOM      9  C   UNL     1       2.082   0.436   0.000  0.00  0.00    +0.000 A 
ATOM     10  N   UNL     1       1.618  -0.251   0.000  0.00  0.00    +0.000 NA
ATOM     11  N   UNL     1       1.565   1.088   0.000  0.00  0.00    +0.000 NA
ATOM     12  C   UNL     1       0.797   0.796   0.000  0.00  0.00    +0.000 A 
BRANCH   9  13
ATOM     13  C   UNL     1       2.903   0.470   0.000  0.00  0.00    +0.000 C 
ATOM     14  O   UNL     1       3.287   1.199   0.000  0.00  0.00    +0.000 OA
ATOM     15  N   UNL     1       3.345  -0.228   0.000  0.00  0.00    +0.000 NA
ENDBRANCH   9  13
ENDBRANCH   1   8
BRANCH   5  16
ATOM     16  C   UNL     1      -1.865  -0.097   0.000  0.00  0.00    +0.000 C 
BRANCH  16  17
ATOM     17  O   UNL     1      -1.841   0.730   0.000  0.00  0.00    +0.000 OA
BRANCH  17  18
ATOM     18  P   UNL     1      -2.542   1.162   0.000  0.00  0.00    +0.000 P 
ATOM     19  O   UNL     1      -2.518   1.985   0.000  0.00  0.00    +0.000 OA
ATOM     20  O   UNL     1      -3.345   0.952   0.000  0.00  0.00    +0.000 OA
ATOM     21  O   UNL     1      -2.550   0.340   0.000  0.00  0.00    +0.000 OA
ENDBRANCH  17  18
ENDBRANCH  16  17
ENDBRANCH   5  16
TORSDOF 5
