REMARK  Name = 
REMARK  3 active torsions:
REMARK  status: ('A' for Active; 'I' for Inactive)
REMARK    1  A    between atoms: C_2  and  C_3
REMARK    2  A    between atoms: C_2  and  C_17
REMARK    3  A    between atoms: C_3  and  C_4
REMARK                            x       y       z     vdW  Elec       q    Type
REMARK                         _______ _______ _______ _____ _____    ______ ____
ROOT
ATOM      1  C   UNL     1       1.955   1.486   0.000  0.00  0.00    +0.000 C 
ATOM      2  N   UNL     1       2.613   0.988   0.000  0.00  0.00    +0.000 N 
ATOM      3  C   UNL     1       3.438   0.972   0.000  0.00  0.00    +0.000 A 
ATOM      4  N   UNL     1       3.677   0.182   0.000  0.00  0.00    +0.000 NA
ATOM      5  C   UNL     1       3.001  -0.289   0.000  0.00  0.00    +0.000 A 
ATOM      6  C   UNL     1       2.343   0.209   0.000  0.00  0.00    +0.000 A 
ATOM      7  C   UNL     1       1.518   0.225   0.000  0.00  0.00    +0.000 A 
ATOM      8  C   UNL     1       0.954  -0.377   0.000  0.00  0.00    +0.000 A 
ATOM      9  C   UNL     1       0.150  -0.190   0.000  0.00  0.00    +0.000 A 
ATOM     10  C   UNL     1      -0.089   0.600   0.000  0.00  0.00    +0.000 A 
ATOM     11  C   UNL     1       0.475   1.202   0.000  0.00  0.00    +0.000 A 
ATOM     12  F   UNL     1       0.236   1.992   0.000  0.00  0.00    +0.000 F 
ATOM     13  C   UNL     1       1.278   1.015   0.000  0.00  0.00    +0.000 A 
ENDROOT
BRANCH   1  14
ATOM     14  C   UNL     1       1.972   2.311   0.000  0.00  0.00    +0.000 C 
BRANCH  14  16
ATOM     15  O   UNL     1       0.543   2.339   0.000  0.00  0.00    +0.000 OA
ATOM     16  C   UNL     1       1.265   2.738   0.000  0.00  0.00    +0.000 C 
BRANCH  16  17
ATOM     17  C   UNL     1       1.282   3.562   0.000  0.00  0.00    +0.000 C 
ATOM     18  C   UNL     1       0.576   3.989   0.000  0.00  0.00    +0.000 C 
ATOM     19  C   UNL     1       0.592   4.814   0.000  0.00  0.00    +0.000 C 
ATOM     20  C   UNL     1       1.314   5.212   0.000  0.00  0.00    +0.000 C 
ATOM     21  O   UNL     1       1.331   6.037   0.000  0.00  0.00    +0.000 OA
ATOM     22  C   UNL     1       2.020   4.786   0.000  0.00  0.00    +0.000 C 
ATOM     23  C   UNL     1       2.004   3.961   0.000  0.00  0.00    +0.000 C 
ENDBRANCH  16  17
ENDBRANCH  14  16
ENDBRANCH   1  14
TORSDOF 3
