REMARK  Name = 
REMARK  8 active torsions:
REMARK  status: ('A' for Active; 'I' for Inactive)
REMARK    1  A    between atoms: C_12  and  C_13
REMARK    2  A    between atoms: C_13  and  C_14
REMARK    3  A    between atoms: C_14  and  O_33
REMARK    4  A    between atoms: C_26  and  C_27
REMARK    5  A    between atoms: C_26  and  O_33
REMARK    6  A    between atoms: C_27  and  C_28
REMARK    7  A    between atoms: C_28  and  C_29
REMARK    8  A    between atoms: C_29  and  C_30
REMARK                            x       y       z     vdW  Elec       q    Type
REMARK                         _______ _______ _______ _____ _____    ______ ____
ROOT
ATOM      1  C   UNL     1      -2.779  -3.133   0.000  0.00  0.00    +0.000 C 
ATOM      2  C   UNL     1      -2.779  -2.308   0.000  0.00  0.00    +0.000 C 
ATOM      3  C   UNL     1      -2.064  -1.895   0.000  0.00  0.00    +0.000 C 
ATOM      4  C   UNL     1      -2.064  -3.545   0.000  0.00  0.00    +0.000 C 
ATOM      5  C   UNL     1      -1.350  -3.133   0.000  0.00  0.00    +0.000 C 
ATOM      6  C   UNL     1      -0.635  -3.545   0.000  0.00  0.00    +0.000 C 
ATOM      7  C   UNL     1       0.079  -3.133   0.000  0.00  0.00    +0.000 C 
ATOM      8  C   UNL     1       0.079  -2.308   0.000  0.00  0.00    +0.000 C 
ATOM      9  C   UNL     1       0.794  -1.895   0.000  0.00  0.00    +0.000 C 
ATOM     10  C   UNL     1       1.578  -2.150   0.000  0.00  0.00    +0.000 C 
ATOM     11  C   UNL     1       2.063  -1.483   0.000  0.00  0.00    +0.000 C 
ATOM     12  C   UNL     1       1.587  -0.813   0.000  0.00  0.00    +0.000 C 
ATOM     13  C   UNL     1       0.794  -1.070   0.000  0.00  0.00    +0.000 C 
ATOM     14  C   UNL     1       0.794  -0.245   0.000  0.00  0.00    +0.000 C 
ATOM     15  C   UNL     1       0.079  -0.658   0.000  0.00  0.00    +0.000 C 
ATOM     16  C   UNL     1      -0.635  -1.070   0.000  0.00  0.00    +0.000 C 
ATOM     17  C   UNL     1      -0.635  -1.895   0.000  0.00  0.00    +0.000 C 
ATOM     18  C   UNL     1      -1.350  -2.308   0.000  0.00  0.00    +0.000 C 
ATOM     19  C   UNL     1      -1.350  -1.483   0.000  0.00  0.00    +0.000 C 
ATOM     20  O   UNL     1      -3.493  -3.545   0.000  0.00  0.00    +0.000 OA
ATOM     21  O   UNL     1       2.326  -0.467   0.000  0.00  0.00    +0.000 OA
ATOM     22  O   UNL     1      -1.350  -0.658   0.000  0.00  0.00    +0.000 OA
ENDROOT
BRANCH  12  23
ATOM     23  C   UNL     1       1.310   0.223   0.000  0.00  0.00    +0.000 C 
ATOM     24  O   UNL     1       1.912   0.798   0.000  0.00  0.00    +0.000 OA
BRANCH  23  25
ATOM     25  C   UNL     1       0.533   0.454   0.000  0.00  0.00    +0.000 C 
BRANCH  25  26
ATOM     26  O   UNL     1       0.319   1.251   0.000  0.00  0.00    +0.000 OA
BRANCH  26  27
ATOM     27  C   UNL     1       0.927   1.828   0.000  0.00  0.00    +0.000 C 
ATOM     28  O   UNL     1       1.713   1.599   0.000  0.00  0.00    +0.000 OA
BRANCH  27  29
ATOM     29  C   UNL     1       0.713   2.625   0.000  0.00  0.00    +0.000 C 
BRANCH  29  30
ATOM     30  C   UNL     1       1.313   3.200   0.000  0.00  0.00    +0.000 C 
BRANCH  30  31
ATOM     31  C   UNL     1       2.107   2.972   0.000  0.00  0.00    +0.000 C 
BRANCH  31  32
ATOM     32  C   UNL     1       2.700   3.545   0.000  0.00  0.00    +0.000 C 
ATOM     33  C   UNL     1       3.493   3.318   0.000  0.00  0.00    +0.000 C 
ENDBRANCH  31  32
ENDBRANCH  30  31
ENDBRANCH  29  30
ENDBRANCH  27  29
ENDBRANCH  26  27
ENDBRANCH  25  26
ENDBRANCH  23  25
ENDBRANCH  12  23
TORSDOF 8
