REMARK  Name = 
REMARK  3 active torsions:
REMARK  status: ('A' for Active; 'I' for Inactive)
REMARK    1  A    between atoms: C_7  and  C_12
REMARK    2  A    between atoms: C_7  and  C_15
REMARK    3  A    between atoms: C_15  and  N_21
REMARK                            x       y       z     vdW  Elec       q    Type
REMARK                         _______ _______ _______ _____ _____    ______ ____
ROOT
ATOM      1  C   UNL     1       6.124  -0.026   0.000  0.00  0.00    +0.000 A 
ATOM      2  C   UNL     1       1.484  -0.026   0.000  0.00  0.00    +0.000 A 
ATOM      3  C   UNL     1       5.940  -0.830   0.000  0.00  0.00    +0.000 A 
ATOM      4  C   UNL     1       1.667  -0.830   0.000  0.00  0.00    +0.000 A 
ATOM      5  C   UNL     1       5.519   0.535   0.000  0.00  0.00    +0.000 A 
ATOM      6  C   UNL     1       2.088   0.535   0.000  0.00  0.00    +0.000 A 
ATOM      7  C   UNL     1       5.152  -1.073   0.000  0.00  0.00    +0.000 A 
ATOM      8  C   UNL     1       2.456  -1.073   0.000  0.00  0.00    +0.000 A 
ATOM      9  C   UNL     1       3.804  -1.695   0.000  0.00  0.00    +0.000 C 
ATOM     10  C   UNL     1       4.216   0.937   0.000  0.00  0.00    +0.000 C 
ATOM     11  C   UNL     1       3.391   0.937   0.000  0.00  0.00    +0.000 C 
ATOM     12  C   UNL     1       4.731   0.292   0.000  0.00  0.00    +0.000 A 
ATOM     13  C   UNL     1       2.877   0.292   0.000  0.00  0.00    +0.000 A 
ATOM     14  C   UNL     1       4.547  -0.512   0.000  0.00  0.00    +0.000 A 
ATOM     15  C   UNL     1       3.060  -0.512   0.000  0.00  0.00    +0.000 A 
ATOM     16  C   UNL     1       3.804  -0.870   0.000  0.00  0.00    +0.000 C 
ENDROOT
BRANCH   9  17
ATOM     17  C   UNL     1       4.518  -2.108   0.000  0.00  0.00    +0.000 C 
BRANCH  17  18
ATOM     18  C   UNL     1       4.518  -2.933   0.000  0.00  0.00    +0.000 C 
BRANCH  18  21
ATOM     19  C   UNL     1       5.947  -3.758   0.000  0.00  0.00    +0.000 C 
ATOM     20  C   UNL     1       5.645  -2.631   0.000  0.00  0.00    +0.000 C 
ATOM     21  N   UNL     1       5.233  -3.345   0.000  0.00  0.00    +0.000 NA
ATOM     22  O   UNL     1       4.820  -4.060   0.000  0.00  0.00    +0.000 OA
ENDBRANCH  18  21
ENDBRANCH  17  18
ENDBRANCH   9  17
TORSDOF 3
