REMARK  Name = 
REMARK  6 active torsions:
REMARK  status: ('A' for Active; 'I' for Inactive)
REMARK    1  A    between atoms: C_3  and  C_5
REMARK    2  A    between atoms: C_5  and  C_6
REMARK    3  A    between atoms: C_6  and  C_7
REMARK    4  A    between atoms: C_7  and  C_8
REMARK    5  A    between atoms: C_8  and  C_9
REMARK    6  A    between atoms: C_9  and  N_10
REMARK                            x       y       z     vdW  Elec       q    Type
REMARK                         _______ _______ _______ _____ _____    ______ ____
ROOT
ATOM      1  N   UNL     1       0.715   5.362   0.000  0.00  0.00    +0.000 N 
ATOM      2  C   UNL     1       1.429   4.950   0.000  0.00  0.00    +0.000 C 
ATOM      3  O   UNL     1       1.429   4.125   0.000  0.00  0.00    +0.000 OA
ATOM      4  C   UNL     1       2.143   5.362   0.000  0.00  0.00    +0.000 A 
ATOM      5  C   UNL     1       2.858   4.950   0.000  0.00  0.00    +0.000 A 
ATOM      6  C   UNL     1       3.572   5.362   0.000  0.00  0.00    +0.000 A 
ATOM      7  C   UNL     1       3.572   6.188   0.000  0.00  0.00    +0.000 A 
ATOM      8  C   UNL     1       2.858   6.600   0.000  0.00  0.00    +0.000 A 
ATOM      9  C   UNL     1       2.143   6.188   0.000  0.00  0.00    +0.000 A 
ATOM     10  C   UNL     1       1.429   6.600   0.000  0.00  0.00    +0.000 A 
ATOM     11  C   UNL     1       1.429   7.425   0.000  0.00  0.00    +0.000 A 
ATOM     12  C   UNL     1       2.143   7.838   0.000  0.00  0.00    +0.000 A 
ATOM     13  C   UNL     1       2.858   7.425   0.000  0.00  0.00    +0.000 A 
ATOM     14  C   UNL     1       0.715   6.188   0.000  0.00  0.00    +0.000 C 
ATOM     15  O   UNL     1       0.000   6.600   0.000  0.00  0.00    +0.000 OA
ENDROOT
BRANCH   1  16
ATOM     16  C   UNL     1       0.000   4.950   0.000  0.00  0.00    +0.000 C 
BRANCH  16  17
ATOM     17  C   UNL     1      -0.715   5.362   0.000  0.00  0.00    +0.000 C 
BRANCH  17  18
ATOM     18  C   UNL     1      -1.429   4.950   0.000  0.00  0.00    +0.000 C 
BRANCH  18  19
ATOM     19  C   UNL     1      -2.143   5.362   0.000  0.00  0.00    +0.000 C 
BRANCH  19  20
ATOM     20  C   UNL     1      -2.858   4.950   0.000  0.00  0.00    +0.000 C 
BRANCH  20  23
ATOM     21  O   UNL     1      -5.001   5.362   0.000  0.00  0.00    +0.000 OA
ATOM     22  N   UNL     1      -4.287   4.950   0.000  0.00  0.00    +0.000 NA
ATOM     23  C   UNL     1      -3.572   5.362   0.000  0.00  0.00    +0.000 C 
ATOM     24  O   UNL     1      -3.572   6.188   0.000  0.00  0.00    +0.000 OA
ENDBRANCH  20  23
ENDBRANCH  19  20
ENDBRANCH  18  19
ENDBRANCH  17  18
ENDBRANCH  16  17
ENDBRANCH   1  16
TORSDOF 6
