REMARK  Name = 
REMARK  2 active torsions:
REMARK  status: ('A' for Active; 'I' for Inactive)
REMARK    1  A    between atoms: C_5  and  C_7
REMARK    2  A    between atoms: C_6  and  N_11
REMARK                            x       y       z     vdW  Elec       q    Type
REMARK                         _______ _______ _______ _____ _____    ______ ____
ROOT
ATOM      1  C   UNL     1       0.657   7.963   0.000  0.00  0.00    +0.000 A 
ATOM      2  C   UNL     1      -0.168   7.963   0.000  0.00  0.00    +0.000 A 
ATOM      3  C   UNL     1       0.959   5.457   0.000  0.00  0.00    +0.000 C 
ATOM      4  C   UNL     1       0.245   6.694   0.000  0.00  0.00    +0.000 A 
ATOM      5  N   UNL     1       0.912   7.179   0.000  0.00  0.00    +0.000 NA
ATOM      6  N   UNL     1       0.245   5.869   0.000  0.00  0.00    +0.000 NA
ATOM      7  O   UNL     1       1.674   5.869   0.000  0.00  0.00    +0.000 OA
ATOM      8  S   UNL     1      -0.423   7.179   0.000  0.00  0.00    +0.000 S 
ENDROOT
BRANCH   3  12
ATOM      9  C   UNL     1       1.372   3.362   0.000  0.00  0.00    +0.000 A 
ATOM     10  C   UNL     1       1.627   4.147   0.000  0.00  0.00    +0.000 A 
ATOM     11  C   UNL     1       0.547   3.362   0.000  0.00  0.00    +0.000 A 
ATOM     12  C   UNL     1       0.959   4.631   0.000  0.00  0.00    +0.000 A 
ATOM     13  S   UNL     1       0.292   4.147   0.000  0.00  0.00    +0.000 S 
ENDBRANCH   3  12
BRANCH   2  14
ATOM     14  N   UNL     1      -0.653   8.631   0.000  0.00  0.00    +0.000 N 
ATOM     15  O   UNL     1      -1.473   8.545   0.000  0.00  0.00    +0.000 OA
ATOM     16  O   UNL     1      -0.317   9.385   0.000  0.00  0.00    +0.000 OA
ENDBRANCH   2  14
TORSDOF 2
