REMARK  Name = 
REMARK  6 active torsions:
REMARK  status: ('A' for Active; 'I' for Inactive)
REMARK    1  A    between atoms: C_1  and  N_3
REMARK    2  A    between atoms: N_2  and  C_12
REMARK    3  A    between atoms: C_7  and  C_11
REMARK    4  A    between atoms: C_7  and  O_13
REMARK    5  A    between atoms: C_12  and  C_14
REMARK    6  A    between atoms: O_13  and  C_14
REMARK                            x       y       z     vdW  Elec       q    Type
REMARK                         _______ _______ _______ _____ _____    ______ ____
ROOT
ATOM      1  C   UNL     1       0.346  -1.015   0.000  0.00  0.00    +0.000 C 
ENDROOT
BRANCH   1   3
ATOM      2  C   UNL     1      -0.322  -2.325   0.000  0.00  0.00    +0.000 A 
ATOM      3  N   UNL     1       0.346  -1.840   0.000  0.00  0.00    +0.000 N 
ATOM      4  C   UNL     1      -0.067  -3.110   0.000  0.00  0.00    +0.000 A 
ATOM      5  N   UNL     1       0.758  -3.110   0.000  0.00  0.00    +0.000 NA
ATOM      6  C   UNL     1       1.013  -2.325   0.000  0.00  0.00    +0.000 A 
ATOM      7  C   UNL     1       1.798  -2.070   0.000  0.00  0.00    +0.000 C 
BRANCH   2   8
ATOM      8  N   UNL     1      -1.106  -2.070   0.000  0.00  0.00    +0.000 N 
ATOM      9  O   UNL     1      -1.719  -2.622   0.000  0.00  0.00    +0.000 OA
ATOM     10  O   UNL     1      -1.278  -1.263   0.000  0.00  0.00    +0.000 OA
ENDBRANCH   2   8
ENDBRANCH   1   3
BRANCH   1  11
ATOM     11  C   UNL     1      -0.369  -0.603   0.000  0.00  0.00    +0.000 C 
BRANCH  11  12
ATOM     12  O   UNL     1      -0.369   0.222   0.000  0.00  0.00    +0.000 OA
BRANCH  12  13
ATOM     13  C   UNL     1      -1.083   0.635   0.000  0.00  0.00    +0.000 C 
ATOM     14  O   UNL     1      -1.798   0.222   0.000  0.00  0.00    +0.000 OA
BRANCH  13  15
ATOM     15  C   UNL     1      -1.083   1.460   0.000  0.00  0.00    +0.000 A 
ATOM     16  C   UNL     1      -1.798   1.872   0.000  0.00  0.00    +0.000 A 
ATOM     17  C   UNL     1      -0.369   1.872   0.000  0.00  0.00    +0.000 A 
ATOM     18  C   UNL     1      -0.369   2.697   0.000  0.00  0.00    +0.000 A 
ATOM     19  C   UNL     1      -1.798   2.697   0.000  0.00  0.00    +0.000 A 
ATOM     20  C   UNL     1      -1.083   3.110   0.000  0.00  0.00    +0.000 A 
ENDBRANCH  13  15
ENDBRANCH  12  13
ENDBRANCH  11  12
ENDBRANCH   1  11
TORSDOF 6
