REMARK  Name = 
REMARK  12 active torsions:
REMARK  status: ('A' for Active; 'I' for Inactive)
REMARK    1  A    between atoms: C_19  and  C_34
REMARK    2  A    between atoms: C_24  and  O_64
REMARK    3  A    between atoms: C_25  and  C_28
REMARK    4  A    between atoms: C_27  and  O_65
REMARK    5  A    between atoms: C_33  and  O_64
REMARK    6  A    between atoms: C_37  and  O_65
REMARK    7  A    between atoms: C_38  and  O_67
REMARK    8  A    between atoms: C_39  and  O_68
REMARK    9  A    between atoms: C_43  and  O_67
REMARK   10  A    between atoms: C_44  and  O_68
REMARK   11  A    between atoms: C_45  and  O_69
REMARK   12  A    between atoms: C_46  and  O_69
REMARK                            x       y       z     vdW  Elec       q    Type
REMARK                         _______ _______ _______ _____ _____    ______ ____
ROOT
ATOM      1  C   UNL     1       9.310   0.842   0.000  0.00  0.00    +0.000 C 
ATOM      2  C   UNL     1       6.874   0.407   0.000  0.00  0.00    +0.000 C 
ATOM      3  C   UNL     1       8.498   0.697   0.000  0.00  0.00    +0.000 C 
ATOM      4  C   UNL     1       7.405  -0.224   0.000  0.00  0.00    +0.000 C 
ATOM      5  C   UNL     1       7.154   1.183   0.000  0.00  0.00    +0.000 C 
ATOM      6  C   UNL     1       8.218  -0.079   0.000  0.00  0.00    +0.000 C 
ATOM      7  O   UNL     1       7.125  -1.000   0.000  0.00  0.00    +0.000 OA
ATOM      8  O   UNL     1       7.966   1.328   0.000  0.00  0.00    +0.000 OA
ENDROOT
BRANCH   5   9
ATOM      9  O   UNL     1       6.622   1.813   0.000  0.00  0.00    +0.000 OA
BRANCH   9  21
ATOM     10  C   UNL     1       3.905   0.602   0.000  0.00  0.00    +0.000 C 
ATOM     11  C   UNL     1       1.389   0.200   0.000  0.00  0.00    +0.000 C 
ATOM     12  C   UNL     1       3.934   2.784   0.000  0.00  0.00    +0.000 C 
ATOM     13  C   UNL     1       3.122   2.639   0.000  0.00  0.00    +0.000 C 
ATOM     14  C   UNL     1       5.530   0.892   0.000  0.00  0.00    +0.000 C 
ATOM     15  C   UNL     1       0.696   1.761   0.000  0.00  0.00    +0.000 C 
ATOM     16  C   UNL     1       4.718   0.747   0.000  0.00  0.00    +0.000 C 
ATOM     17  C   UNL     1       1.378   2.224   0.000  0.00  0.00    +0.000 C 
ATOM     18  C   UNL     1       5.278   2.299   0.000  0.00  0.00    +0.000 C 
ATOM     19  C   UNL     1       3.093   0.457   0.000  0.00  0.00    +0.000 C 
ATOM     20  C   UNL     1       4.466   2.154   0.000  0.00  0.00    +0.000 C 
ATOM     21  C   UNL     1       5.810   1.668   0.000  0.00  0.00    +0.000 C 
ATOM     22  C   UNL     1       0.925   0.969   0.000  0.00  0.00    +0.000 C 
ATOM     23  C   UNL     1       2.842   1.863   0.000  0.00  0.00    +0.000 C 
ATOM     24  C   UNL     1       3.374   1.232   0.000  0.00  0.00    +0.000 C 
ATOM     25  C   UNL     1       2.281   0.311   0.000  0.00  0.00    +0.000 C 
ATOM     26  C   UNL     1       4.186   1.378   0.000  0.00  0.00    +0.000 C 
ATOM     27  C   UNL     1       1.749   0.942   0.000  0.00  0.00    +0.000 C 
ATOM     28  C   UNL     1       2.030   1.718   0.000  0.00  0.00    +0.000 C 
ATOM     29  O   UNL     1       2.001  -0.465   0.000  0.00  0.00    +0.000 OA
ATOM     30  O   UNL     1       2.227   2.519   0.000  0.00  0.00    +0.000 OA
BRANCH  22  33
ATOM     31  C   UNL     1       0.648  -0.475   0.000  0.00  0.00    +0.000 C 
ATOM     32  C   UNL     1      -0.406   0.344   0.000  0.00  0.00    +0.000 C 
ATOM     33  C   UNL     1       0.418   0.318   0.000  0.00  0.00    +0.000 C 
ATOM     34  C   UNL     1      -0.035  -0.938   0.000  0.00  0.00    +0.000 C 
ATOM     35  O   UNL     1      -0.062  -1.762   0.000  0.00  0.00    +0.000 OA
ATOM     36  O   UNL     1      -0.686  -0.432   0.000  0.00  0.00    +0.000 OA
ENDBRANCH  22  33
ENDBRANCH   9  21
ENDBRANCH   5   9
BRANCH   6  37
ATOM     37  O   UNL     1       8.749  -0.710   0.000  0.00  0.00    +0.000 OA
BRANCH  37  42
ATOM     38  C   UNL     1      10.934   1.133   0.000  0.00  0.00    +0.000 C 
ATOM     39  C   UNL     1      10.093  -1.195   0.000  0.00  0.00    +0.000 C 
ATOM     40  C   UNL     1      10.654   0.357   0.000  0.00  0.00    +0.000 C 
ATOM     41  C   UNL     1      10.905  -1.050   0.000  0.00  0.00    +0.000 C 
ATOM     42  C   UNL     1       9.562  -0.564   0.000  0.00  0.00    +0.000 C 
ATOM     43  C   UNL     1      11.186  -0.274   0.000  0.00  0.00    +0.000 C 
ATOM     44  O   UNL     1      11.437  -1.680   0.000  0.00  0.00    +0.000 OA
ATOM     45  O   UNL     1       9.842   0.212   0.000  0.00  0.00    +0.000 OA
BRANCH  43  46
ATOM     46  O   UNL     1      11.998  -0.129   0.000  0.00  0.00    +0.000 OA
BRANCH  46  51
ATOM     47  C   UNL     1      11.495   2.685   0.000  0.00  0.00    +0.000 C 
ATOM     48  C   UNL     1      13.090   0.792   0.000  0.00  0.00    +0.000 C 
ATOM     49  C   UNL     1      12.027   2.054   0.000  0.00  0.00    +0.000 C 
ATOM     50  C   UNL     1      13.371   1.569   0.000  0.00  0.00    +0.000 C 
ATOM     51  C   UNL     1      12.278   0.647   0.000  0.00  0.00    +0.000 C 
ATOM     52  C   UNL     1      12.839   2.199   0.000  0.00  0.00    +0.000 C 
ATOM     53  O   UNL     1      11.746   1.278   0.000  0.00  0.00    +0.000 OA
BRANCH  50  54
ATOM     54  O   UNL     1      14.183   1.714   0.000  0.00  0.00    +0.000 OA
BRANCH  54  56
ATOM     55  C   UNL     1      15.275   2.635   0.000  0.00  0.00    +0.000 C 
ATOM     56  C   UNL     1      14.463   2.490   0.000  0.00  0.00    +0.000 C 
ATOM     57  O   UNL     1      13.931   3.120   0.000  0.00  0.00    +0.000 OA
ENDBRANCH  54  56
ENDBRANCH  50  54
BRANCH  52  58
ATOM     58  O   UNL     1      13.119   2.975   0.000  0.00  0.00    +0.000 OA
BRANCH  58  63
ATOM     59  C   UNL     1      11.243   4.091   0.000  0.00  0.00    +0.000 C 
ATOM     60  C   UNL     1      11.524   4.867   0.000  0.00  0.00    +0.000 C 
ATOM     61  C   UNL     1      12.336   5.012   0.000  0.00  0.00    +0.000 C 
ATOM     62  C   UNL     1      12.868   4.382   0.000  0.00  0.00    +0.000 C 
ATOM     63  C   UNL     1      12.587   3.606   0.000  0.00  0.00    +0.000 C 
ATOM     64  O   UNL     1      10.992   5.498   0.000  0.00  0.00    +0.000 OA
ATOM     65  O   UNL     1      12.616   5.788   0.000  0.00  0.00    +0.000 OA
ATOM     66  O   UNL     1      13.680   4.527   0.000  0.00  0.00    +0.000 OA
ATOM     67  O   UNL     1      11.775   3.461   0.000  0.00  0.00    +0.000 OA
BRANCH  59  68
ATOM     68  C   UNL     1      10.431   3.946   0.000  0.00  0.00    +0.000 C 
ATOM     69  O   UNL     1       9.899   4.577   0.000  0.00  0.00    +0.000 OA
ENDBRANCH  59  68
ENDBRANCH  58  63
ENDBRANCH  52  58
ENDBRANCH  46  51
ENDBRANCH  43  46
ENDBRANCH  37  42
ENDBRANCH   6  37
TORSDOF 12
