REMARK  Name = 
REMARK  3 active torsions:
REMARK  status: ('A' for Active; 'I' for Inactive)
REMARK    1  A    between atoms: C_10  and  C_11
REMARK    2  A    between atoms: C_21  and  C_22
REMARK    3  A    between atoms: C_22  and  S_23
REMARK                            x       y       z     vdW  Elec       q    Type
REMARK                         _______ _______ _______ _____ _____    ______ ____
ROOT
ATOM      1  C   UNL     1      -2.188  -0.206   0.000  0.00  0.00    +0.000 C 
ATOM      2  C   UNL     1      -2.188  -1.031   0.000  0.00  0.00    +0.000 C 
ATOM      3  C   UNL     1      -2.903  -1.444   0.000  0.00  0.00    +0.000 C 
ATOM      4  O   UNL     1      -2.903  -2.269   0.000  0.00  0.00    +0.000 OA
ATOM      5  C   UNL     1      -2.188  -2.681   0.000  0.00  0.00    +0.000 C 
ATOM      6  C   UNL     1      -1.474  -2.269   0.000  0.00  0.00    +0.000 C 
ATOM      7  N   UNL     1      -1.474  -1.444   0.000  0.00  0.00    +0.000 N 
ATOM      8  C   UNL     1      -0.759  -1.031   0.000  0.00  0.00    +0.000 A 
ATOM      9  N   UNL     1      -0.759  -0.206   0.000  0.00  0.00    +0.000 NA
ATOM     10  C   UNL     1      -0.045   0.206   0.000  0.00  0.00    +0.000 A 
ATOM     11  N   UNL     1       0.669  -0.206   0.000  0.00  0.00    +0.000 NA
ATOM     12  C   UNL     1       0.669  -1.031   0.000  0.00  0.00    +0.000 A 
ATOM     13  C   UNL     1      -0.045  -1.444   0.000  0.00  0.00    +0.000 A 
ENDROOT
BRANCH  10  14
ATOM     14  C   UNL     1      -0.045   1.031   0.000  0.00  0.00    +0.000 A 
ATOM     15  C   UNL     1      -0.759   1.444   0.000  0.00  0.00    +0.000 A 
ATOM     16  N   UNL     1      -0.759   2.269   0.000  0.00  0.00    +0.000 NA
ATOM     17  C   UNL     1      -0.045   2.681   0.000  0.00  0.00    +0.000 A 
ATOM     18  C   UNL     1       0.669   2.269   0.000  0.00  0.00    +0.000 A 
ATOM     19  N   UNL     1       1.454   2.524   0.000  0.00  0.00    +0.000 NA
ATOM     20  C   UNL     1       1.939   1.856   0.000  0.00  0.00    +0.000 A 
ATOM     21  C   UNL     1       1.454   1.189   0.000  0.00  0.00    +0.000 A 
ATOM     22  C   UNL     1       0.669   1.444   0.000  0.00  0.00    +0.000 A 
ENDBRANCH  10  14
BRANCH  12  23
ATOM     23  C   UNL     1       1.384  -1.444   0.000  0.00  0.00    +0.000 C 
ATOM     24  C   UNL     1       1.102  -2.219   0.000  0.00  0.00    +0.000 C 
ATOM     25  C   UNL     1       1.914  -2.076   0.000  0.00  0.00    +0.000 C 
BRANCH  23  26
ATOM     26  S   UNL     1       1.914  -0.812   0.000  0.00  0.00    +0.000 S 
ATOM     27  O   UNL     1       2.655  -1.386   0.000  0.00  0.00    +0.000 OA
ATOM     28  N   UNL     1       1.522  -0.107   0.000  0.00  0.00    +0.000 NA
ATOM     29  C   UNL     1       2.903  -0.136   0.000  0.00  0.00    +0.000 C 
ENDBRANCH  23  26
ENDBRANCH  12  23
TORSDOF 3
