REMARK  Name = 
REMARK  6 active torsions:
REMARK  status: ('A' for Active; 'I' for Inactive)
REMARK    1  A    between atoms: C_3  and  O_27
REMARK    2  A    between atoms: C_6  and  N_7
REMARK    3  A    between atoms: C_8  and  C_10
REMARK    4  A    between atoms: C_12  and  C_22
REMARK    5  A    between atoms: C_13  and  N_16
REMARK    6  A    between atoms: O_27  and  C_28
REMARK                            x       y       z     vdW  Elec       q    Type
REMARK                         _______ _______ _______ _____ _____    ______ ____
ROOT
ATOM      1  C   UNL     1       0.715   5.941   0.000  0.00  0.00    +0.000 A 
ATOM      2  C   UNL     1       1.429   5.529   0.000  0.00  0.00    +0.000 A 
ATOM      3  C   UNL     1       1.429   4.704   0.000  0.00  0.00    +0.000 A 
ATOM      4  C   UNL     1       0.715   4.291   0.000  0.00  0.00    +0.000 A 
ATOM      5  N   UNL     1       0.000   4.704   0.000  0.00  0.00    +0.000 NA
ATOM      6  C   UNL     1       0.000   5.529   0.000  0.00  0.00    +0.000 A 
ENDROOT
BRANCH   4   7
ATOM      7  N   UNL     1       0.715   3.466   0.000  0.00  0.00    +0.000 N 
ATOM      8  C   UNL     1       1.382   2.981   0.000  0.00  0.00    +0.000 C 
ATOM      9  C   UNL     1       1.127   2.196   0.000  0.00  0.00    +0.000 C 
ATOM     10  C   UNL     1       0.302   2.196   0.000  0.00  0.00    +0.000 C 
ATOM     11  C   UNL     1       0.047   2.981   0.000  0.00  0.00    +0.000 C 
ATOM     12  O   UNL     1      -0.183   1.529   0.000  0.00  0.00    +0.000 OA
ENDBRANCH   4   7
BRANCH   3  13
ATOM     13  C   UNL     1       2.143   4.291   0.000  0.00  0.00    +0.000 A 
ATOM     14  C   UNL     1       2.897   4.627   0.000  0.00  0.00    +0.000 A 
ATOM     15  C   UNL     1       3.449   4.013   0.000  0.00  0.00    +0.000 A 
ATOM     16  N   UNL     1       3.037   3.299   0.000  0.00  0.00    +0.000 NA
ATOM     17  N   UNL     1       2.230   3.471   0.000  0.00  0.00    +0.000 NA
ENDBRANCH   3  13
BRANCH   1  19
ATOM     18  N   UNL     1       0.000   7.179   0.000  0.00  0.00    +0.000 NA
ATOM     19  C   UNL     1       0.715   6.766   0.000  0.00  0.00    +0.000 C 
ATOM     20  O   UNL     1       1.429   7.179   0.000  0.00  0.00    +0.000 OA
BRANCH  18  26
ATOM     21  C   UNL     1      -0.715   8.416   0.000  0.00  0.00    +0.000 A 
ATOM     22  C   UNL     1      -0.715   9.241   0.000  0.00  0.00    +0.000 A 
ATOM     23  C   UNL     1       0.000   9.654   0.000  0.00  0.00    +0.000 A 
ATOM     24  C   UNL     1       0.715   9.241   0.000  0.00  0.00    +0.000 A 
ATOM     25  C   UNL     1       0.715   8.416   0.000  0.00  0.00    +0.000 A 
ATOM     26  C   UNL     1       0.000   8.004   0.000  0.00  0.00    +0.000 A 
BRANCH  23  27
ATOM     27  O   UNL     1       0.000  10.479   0.000  0.00  0.00    +0.000 OA
BRANCH  27  28
ATOM     28  C   UNL     1      -0.715  10.891   0.000  0.00  0.00    +0.000 C 
ATOM     29  F   UNL     1      -1.429  11.304   0.000  0.00  0.00    +0.000 F 
ATOM     30  F   UNL     1      -0.302  11.605   0.000  0.00  0.00    +0.000 F 
ATOM     31 CL   UNL     1      -1.127  10.177   0.000  0.00  0.00    +0.000 Cl
ENDBRANCH  27  28
ENDBRANCH  23  27
ENDBRANCH  18  26
ENDBRANCH   1  19
TORSDOF 6
