REMARK  Name = 
REMARK  2 active torsions:
REMARK  status: ('A' for Active; 'I' for Inactive)
REMARK    1  A    between atoms: C_12  and  C_13
REMARK    2  A    between atoms: C_13  and  C_14
REMARK                            x       y       z     vdW  Elec       q    Type
REMARK                         _______ _______ _______ _____ _____    ______ ____
ROOT
ATOM      1  C   UNL     1      -2.386  -1.343   0.000  0.00  0.00    +0.000 C 
ATOM      2  C   UNL     1      -2.386  -0.518   0.000  0.00  0.00    +0.000 C 
ATOM      3  C   UNL     1      -1.671  -0.106   0.000  0.00  0.00    +0.000 C 
ATOM      4  C   UNL     1      -1.671  -1.756   0.000  0.00  0.00    +0.000 C 
ATOM      5  C   UNL     1      -0.957  -1.343   0.000  0.00  0.00    +0.000 C 
ATOM      6  C   UNL     1      -0.242  -1.756   0.000  0.00  0.00    +0.000 C 
ATOM      7  C   UNL     1       0.472  -1.343   0.000  0.00  0.00    +0.000 C 
ATOM      8  C   UNL     1       0.472  -0.518   0.000  0.00  0.00    +0.000 C 
ATOM      9  C   UNL     1       1.187  -0.106   0.000  0.00  0.00    +0.000 C 
ATOM     10  C   UNL     1       1.971  -0.361   0.000  0.00  0.00    +0.000 C 
ATOM     11  C   UNL     1       2.456   0.307   0.000  0.00  0.00    +0.000 C 
ATOM     12  C   UNL     1       1.971   0.974   0.000  0.00  0.00    +0.000 C 
ATOM     13  C   UNL     1       1.187   0.719   0.000  0.00  0.00    +0.000 C 
ATOM     14  C   UNL     1       1.187   1.544   0.000  0.00  0.00    +0.000 C 
ATOM     15  C   UNL     1       0.472   1.132   0.000  0.00  0.00    +0.000 C 
ATOM     16  C   UNL     1      -0.242   0.719   0.000  0.00  0.00    +0.000 C 
ATOM     17  C   UNL     1      -0.242  -0.106   0.000  0.00  0.00    +0.000 C 
ATOM     18  C   UNL     1      -0.957  -0.518   0.000  0.00  0.00    +0.000 C 
ATOM     19  C   UNL     1      -0.957   0.307   0.000  0.00  0.00    +0.000 C 
ATOM     20  O   UNL     1      -3.100  -1.756   0.000  0.00  0.00    +0.000 OA
ATOM     21  O   UNL     1      -0.957   1.132   0.000  0.00  0.00    +0.000 OA
ATOM     22  O   UNL     1       2.719   1.323   0.000  0.00  0.00    +0.000 OA
ATOM     23 CL   UNL     1      -0.242  -2.581   0.000  0.00  0.00    +0.000 Cl
ENDROOT
BRANCH  12  24
ATOM     24  C   UNL     1       1.714   2.022   0.000  0.00  0.00    +0.000 C 
ATOM     25  O   UNL     1       0.917   2.235   0.000  0.00  0.00    +0.000 OA
BRANCH  24  26
ATOM     26  C   UNL     1       2.303   2.581   0.000  0.00  0.00    +0.000 C 
ATOM     27  O   UNL     1       3.100   2.367   0.000  0.00  0.00    +0.000 OA
ENDBRANCH  24  26
ENDBRANCH  12  24
TORSDOF 2
