REMARK  Name = 
REMARK  1 active torsions:
REMARK  status: ('A' for Active; 'I' for Inactive)
REMARK    1  A    between atoms: O_1  and  C_3
REMARK                            x       y       z     vdW  Elec       q    Type
REMARK                         _______ _______ _______ _____ _____    ______ ____
ROOT
ATOM      1  C   UNL     1      -0.357   0.412   0.000  0.00  0.00    +0.000 C 
ATOM      2  C   UNL     1      -0.357  -0.412   0.000  0.00  0.00    +0.000 C 
ATOM      3  O   UNL     1      -1.072  -0.825   0.000  0.00  0.00    +0.000 OA
ATOM      4  C   UNL     1       0.357  -0.825   0.000  0.00  0.00    +0.000 C 
ATOM      5  O   UNL     1       0.357  -1.650   0.000  0.00  0.00    +0.000 OA
ATOM      6  C   UNL     1       1.072  -0.412   0.000  0.00  0.00    +0.000 C 
ATOM      7  O   UNL     1       1.072   0.412   0.000  0.00  0.00    +0.000 OA
ATOM      8  C   UNL     1       0.357   0.825   0.000  0.00  0.00    +0.000 C 
ATOM      9  O   UNL     1       0.357   1.650   0.000  0.00  0.00    +0.000 OA
ATOM     10  C   UNL     1       1.786  -0.825   0.000  0.00  0.00    +0.000 C 
ENDROOT
BRANCH   1  11
ATOM     11  O   UNL     1      -1.072   0.825   0.000  0.00  0.00    +0.000 OA
ATOM     12  C   UNL     1      -1.786   0.412   0.000  0.00  0.00    +0.000 C 
ENDBRANCH   1  11
TORSDOF 1
