REMARK  Name = 
REMARK  4 active torsions:
REMARK  status: ('A' for Active; 'I' for Inactive)
REMARK    1  A    between atoms: N_5  and  N_6
REMARK    2  A    between atoms: C_7  and  C_8
REMARK    3  A    between atoms: C_15  and  C_16
REMARK    4  A    between atoms: N_17  and  N_18
REMARK                            x       y       z     vdW  Elec       q    Type
REMARK                         _______ _______ _______ _____ _____    ______ ____
ROOT
ATOM      1  C   UNL     1       2.143  -0.412   0.000  0.00  0.00    +0.000 A 
ATOM      2  C   UNL     1       2.858   0.000   0.000  0.00  0.00    +0.000 A 
ATOM      3  C   UNL     1       3.572  -0.412   0.000  0.00  0.00    +0.000 A 
ATOM      4  C   UNL     1       4.287   0.000   0.000  0.00  0.00    +0.000 A 
ATOM      5  C   UNL     1       4.287   0.825   0.000  0.00  0.00    +0.000 A 
ATOM      6  C   UNL     1       3.572   1.238   0.000  0.00  0.00    +0.000 A 
ATOM      7  C   UNL     1       2.858   0.825   0.000  0.00  0.00    +0.000 A 
ATOM      8  C   UNL     1       2.143   1.238   0.000  0.00  0.00    +0.000 A 
ATOM      9  C   UNL     1       1.429   0.825   0.000  0.00  0.00    +0.000 A 
ATOM     10  C   UNL     1       1.429   0.000   0.000  0.00  0.00    +0.000 A 
ATOM     11  C   UNL     1       0.715  -0.412   0.000  0.00  0.00    +0.000 A 
ATOM     12  C   UNL     1       0.000   0.000   0.000  0.00  0.00    +0.000 A 
ATOM     13  C   UNL     1       0.000   0.825   0.000  0.00  0.00    +0.000 A 
ATOM     14  C   UNL     1       0.715   1.238   0.000  0.00  0.00    +0.000 A 
ENDROOT
BRANCH   1  16
ATOM     15  N   UNL     1       1.429  -1.650   0.000  0.00  0.00    +0.000 NA
ATOM     16  C   UNL     1       2.143  -1.238   0.000  0.00  0.00    +0.000 C 
BRANCH  15  21
ATOM     17  C   UNL     1      -0.179  -3.880   0.000  0.00  0.00    +0.000 C 
ATOM     18  C   UNL     1      -0.591  -3.165   0.000  0.00  0.00    +0.000 C 
ATOM     19  N   UNL     1      -0.039  -2.552   0.000  0.00  0.00    +0.000 NA
ATOM     20  C   UNL     1       0.715  -2.888   0.000  0.00  0.00    +0.000 C 
ATOM     21  N   UNL     1       1.429  -2.475   0.000  0.00  0.00    +0.000 NA
ATOM     22  N   UNL     1       0.628  -3.708   0.000  0.00  0.00    +0.000 NA
ENDBRANCH  15  21
ENDBRANCH   1  16
BRANCH   8  23
ATOM     23  C   UNL     1       2.143   2.062   0.000  0.00  0.00    +0.000 C 
ATOM     24  N   UNL     1       2.858   2.475   0.000  0.00  0.00    +0.000 NA
BRANCH  24  25
ATOM     25  N   UNL     1       2.858   3.300   0.000  0.00  0.00    +0.000 NA
ATOM     26  C   UNL     1       3.572   3.712   0.000  0.00  0.00    +0.000 C 
ATOM     27  N   UNL     1       3.659   4.533   0.000  0.00  0.00    +0.000 NA
ATOM     28  C   UNL     1       4.466   4.705   0.000  0.00  0.00    +0.000 C 
ATOM     29  C   UNL     1       4.878   3.990   0.000  0.00  0.00    +0.000 C 
ATOM     30  N   UNL     1       4.326   3.377   0.000  0.00  0.00    +0.000 NA
ENDBRANCH  24  25
ENDBRANCH   8  23
TORSDOF 4
