REMARK  Name = 
REMARK  13 active torsions:
REMARK  status: ('A' for Active; 'I' for Inactive)
REMARK    1  A    between atoms: O_2  and  C_20
REMARK    2  A    between atoms: O_2  and  C_37
REMARK    3  A    between atoms: O_3  and  C_35
REMARK    4  A    between atoms: O_3  and  C_38
REMARK    5  A    between atoms: O_7  and  C_41
REMARK    6  A    between atoms: O_8  and  C_45
REMARK    7  A    between atoms: O_8  and  C_48
REMARK    8  A    between atoms: O_10  and  C_53
REMARK    9  A    between atoms: O_10  and  C_55
REMARK   10  A    between atoms: O_11  and  C_51
REMARK   11  A    between atoms: O_14  and  C_57
REMARK   12  A    between atoms: C_22  and  C_33
REMARK   13  A    between atoms: C_37  and  C_39
REMARK                            x       y       z     vdW  Elec       q    Type
REMARK                         _______ _______ _______ _____ _____    ______ ____
ROOT
ATOM      1  O   UNL     1       1.493  -2.500   0.000  0.00  0.00    +0.000 OA
ENDROOT
BRANCH   1  21
ATOM      2  O   UNL     1       5.932  -1.642   0.000  0.00  0.00    +0.000 OA
ATOM      3  C   UNL     1       5.932  -0.817   0.000  0.00  0.00    +0.000 C 
ATOM      4  C   UNL     1       5.932   0.008   0.000  0.00  0.00    +0.000 C 
ATOM      5  C   UNL     1       5.222  -1.229   0.000  0.00  0.00    +0.000 C 
ATOM      6  C   UNL     1       4.513  -0.817   0.000  0.00  0.00    +0.000 C 
ATOM      7  C   UNL     1       5.222   0.421   0.000  0.00  0.00    +0.000 C 
ATOM      8  C   UNL     1       3.754  -1.229   0.000  0.00  0.00    +0.000 C 
ATOM      9  C   UNL     1       6.707   0.256   0.000  0.00  0.00    +0.000 C 
ATOM     10  C   UNL     1       4.513   0.008   0.000  0.00  0.00    +0.000 C 
ATOM     11  C   UNL     1       6.707  -1.064   0.000  0.00  0.00    +0.000 C 
ATOM     12  C   UNL     1       7.186  -0.404   0.000  0.00  0.00    +0.000 C 
ATOM     13  C   UNL     1       5.239  -2.087   0.000  0.00  0.00    +0.000 C 
ATOM     14  C   UNL     1       5.932   0.833   0.000  0.00  0.00    +0.000 C 
ATOM     15  C   UNL     1       3.754  -2.087   0.000  0.00  0.00    +0.000 C 
ATOM     16  C   UNL     1       2.995  -0.767   0.000  0.00  0.00    +0.000 C 
ATOM     17  C   UNL     1       4.496  -2.516   0.000  0.00  0.00    +0.000 C 
ATOM     18  C   UNL     1       3.770  -0.404   0.000  0.00  0.00    +0.000 C 
ATOM     19  C   UNL     1       2.978  -2.549   0.000  0.00  0.00    +0.000 C 
ATOM     20  C   UNL     1       2.219  -1.196   0.000  0.00  0.00    +0.000 C 
ATOM     21  C   UNL     1       2.203  -2.104   0.000  0.00  0.00    +0.000 C 
BRANCH   9  23
ATOM     22  O   UNL     1       6.410   1.658   0.000  0.00  0.00    +0.000 OA
ATOM     23  C   UNL     1       6.971   1.048   0.000  0.00  0.00    +0.000 C 
ATOM     24  C   UNL     1       7.780   1.213   0.000  0.00  0.00    +0.000 C 
ENDBRANCH   9  23
BRANCH   7  25
ATOM     25  O   UNL     1       5.222   1.246   0.000  0.00  0.00    +0.000 OA
BRANCH  25  27
ATOM     26  O   UNL     1       3.787   1.246   0.000  0.00  0.00    +0.000 OA
ATOM     27  C   UNL     1       4.513   1.658   0.000  0.00  0.00    +0.000 C 
BRANCH  27  28
ATOM     28  C   UNL     1       4.513   2.483   0.000  0.00  0.00    +0.000 C 
ATOM     29  C   UNL     1       5.222   2.896   0.000  0.00  0.00    +0.000 C 
ATOM     30  C   UNL     1       3.787   2.896   0.000  0.00  0.00    +0.000 C 
ATOM     31  C   UNL     1       3.787   3.721   0.000  0.00  0.00    +0.000 C 
ENDBRANCH  27  28
ENDBRANCH  25  27
ENDBRANCH   7  25
ENDBRANCH   1  21
BRANCH   1  33
ATOM     32  O   UNL     1       0.784  -1.262   0.000  0.00  0.00    +0.000 OA
ATOM     33  C   UNL     1       0.784  -2.087   0.000  0.00  0.00    +0.000 C 
ATOM     34  C   UNL     1       0.058  -2.500   0.000  0.00  0.00    +0.000 C 
ATOM     35  C   UNL     1      -0.652  -2.087   0.000  0.00  0.00    +0.000 C 
ATOM     36  C   UNL     1       0.074  -0.850   0.000  0.00  0.00    +0.000 C 
ATOM     37  C   UNL     1      -0.652  -1.262   0.000  0.00  0.00    +0.000 C 
ATOM     38  C   UNL     1       0.074  -0.025   0.000  0.00  0.00    +0.000 C 
BRANCH  35  39
ATOM     39  O   UNL     1      -1.361  -2.500   0.000  0.00  0.00    +0.000 OA
ATOM     40  C   UNL     1      -1.361  -3.325   0.000  0.00  0.00    +0.000 C 
ENDBRANCH  35  39
BRANCH  37  41
ATOM     41  O   UNL     1      -1.361  -0.850   0.000  0.00  0.00    +0.000 OA
BRANCH  41  43
ATOM     42  O   UNL     1      -2.780  -0.850   0.000  0.00  0.00    +0.000 OA
ATOM     43  C   UNL     1      -2.071  -1.262   0.000  0.00  0.00    +0.000 C 
ATOM     44  C   UNL     1      -2.071  -2.087   0.000  0.00  0.00    +0.000 C 
ATOM     45  C   UNL     1      -2.797  -2.483   0.000  0.00  0.00    +0.000 C 
ATOM     46  C   UNL     1      -3.506  -1.246   0.000  0.00  0.00    +0.000 C 
ATOM     47  C   UNL     1      -3.506  -2.071   0.000  0.00  0.00    +0.000 C 
ATOM     48  C   UNL     1      -4.216  -0.833   0.000  0.00  0.00    +0.000 C 
BRANCH  45  49
ATOM     49  O   UNL     1      -2.797  -3.308   0.000  0.00  0.00    +0.000 OA
ATOM     50  C   UNL     1      -3.506  -3.721   0.000  0.00  0.00    +0.000 C 
ENDBRANCH  45  49
BRANCH  47  51
ATOM     51  O   UNL     1      -4.216  -2.483   0.000  0.00  0.00    +0.000 OA
BRANCH  51  55
ATOM     52  O   UNL     1      -4.925  -1.246   0.000  0.00  0.00    +0.000 OA
ATOM     53  O   UNL     1      -5.651  -3.308   0.000  0.00  0.00    +0.000 OA
ATOM     54  O   UNL     1      -7.070  -0.833   0.000  0.00  0.00    +0.000 OA
ATOM     55  C   UNL     1      -4.925  -2.071   0.000  0.00  0.00    +0.000 C 
ATOM     56  C   UNL     1      -5.651  -2.483   0.000  0.00  0.00    +0.000 C 
ATOM     57  C   UNL     1      -6.361  -2.071   0.000  0.00  0.00    +0.000 C 
ATOM     58  C   UNL     1      -6.361  -1.246   0.000  0.00  0.00    +0.000 C 
ATOM     59  C   UNL     1      -5.635  -0.833   0.000  0.00  0.00    +0.000 C 
ATOM     60  C   UNL     1      -5.635  -0.008   0.000  0.00  0.00    +0.000 C 
BRANCH  57  61
ATOM     61  O   UNL     1      -7.070  -2.467   0.000  0.00  0.00    +0.000 OA
ATOM     62  C   UNL     1      -7.780  -2.054   0.000  0.00  0.00    +0.000 C 
ENDBRANCH  57  61
ENDBRANCH  51  55
ENDBRANCH  47  51
ENDBRANCH  41  43
ENDBRANCH  37  41
ENDBRANCH   1  33
TORSDOF 13
