REMARK  Name = 
REMARK  6 active torsions:
REMARK  status: ('A' for Active; 'I' for Inactive)
REMARK    1  A    between atoms: N_2  and  C_3
REMARK    2  A    between atoms: C_3  and  C_4
REMARK    3  A    between atoms: N_6  and  S_19
REMARK    4  A    between atoms: C_7  and  C_11
REMARK    5  A    between atoms: C_8  and  O_9
REMARK    6  A    between atoms: S_19  and  C_22
REMARK                            x       y       z     vdW  Elec       q    Type
REMARK                         _______ _______ _______ _____ _____    ______ ____
ROOT
ATOM      1  C   UNL     1       0.715  -2.062   0.000  0.00  0.00    +0.000 A 
ATOM      2  C   UNL     1       1.382  -2.547   0.000  0.00  0.00    +0.000 A 
ATOM      3  N   UNL     1       1.127  -3.332   0.000  0.00  0.00    +0.000 N 
ATOM      4  C   UNL     1       0.302  -3.332   0.000  0.00  0.00    +0.000 A 
ATOM      5  C   UNL     1       0.047  -2.547   0.000  0.00  0.00    +0.000 A 
ENDROOT
BRANCH   4   6
ATOM      6  C   UNL     1      -0.183  -3.999   0.000  0.00  0.00    +0.000 A 
ATOM      7  C   UNL     1      -1.003  -3.913   0.000  0.00  0.00    +0.000 A 
ATOM      8  F   UNL     1      -1.339  -3.160   0.000  0.00  0.00    +0.000 F 
ATOM      9  C   UNL     1      -1.488  -4.581   0.000  0.00  0.00    +0.000 A 
ATOM     10  C   UNL     1      -1.153  -5.334   0.000  0.00  0.00    +0.000 A 
ATOM     11  F   UNL     1      -1.638  -6.002   0.000  0.00  0.00    +0.000 F 
ATOM     12  C   UNL     1      -0.332  -5.421   0.000  0.00  0.00    +0.000 A 
ATOM     13  C   UNL     1       0.153  -4.753   0.000  0.00  0.00    +0.000 A 
ENDBRANCH   4   6
BRANCH   3  14
ATOM     14  S   UNL     1       1.612  -3.999   0.000  0.00  0.00    +0.000 S 
ATOM     15  O   UNL     1       0.945  -4.484   0.000  0.00  0.00    +0.000 OA
ATOM     16  O   UNL     1       2.279  -3.515   0.000  0.00  0.00    +0.000 OA
BRANCH  14  17
ATOM     17  C   UNL     1       2.097  -4.667   0.000  0.00  0.00    +0.000 A 
ATOM     18  C   UNL     1       2.917  -4.581   0.000  0.00  0.00    +0.000 A 
ATOM     19  C   UNL     1       3.402  -5.248   0.000  0.00  0.00    +0.000 A 
ATOM     20  F   UNL     1       4.223  -5.162   0.000  0.00  0.00    +0.000 F 
ATOM     21  C   UNL     1       3.067  -6.002   0.000  0.00  0.00    +0.000 A 
ATOM     22  C   UNL     1       2.246  -6.088   0.000  0.00  0.00    +0.000 A 
ATOM     23  C   UNL     1       1.761  -5.421   0.000  0.00  0.00    +0.000 A 
ENDBRANCH  14  17
ENDBRANCH   3  14
BRANCH   5  24
ATOM     24  O   UNL     1      -0.738  -2.292   0.000  0.00  0.00    +0.000 OA
ATOM     25  C   UNL     1      -0.909  -1.486   0.000  0.00  0.00    +0.000 C 
ENDBRANCH   5  24
BRANCH   1  26
ATOM     26  C   UNL     1       0.715  -1.238   0.000  0.00  0.00    +0.000 C 
BRANCH  26  28
ATOM     27  C   UNL     1       0.000   0.000   0.000  0.00  0.00    +0.000 C 
ATOM     28  N   UNL     1       0.000  -0.825   0.000  0.00  0.00    +0.000 NA
ENDBRANCH  26  28
ENDBRANCH   1  26
TORSDOF 6
