REMARK  Name = 
REMARK  3 active torsions:
REMARK  status: ('A' for Active; 'I' for Inactive)
REMARK    1  A    between atoms: C_1  and  C_2
REMARK    2  A    between atoms: C_1  and  C_3
REMARK    3  A    between atoms: C_1  and  C_4
REMARK                            x       y       z     vdW  Elec       q    Type
REMARK                         _______ _______ _______ _____ _____    ______ ____
ROOT
ATOM      1  C   UNL     1      -0.714  -0.262   0.000  0.00  0.00    +0.000 C 
ATOM      2 BR   UNL     1      -0.302  -0.976   0.000  0.00  0.00    +0.000 Br
ENDROOT
BRANCH   1   3
ATOM      3  C   UNL     1       0.000   0.151   0.000  0.00  0.00    +0.000 C 
ATOM      4  N   UNL     1       0.714  -0.262   0.000  0.00  0.00    +0.000 NA
ATOM      5  O   UNL     1       0.000   0.976   0.000  0.00  0.00    +0.000 OA
ATOM      6  C   UNL     1       1.429   0.151   0.000  0.00  0.00    +0.000 C 
ATOM      7  N   UNL     1       2.143  -0.262   0.000  0.00  0.00    +0.000 NA
ATOM      8  O   UNL     1       1.429   0.976   0.000  0.00  0.00    +0.000 OA
ENDBRANCH   1   3
BRANCH   1   9
ATOM      9  C   UNL     1      -1.429  -0.674   0.000  0.00  0.00    +0.000 C 
ATOM     10  C   UNL     1      -2.143  -0.262   0.000  0.00  0.00    +0.000 C 
ENDBRANCH   1   9
BRANCH   1  11
ATOM     11  C   UNL     1      -1.127   0.453   0.000  0.00  0.00    +0.000 C 
ATOM     12  C   UNL     1      -1.952   0.453   0.000  0.00  0.00    +0.000 C 
ENDBRANCH   1  11
TORSDOF 3
