REMARK  Name = 
REMARK  22 active torsions:
REMARK  status: ('A' for Active; 'I' for Inactive)
REMARK    1  A    between atoms: C_3  and  C_5
REMARK    2  A    between atoms: C_5  and  C_7
REMARK    3  A    between atoms: C_7  and  C_8
REMARK    4  A    between atoms: C_8  and  C_9
REMARK    5  A    between atoms: N_11  and  C_12
REMARK    6  A    between atoms: N_11  and  C_28
REMARK    7  A    between atoms: C_12  and  C_13
REMARK    8  A    between atoms: C_13  and  C_14
REMARK    9  A    between atoms: C_14  and  N_15
REMARK   10  A    between atoms: C_16  and  C_18
REMARK   11  A    between atoms: C_18  and  C_20
REMARK   12  A    between atoms: C_20  and  C_22
REMARK   13  A    between atoms: C_22  and  C_24
REMARK   14  A    between atoms: C_24  and  C_26
REMARK   15  A    between atoms: C_28  and  C_29
REMARK   16  A    between atoms: C_29  and  C_30
REMARK   17  A    between atoms: C_30  and  N_31
REMARK   18  A    between atoms: C_32  and  C_34
REMARK   19  A    between atoms: C_34  and  C_36
REMARK   20  A    between atoms: C_36  and  C_38
REMARK   21  A    between atoms: C_38  and  C_40
REMARK   22  A    between atoms: C_40  and  C_42
REMARK                            x       y       z     vdW  Elec       q    Type
REMARK                         _______ _______ _______ _____ _____    ______ ____
ROOT
ATOM      1  C   UNL     1      -0.988   0.334   0.000  0.00  0.00    +0.000 C 
ATOM      2  O   UNL     1      -0.503  -0.334   0.000  0.00  0.00    +0.000 OA
ATOM      3  N   UNL     1      -0.653   1.087   0.000  0.00  0.00    +0.000 N 
ENDROOT
BRANCH   3   4
ATOM      4  C   UNL     1      -1.137   1.755   0.000  0.00  0.00    +0.000 C 
BRANCH   4   5
ATOM      5  C   UNL     1      -0.802   2.509   0.000  0.00  0.00    +0.000 C 
BRANCH   5   6
ATOM      6  C   UNL     1       0.018   2.595   0.000  0.00  0.00    +0.000 C 
BRANCH   6   7
ATOM      7  N   UNL     1       0.354   3.349   0.000  0.00  0.00    +0.000 NA
ATOM      8  C   UNL     1      -0.131   4.016   0.000  0.00  0.00    +0.000 C 
ATOM      9  O   UNL     1      -0.951   3.930   0.000  0.00  0.00    +0.000 OA
BRANCH   8  10
ATOM     10  C   UNL     1       0.205   4.770   0.000  0.00  0.00    +0.000 C 
ATOM     11  O   UNL     1      -0.280   5.437   0.000  0.00  0.00    +0.000 OA
BRANCH  10  12
ATOM     12  C   UNL     1       1.025   4.856   0.000  0.00  0.00    +0.000 C 
ATOM     13  O   UNL     1       1.510   4.189   0.000  0.00  0.00    +0.000 OA
BRANCH  12  14
ATOM     14  C   UNL     1       1.361   5.610   0.000  0.00  0.00    +0.000 C 
ATOM     15  O   UNL     1       0.876   6.277   0.000  0.00  0.00    +0.000 OA
BRANCH  14  16
ATOM     16  C   UNL     1       2.181   5.696   0.000  0.00  0.00    +0.000 C 
ATOM     17  O   UNL     1       2.666   5.029   0.000  0.00  0.00    +0.000 OA
BRANCH  16  18
ATOM     18  C   UNL     1       2.517   6.450   0.000  0.00  0.00    +0.000 C 
ATOM     19  O   UNL     1       3.337   6.536   0.000  0.00  0.00    +0.000 OA
ENDBRANCH  16  18
ENDBRANCH  14  16
ENDBRANCH  12  14
ENDBRANCH  10  12
ENDBRANCH   8  10
ENDBRANCH   6   7
ENDBRANCH   5   6
ENDBRANCH   4   5
ENDBRANCH   3   4
BRANCH   1  20
ATOM     20  C   UNL     1      -1.809   0.247   0.000  0.00  0.00    +0.000 C 
BRANCH  20  21
ATOM     21  C   UNL     1      -2.144  -0.506   0.000  0.00  0.00    +0.000 C 
BRANCH  21  22
ATOM     22  C   UNL     1      -2.965  -0.592   0.000  0.00  0.00    +0.000 C 
ATOM     23  C   UNL     1      -3.450   0.075   0.000  0.00  0.00    +0.000 C 
BRANCH  22  26
ATOM     24  C   UNL     1      -4.198  -1.299   0.000  0.00  0.00    +0.000 C 
ATOM     25  C   UNL     1      -3.785  -2.014   0.000  0.00  0.00    +0.000 C 
ATOM     26  C   UNL     1      -3.300  -1.346   0.000  0.00  0.00    +0.000 C 
ATOM     27  C   UNL     1      -2.516  -1.601   0.000  0.00  0.00    +0.000 C 
ATOM     28  C   UNL     1      -2.516  -2.426   0.000  0.00  0.00    +0.000 C 
ATOM     29  C   UNL     1      -3.300  -2.681   0.000  0.00  0.00    +0.000 C 
ATOM     30  C   UNL     1      -3.636  -3.435   0.000  0.00  0.00    +0.000 C 
ATOM     31  C   UNL     1      -3.151  -4.102   0.000  0.00  0.00    +0.000 C 
ATOM     32  C   UNL     1      -3.487  -4.856   0.000  0.00  0.00    +0.000 C 
ATOM     33  C   UNL     1      -4.307  -4.942   0.000  0.00  0.00    +0.000 C 
ATOM     34  C   UNL     1      -4.643  -5.696   0.000  0.00  0.00    +0.000 C 
ATOM     35  C   UNL     1      -5.463  -5.782   0.000  0.00  0.00    +0.000 C 
ATOM     36  O   UNL     1      -5.799  -6.536   0.000  0.00  0.00    +0.000 OA
ATOM     37  C   UNL     1      -5.948  -5.115   0.000  0.00  0.00    +0.000 C 
ATOM     38  C   UNL     1      -5.613  -4.361   0.000  0.00  0.00    +0.000 C 
ATOM     39  C   UNL     1      -4.792  -4.275   0.000  0.00  0.00    +0.000 C 
ATOM     40  C   UNL     1      -5.277  -3.607   0.000  0.00  0.00    +0.000 C 
ATOM     41  C   UNL     1      -4.457  -3.521   0.000  0.00  0.00    +0.000 C 
ATOM     42  C   UNL     1      -4.941  -2.853   0.000  0.00  0.00    +0.000 C 
ATOM     43  C   UNL     1      -4.606  -2.100   0.000  0.00  0.00    +0.000 C 
ATOM     44  O   UNL     1      -5.091  -1.432   0.000  0.00  0.00    +0.000 OA
ENDBRANCH  22  26
ENDBRANCH  21  22
ENDBRANCH  20  21
ENDBRANCH   1  20
BRANCH   3  45
ATOM     45  C   UNL     1       0.168   1.174   0.000  0.00  0.00    +0.000 C 
BRANCH  45  46
ATOM     46  C   UNL     1       0.503   1.927   0.000  0.00  0.00    +0.000 C 
BRANCH  46  47
ATOM     47  C   UNL     1       1.324   2.014   0.000  0.00  0.00    +0.000 C 
BRANCH  47  48
ATOM     48  N   UNL     1       1.659   2.767   0.000  0.00  0.00    +0.000 NA
ATOM     49  C   UNL     1       2.480   2.854   0.000  0.00  0.00    +0.000 C 
ATOM     50  O   UNL     1       2.965   2.186   0.000  0.00  0.00    +0.000 OA
BRANCH  49  51
ATOM     51  C   UNL     1       2.816   3.607   0.000  0.00  0.00    +0.000 C 
ATOM     52  O   UNL     1       2.331   4.275   0.000  0.00  0.00    +0.000 OA
BRANCH  51  53
ATOM     53  C   UNL     1       3.636   3.694   0.000  0.00  0.00    +0.000 C 
ATOM     54  O   UNL     1       4.121   3.026   0.000  0.00  0.00    +0.000 OA
BRANCH  53  55
ATOM     55  C   UNL     1       3.972   4.447   0.000  0.00  0.00    +0.000 C 
ATOM     56  O   UNL     1       3.487   5.115   0.000  0.00  0.00    +0.000 OA
BRANCH  55  57
ATOM     57  C   UNL     1       4.792   4.534   0.000  0.00  0.00    +0.000 C 
ATOM     58  O   UNL     1       5.277   3.866   0.000  0.00  0.00    +0.000 OA
BRANCH  57  59
ATOM     59  C   UNL     1       5.128   5.287   0.000  0.00  0.00    +0.000 C 
ATOM     60  O   UNL     1       5.948   5.373   0.000  0.00  0.00    +0.000 OA
ENDBRANCH  57  59
ENDBRANCH  55  57
ENDBRANCH  53  55
ENDBRANCH  51  53
ENDBRANCH  49  51
ENDBRANCH  47  48
ENDBRANCH  46  47
ENDBRANCH  45  46
ENDBRANCH   3  45
TORSDOF 22
