REMARK  Name = 
REMARK  2 active torsions:
REMARK  status: ('A' for Active; 'I' for Inactive)
REMARK    1  A    between atoms: C_19  and  C_20
REMARK    2  A    between atoms: C_32  and  C_34
REMARK                            x       y       z     vdW  Elec       q    Type
REMARK                         _______ _______ _______ _____ _____    ______ ____
ROOT
ATOM      1  O   UNL     1      -3.712  -0.357   0.000  0.00  0.00    +0.000 OA
ATOM      2  C   UNL     1      -2.888  -0.357   0.000  0.00  0.00    +0.000 C 
ATOM      3  C   UNL     1      -2.475  -1.072   0.000  0.00  0.00    +0.000 C 
ATOM      4  O   UNL     1      -2.888  -1.786   0.000  0.00  0.00    +0.000 OA
ATOM      5  C   UNL     1      -1.650  -1.072   0.000  0.00  0.00    +0.000 C 
ATOM      6  C   UNL     1      -1.238  -0.357   0.000  0.00  0.00    +0.000 C 
ATOM      7  C   UNL     1      -0.825  -1.072   0.000  0.00  0.00    +0.000 C 
ATOM      8  C   UNL     1      -0.412  -0.357   0.000  0.00  0.00    +0.000 C 
ATOM      9  C   UNL     1       0.000  -1.072   0.000  0.00  0.00    +0.000 C 
ATOM     10  C   UNL     1       0.825  -1.072   0.000  0.00  0.00    +0.000 C 
ATOM     11  C   UNL     1       1.237  -0.357   0.000  0.00  0.00    +0.000 C 
ATOM     12  C   UNL     1       2.062  -0.357   0.000  0.00  0.00    +0.000 C 
ATOM     13  C   UNL     1       2.475  -1.072   0.000  0.00  0.00    +0.000 C 
ATOM     14  C   UNL     1       2.062  -1.786   0.000  0.00  0.00    +0.000 C 
ATOM     15  C   UNL     1       3.300  -1.072   0.000  0.00  0.00    +0.000 C 
ATOM     16  C   UNL     1       3.712  -1.786   0.000  0.00  0.00    +0.000 C 
ATOM     17  C   UNL     1       3.712  -0.357   0.000  0.00  0.00    +0.000 C 
ATOM     18  C   UNL     1       3.300   0.357   0.000  0.00  0.00    +0.000 C 
ATOM     19  C   UNL     1       2.475   0.357   0.000  0.00  0.00    +0.000 C 
ATOM     20  C   UNL     1       2.062   1.072   0.000  0.00  0.00    +0.000 C 
ATOM     21  C   UNL     1       1.237   1.072   0.000  0.00  0.00    +0.000 C 
ATOM     22  C   UNL     1       0.825   0.357   0.000  0.00  0.00    +0.000 C 
ATOM     23  C   UNL     1       0.412   1.072   0.000  0.00  0.00    +0.000 C 
ATOM     24  C   UNL     1       0.000   0.357   0.000  0.00  0.00    +0.000 C 
ATOM     25  C   UNL     1      -0.086   1.178   0.000  0.00  0.00    +0.000 C 
ATOM     26  C   UNL     1      -0.412   1.072   0.000  0.00  0.00    +0.000 C 
ATOM     27  C   UNL     1      -1.238   1.072   0.000  0.00  0.00    +0.000 C 
ATOM     28  C   UNL     1      -1.650   0.357   0.000  0.00  0.00    +0.000 C 
ATOM     29  C   UNL     1      -2.475   0.357   0.000  0.00  0.00    +0.000 C 
ATOM     30  C   UNL     1      -2.332   1.170   0.000  0.00  0.00    +0.000 C 
ENDROOT
BRANCH  19  31
ATOM     31  C   UNL     1       2.887   1.072   0.000  0.00  0.00    +0.000 C 
ATOM     32  O   UNL     1       2.475   1.786   0.000  0.00  0.00    +0.000 OA
ATOM     33  O   UNL     1       3.712   1.072   0.000  0.00  0.00    +0.000 OA
ENDBRANCH  19  31
BRANCH  29  34
ATOM     34  C   UNL     1      -3.250   0.639   0.000  0.00  0.00    +0.000 C 
ATOM     35  O   UNL     1      -3.393   1.452   0.000  0.00  0.00    +0.000 OA
ENDBRANCH  29  34
TORSDOF 2
