REMARK  Name = 
REMARK  2 active torsions:
REMARK  status: ('A' for Active; 'I' for Inactive)
REMARK    1  A    between atoms: C_3  and  N_9
REMARK    2  A    between atoms: C_14  and  C_21
REMARK                            x       y       z     vdW  Elec       q    Type
REMARK                         _______ _______ _______ _____ _____    ______ ____
ROOT
ATOM      1  C   UNL     1       0.714  -0.206   0.000  0.00  0.00    +0.000 C 
ATOM      2  C   UNL     1       0.714   0.619   0.000  0.00  0.00    +0.000 C 
ATOM      3  C   UNL     1       1.429  -0.619   0.000  0.00  0.00    +0.000 C 
ATOM      4  C   UNL     1       0.000  -0.619   0.000  0.00  0.00    +0.000 C 
ATOM      5  C   UNL     1       0.000   1.031   0.000  0.00  0.00    +0.000 C 
ATOM      6  C   UNL     1       1.429   1.031   0.000  0.00  0.00    +0.000 C 
ATOM      7  O   UNL     1       0.714   1.444   0.000  0.00  0.00    +0.000 OA
ATOM      8  C   UNL     1       2.143  -0.206   0.000  0.00  0.00    +0.000 C 
ATOM      9  C   UNL     1      -0.715  -0.206   0.000  0.00  0.00    +0.000 C 
ATOM     10  O   UNL     1       0.000  -1.444   0.000  0.00  0.00    +0.000 OA
ATOM     11  C   UNL     1      -0.715   0.619   0.000  0.00  0.00    +0.000 C 
ATOM     12  O   UNL     1       0.000   1.856   0.000  0.00  0.00    +0.000 OA
ATOM     13  C   UNL     1       2.143   0.619   0.000  0.00  0.00    +0.000 C 
ATOM     14  O   UNL     1       1.429   1.856   0.000  0.00  0.00    +0.000 OA
ATOM     15  O   UNL     1       2.858  -0.619   0.000  0.00  0.00    +0.000 OA
ATOM     16  C   UNL     1      -1.429  -0.619   0.000  0.00  0.00    +0.000 C 
ATOM     17  C   UNL     1      -1.429   1.031   0.000  0.00  0.00    +0.000 C 
ATOM     18  C   UNL     1      -2.143  -0.206   0.000  0.00  0.00    +0.000 A 
ATOM     19  C   UNL     1      -1.429  -1.444   0.000  0.00  0.00    +0.000 C 
ATOM     20  C   UNL     1      -2.143   0.619   0.000  0.00  0.00    +0.000 A 
ATOM     21  O   UNL     1      -1.429   1.856   0.000  0.00  0.00    +0.000 OA
ATOM     22  C   UNL     1      -2.858  -0.619   0.000  0.00  0.00    +0.000 A 
ATOM     23  C   UNL     1      -2.858   1.031   0.000  0.00  0.00    +0.000 A 
ATOM     24  C   UNL     1      -3.572  -0.206   0.000  0.00  0.00    +0.000 A 
ATOM     25 CL   UNL     1      -2.858  -1.444   0.000  0.00  0.00    +0.000 Cl
ATOM     26  C   UNL     1      -3.572   0.619   0.000  0.00  0.00    +0.000 A 
ATOM     27  O   UNL     1      -2.858   1.856   0.000  0.00  0.00    +0.000 OA
ENDROOT
BRANCH   3  28
ATOM     28  N   UNL     1       1.429  -1.444   0.000  0.00  0.00    +0.000 NA
ATOM     29  C   UNL     1       2.143  -1.856   0.000  0.00  0.00    +0.000 C 
ATOM     30  C   UNL     1       0.715  -1.856   0.000  0.00  0.00    +0.000 C 
ENDBRANCH   3  28
BRANCH  13  31
ATOM     31  C   UNL     1       2.858   1.031   0.000  0.00  0.00    +0.000 C 
ATOM     32  N   UNL     1       3.572   0.619   0.000  0.00  0.00    +0.000 NA
ATOM     33  O   UNL     1       2.858   1.856   0.000  0.00  0.00    +0.000 OA
ENDBRANCH  13  31
TORSDOF 2
