REMARK  Name = 
REMARK  6 active torsions:
REMARK  status: ('A' for Active; 'I' for Inactive)
REMARK    1  A    between atoms: O_2  and  C_15
REMARK    2  A    between atoms: O_2  and  C_27
REMARK    3  A    between atoms: O_3  and  C_16
REMARK    4  A    between atoms: O_3  and  C_28
REMARK    5  A    between atoms: C_13  and  C_17
REMARK    6  A    between atoms: C_14  and  C_18
REMARK                            x       y       z     vdW  Elec       q    Type
REMARK                         _______ _______ _______ _____ _____    ______ ____
ROOT
ATOM      1 CA   UNL     1      -5.938   0.000   0.000  0.00  0.00    +0.000 Ca
ENDROOT
TORSDOF 0
REMARK  Name = 
REMARK  6 active torsions:
REMARK  status: ('A' for Active; 'I' for Inactive)
REMARK    1  A    between atoms: O_2  and  C_15
REMARK    2  A    between atoms: O_2  and  C_27
REMARK    3  A    between atoms: O_3  and  C_16
REMARK    4  A    between atoms: O_3  and  C_28
REMARK    5  A    between atoms: C_13  and  C_17
REMARK    6  A    between atoms: C_14  and  C_18
REMARK                            x       y       z     vdW  Elec       q    Type
REMARK                         _______ _______ _______ _____ _____    ______ ____
ROOT
ATOM      1  C   UNL     1      -2.862  -0.618   0.000  0.00  0.00    +0.000 A 
ATOM      2  C   UNL     1      -2.862   0.214   0.000  0.00  0.00    +0.000 A 
ATOM      3  C   UNL     1      -3.587  -1.033   0.000  0.00  0.00    +0.000 A 
ATOM      4  C   UNL     1      -3.587   0.629   0.000  0.00  0.00    +0.000 A 
ATOM      5  C   UNL     1      -4.299  -0.618   0.000  0.00  0.00    +0.000 A 
ATOM      6  C   UNL     1      -4.299   0.214   0.000  0.00  0.00    +0.000 A 
ENDROOT
BRANCH   1   9
ATOM      7  O   UNL     1      -2.162  -1.853   0.000  0.00  0.00    +0.000 OA
ATOM      8  O   UNL     1      -1.449  -0.618   0.000  0.00  0.00    +0.000 OA
ATOM      9  C   UNL     1      -2.162  -1.033   0.000  0.00  0.00    +0.000 C 
ENDBRANCH   1   9
BRANCH   2  10
ATOM     10  O   UNL     1      -2.150   0.618   0.000  0.00  0.00    +0.000 OA
BRANCH  10  12
ATOM     11  O   UNL     1      -2.862   1.853   0.000  0.00  0.00    +0.000 OA
ATOM     12  C   UNL     1      -2.150   1.437   0.000  0.00  0.00    +0.000 C 
ATOM     13  C   UNL     1      -1.437   1.853   0.000  0.00  0.00    +0.000 C 
ENDBRANCH  10  12
ENDBRANCH   2  10
TORSDOF 3
REMARK  Name = 
REMARK  6 active torsions:
REMARK  status: ('A' for Active; 'I' for Inactive)
REMARK    1  A    between atoms: O_2  and  C_15
REMARK    2  A    between atoms: O_2  and  C_27
REMARK    3  A    between atoms: O_3  and  C_16
REMARK    4  A    between atoms: O_3  and  C_28
REMARK    5  A    between atoms: C_13  and  C_17
REMARK    6  A    between atoms: C_14  and  C_18
REMARK                            x       y       z     vdW  Elec       q    Type
REMARK                         _______ _______ _______ _____ _____    ______ ____
ROOT
ATOM      1  C   UNL     1       1.627  -0.618   0.000  0.00  0.00    +0.000 A 
ATOM      2  C   UNL     1       1.627   0.214   0.000  0.00  0.00    +0.000 A 
ATOM      3  C   UNL     1       0.914  -1.033   0.000  0.00  0.00    +0.000 A 
ATOM      4  C   UNL     1       0.914   0.629   0.000  0.00  0.00    +0.000 A 
ATOM      5  C   UNL     1       0.202  -0.618   0.000  0.00  0.00    +0.000 A 
ATOM      6  C   UNL     1       0.202   0.214   0.000  0.00  0.00    +0.000 A 
ENDROOT
BRANCH   1   9
ATOM      7  O   UNL     1       2.340  -1.853   0.000  0.00  0.00    +0.000 OA
ATOM      8  O   UNL     1       3.052  -0.618   0.000  0.00  0.00    +0.000 OA
ATOM      9  C   UNL     1       2.340  -1.033   0.000  0.00  0.00    +0.000 C 
ENDBRANCH   1   9
BRANCH   2  10
ATOM     10  O   UNL     1       2.340   0.618   0.000  0.00  0.00    +0.000 OA
BRANCH  10  12
ATOM     11  O   UNL     1       1.639   1.853   0.000  0.00  0.00    +0.000 OA
ATOM     12  C   UNL     1       2.351   1.437   0.000  0.00  0.00    +0.000 C 
ATOM     13  C   UNL     1       3.064   1.853   0.000  0.00  0.00    +0.000 C 
ENDBRANCH  10  12
ENDBRANCH   2  10
TORSDOF 3
REMARK  Name = 
REMARK  6 active torsions:
REMARK  status: ('A' for Active; 'I' for Inactive)
REMARK    1  A    between atoms: O_2  and  C_15
REMARK    2  A    between atoms: O_2  and  C_27
REMARK    3  A    between atoms: O_3  and  C_16
REMARK    4  A    between atoms: O_3  and  C_28
REMARK    5  A    between atoms: C_13  and  C_17
REMARK    6  A    between atoms: C_14  and  C_18
REMARK                            x       y       z     vdW  Elec       q    Type
REMARK                         _______ _______ _______ _____ _____    ______ ____
ROOT
ATOM      1  O   UNL     1       4.703   0.000   0.000  0.00  0.00    +0.000 OA
ATOM      2  N   UNL     1       5.938   0.713   0.000  0.00  0.00    +0.000 NA
ATOM      3  N   UNL     1       5.938  -0.713   0.000  0.00  0.00    +0.000 NA
ATOM      4  C   UNL     1       5.522   0.000   0.000  0.00  0.00    +0.000 C 
ENDROOT
TORSDOF 0
