REMARK  Name = 
REMARK  3 active torsions:
REMARK  status: ('A' for Active; 'I' for Inactive)
REMARK    1  A    between atoms: C_1  and  C_2
REMARK    2  A    between atoms: C_1  and  C_7
REMARK    3  A    between atoms: C_2  and  C_8
REMARK                            x       y       z     vdW  Elec       q    Type
REMARK                         _______ _______ _______ _____ _____    ______ ____
ROOT
ATOM      1  C   UNL     1      -0.357  -0.206   0.000  0.00  0.00    +0.000 C 
ATOM      2  O   UNL     1      -0.357  -1.031   0.000  0.00  0.00    +0.000 OA
ENDROOT
BRANCH   1   3
ATOM      3  C   UNL     1       0.357   0.206   0.000  0.00  0.00    +0.000 C 
ATOM      4  O   UNL     1       0.357   1.031   0.000  0.00  0.00    +0.000 OA
BRANCH   3   6
ATOM      5  O   UNL     1       1.786   0.206   0.000  0.00  0.00    +0.000 OA
ATOM      6  C   UNL     1       1.072  -0.206   0.000  0.00  0.00    +0.000 C 
ENDBRANCH   3   6
ENDBRANCH   1   3
BRANCH   1   8
ATOM      7  O   UNL     1      -1.786  -0.206   0.000  0.00  0.00    +0.000 OA
ATOM      8  C   UNL     1      -1.072   0.206   0.000  0.00  0.00    +0.000 C 
ENDBRANCH   1   8
TORSDOF 3
