REMARK  Name = 
REMARK  12 active torsions:
REMARK  status: ('A' for Active; 'I' for Inactive)
REMARK    1  A    between atoms: N_1  and  C_3
REMARK    2  A    between atoms: N_1  and  C_12
REMARK    3  A    between atoms: C_2  and  C_5
REMARK    4  A    between atoms: N_4  and  C_5
REMARK    5  A    between atoms: N_4  and  C_9
REMARK    6  A    between atoms: C_6  and  C_9
REMARK    7  A    between atoms: C_6  and  O_18
REMARK    8  A    between atoms: C_9  and  C_17
REMARK    9  A    between atoms: C_12  and  C_13
REMARK   10  A    between atoms: C_17  and  C_20
REMARK   11  A    between atoms: O_18  and  C_25
REMARK   12  A    between atoms: C_20  and  C_21
REMARK                            x       y       z     vdW  Elec       q    Type
REMARK                         _______ _______ _______ _____ _____    ______ ____
ROOT
ATOM      1  C   UNL     1       0.975   1.089   0.000  0.00  0.00    +0.000 C 
ATOM      2  C   UNL     1       0.975   2.247   0.000  0.00  0.00    +0.000 C 
ENDROOT
BRANCH   1   4
ATOM      3  N   UNL     1       1.697  -0.173   0.000  0.00  0.00    +0.000 N 
ATOM      4  C   UNL     1       1.702   0.792   0.000  0.00  0.00    +0.000 C 
ATOM      5  O   UNL     1       2.306   1.148   0.000  0.00  0.00    +0.000 OA
BRANCH   3   6
ATOM      6  C   UNL     1       0.915  -0.633   0.000  0.00  0.00    +0.000 C 
ATOM      7  C   UNL     1       0.188  -0.287   0.000  0.00  0.00    +0.000 C 
ATOM      8  C   UNL     1       0.910  -1.420   0.000  0.00  0.00    +0.000 C 
ATOM      9  C   UNL     1      -0.406  -0.930   0.000  0.00  0.00    +0.000 A 
ATOM     10  C   UNL     1       0.020  -1.643   0.000  0.00  0.00    +0.000 A 
ATOM     11  C   UNL     1      -1.252  -0.930   0.000  0.00  0.00    +0.000 A 
ATOM     12  C   UNL     1      -0.406  -2.400   0.000  0.00  0.00    +0.000 A 
ATOM     13  C   UNL     1      -1.653  -1.643   0.000  0.00  0.00    +0.000 A 
ATOM     14  C   UNL     1      -1.252  -2.400   0.000  0.00  0.00    +0.000 A 
ENDBRANCH   3   6
BRANCH   3  15
ATOM     15  C   UNL     1       2.489  -0.648   0.000  0.00  0.00    +0.000 C 
BRANCH  15  16
ATOM     16  C   UNL     1       3.286  -0.247   0.000  0.00  0.00    +0.000 C 
ATOM     17  O   UNL     1       3.261   0.554   0.000  0.00  0.00    +0.000 OA
ATOM     18  O   UNL     1       4.043  -0.559   0.000  0.00  0.00    +0.000 OA
ENDBRANCH  15  16
ENDBRANCH   3  15
ENDBRANCH   1   4
BRANCH   1  19
ATOM     19  N   UNL     1       0.213   0.678   0.000  0.00  0.00    +0.000 NA
BRANCH  19  20
ATOM     20  C   UNL     1      -0.539   1.089   0.000  0.00  0.00    +0.000 C 
BRANCH  20  21
ATOM     21  C   UNL     1      -0.539   1.955   0.000  0.00  0.00    +0.000 C 
ATOM     22  O   UNL     1       0.129   2.400   0.000  0.00  0.00    +0.000 OA
BRANCH  21  23
ATOM     23  O   UNL     1      -1.237   2.351   0.000  0.00  0.00    +0.000 OA
BRANCH  23  24
ATOM     24  C   UNL     1      -1.935   1.970   0.000  0.00  0.00    +0.000 C 
ATOM     25  C   UNL     1      -2.722   2.380   0.000  0.00  0.00    +0.000 C 
ENDBRANCH  23  24
ENDBRANCH  21  23
ENDBRANCH  20  21
BRANCH  20  26
ATOM     26  C   UNL     1      -1.212   0.658   0.000  0.00  0.00    +0.000 C 
BRANCH  26  27
ATOM     27  C   UNL     1      -1.920   1.044   0.000  0.00  0.00    +0.000 C 
BRANCH  27  28
ATOM     28  C   UNL     1      -2.618   0.628   0.000  0.00  0.00    +0.000 A 
ATOM     29  C   UNL     1      -2.618  -0.168   0.000  0.00  0.00    +0.000 A 
ATOM     30  C   UNL     1      -3.330   1.044   0.000  0.00  0.00    +0.000 A 
ATOM     31  C   UNL     1      -3.330  -0.574   0.000  0.00  0.00    +0.000 A 
ATOM     32  C   UNL     1      -4.043   0.628   0.000  0.00  0.00    +0.000 A 
ATOM     33  C   UNL     1      -4.043  -0.168   0.000  0.00  0.00    +0.000 A 
ENDBRANCH  27  28
ENDBRANCH  26  27
ENDBRANCH  20  26
ENDBRANCH  19  20
ENDBRANCH   1  19
TORSDOF 12
