REMARK  Name = 
REMARK  3 active torsions:
REMARK  status: ('A' for Active; 'I' for Inactive)
REMARK    1  A    between atoms: C_2  and  C_5
REMARK    2  A    between atoms: C_8  and  O_9
REMARK    3  A    between atoms: O_9  and  C_10
REMARK                            x       y       z     vdW  Elec       q    Type
REMARK                         _______ _______ _______ _____ _____    ______ ____
ROOT
ATOM      1  C   UNL     1       2.143  -1.238   0.000  0.00  0.00    +0.000 A 
ATOM      2  C   UNL     1       2.858  -1.650   0.000  0.00  0.00    +0.000 A 
ATOM      3  C   UNL     1       2.858  -2.475   0.000  0.00  0.00    +0.000 A 
ATOM      4  C   UNL     1       2.143  -2.888   0.000  0.00  0.00    +0.000 A 
ATOM      5  C   UNL     1       1.429  -2.475   0.000  0.00  0.00    +0.000 A 
ATOM      6  C   UNL     1       1.429  -1.650   0.000  0.00  0.00    +0.000 A 
ENDROOT
BRANCH   1   8
ATOM      7  C   UNL     1       2.143   0.412   0.000  0.00  0.00    +0.000 C 
ATOM      8  C   UNL     1       2.143  -0.412   0.000  0.00  0.00    +0.000 C 
ATOM      9  C   UNL     1       1.318  -0.412   0.000  0.00  0.00    +0.000 C 
ATOM     10  C   UNL     1       2.968  -0.412   0.000  0.00  0.00    +0.000 C 
ENDBRANCH   1   8
BRANCH   4  11
ATOM     11  O   UNL     1       2.143  -3.712   0.000  0.00  0.00    +0.000 OA
BRANCH  11  12
ATOM     12  C   UNL     1       1.429  -4.125   0.000  0.00  0.00    +0.000 A 
ATOM     13  C   UNL     1       1.429  -4.950   0.000  0.00  0.00    +0.000 A 
ATOM     14  C   UNL     1       0.715  -5.362   0.000  0.00  0.00    +0.000 A 
ATOM     15  C   UNL     1       0.000  -4.950   0.000  0.00  0.00    +0.000 A 
ATOM     16  N   UNL     1      -0.715  -5.362   0.000  0.00  0.00    +0.000 NA
ATOM     17  C   UNL     1       0.000  -4.125   0.000  0.00  0.00    +0.000 A 
ATOM     18  N   UNL     1       0.715  -3.712   0.000  0.00  0.00    +0.000 NA
ENDBRANCH  11  12
ENDBRANCH   4  11
TORSDOF 3
