REMARK  Name = 
REMARK  4 active torsions:
REMARK  status: ('A' for Active; 'I' for Inactive)
REMARK    1  A    between atoms: C_1  and  C_2
REMARK    2  A    between atoms: C_1  and  C_3
REMARK    3  A    between atoms: C_2  and  C_4
REMARK    4  A    between atoms: C_3  and  C_5
REMARK                            x       y       z     vdW  Elec       q    Type
REMARK                         _______ _______ _______ _____ _____    ______ ____
ROOT
ATOM      1  C   UNL     1       0.825  -1.650   0.000  0.00  0.00    +0.000 C 
ATOM      2  F   UNL     1       1.650  -1.650   0.000  0.00  0.00    +0.000 F 
ATOM      3  F   UNL     1       0.000  -1.650   0.000  0.00  0.00    +0.000 F 
ENDROOT
BRANCH   1   4
ATOM      4  C   UNL     1       0.825  -2.475   0.000  0.00  0.00    +0.000 C 
ATOM      5  F   UNL     1       1.650  -2.475   0.000  0.00  0.00    +0.000 F 
ATOM      6  F   UNL     1       0.000  -2.475   0.000  0.00  0.00    +0.000 F 
BRANCH   4   7
ATOM      7  C   UNL     1       0.825  -3.300   0.000  0.00  0.00    +0.000 C 
ATOM      8  F   UNL     1       0.825  -4.125   0.000  0.00  0.00    +0.000 F 
ATOM      9  F   UNL     1       1.650  -3.300   0.000  0.00  0.00    +0.000 F 
ATOM     10  F   UNL     1       0.000  -3.300   0.000  0.00  0.00    +0.000 F 
ENDBRANCH   4   7
ENDBRANCH   1   4
BRANCH   1  11
ATOM     11  C   UNL     1       0.825  -0.825   0.000  0.00  0.00    +0.000 C 
ATOM     12  F   UNL     1       1.650  -0.825   0.000  0.00  0.00    +0.000 F 
ATOM     13  F   UNL     1       0.000  -0.825   0.000  0.00  0.00    +0.000 F 
BRANCH  11  14
ATOM     14  C   UNL     1       0.825   0.000   0.000  0.00  0.00    +0.000 C 
ATOM     15  F   UNL     1       0.825   0.825   0.000  0.00  0.00    +0.000 F 
ATOM     16  F   UNL     1       1.650   0.000   0.000  0.00  0.00    +0.000 F 
ATOM     17  F   UNL     1       0.000   0.000   0.000  0.00  0.00    +0.000 F 
ENDBRANCH  11  14
ENDBRANCH   1  11
TORSDOF 4
