REMARK  Name = 
REMARK  11 active torsions:
REMARK  status: ('A' for Active; 'I' for Inactive)
REMARK    1  A    between atoms: O_2  and  C_3
REMARK    2  A    between atoms: C_5  and  C_31
REMARK    3  A    between atoms: C_8  and  C_9
REMARK    4  A    between atoms: C_9  and  C_10
REMARK    5  A    between atoms: C_17  and  C_20
REMARK    6  A    between atoms: N_22  and  C_23
REMARK    7  A    between atoms: C_23  and  C_24
REMARK    8  A    between atoms: C_24  and  C_26
REMARK    9  A    between atoms: C_26  and  C_27
REMARK   10  A    between atoms: N_33  and  S_34
REMARK   11  A    between atoms: S_34  and  C_37
REMARK                            x       y       z     vdW  Elec       q    Type
REMARK                         _______ _______ _______ _____ _____    ______ ____
ROOT
ATOM      1  C   UNL     1      -0.398   0.754   0.000  0.00  0.00    +0.000 C 
ENDROOT
BRANCH   1   2
ATOM      2  C   UNL     1      -0.143  -0.030   0.000  0.00  0.00    +0.000 A 
ATOM      3  C   UNL     1      -0.628  -0.698   0.000  0.00  0.00    +0.000 A 
ATOM      4  N   UNL     1      -0.143  -1.365   0.000  0.00  0.00    +0.000 N 
ATOM      5  C   UNL     1      -0.398  -2.150   0.000  0.00  0.00    +0.000 C 
ATOM      6  C   UNL     1       0.641  -1.110   0.000  0.00  0.00    +0.000 A 
ATOM      7  C   UNL     1       0.641  -0.285   0.000  0.00  0.00    +0.000 A 
ATOM      8  C   UNL     1       1.356   0.127   0.000  0.00  0.00    +0.000 A 
ATOM      9  C   UNL     1       2.070  -0.285   0.000  0.00  0.00    +0.000 A 
ATOM     10  C   UNL     1       2.070  -1.110   0.000  0.00  0.00    +0.000 A 
ATOM     11  C   UNL     1       1.356  -1.523   0.000  0.00  0.00    +0.000 A 
BRANCH   9  12
ATOM     12  C   UNL     1       2.784   0.127   0.000  0.00  0.00    +0.000 C 
ATOM     13  O   UNL     1       2.784   0.952   0.000  0.00  0.00    +0.000 OA
ATOM     14  N   UNL     1       3.499  -0.285   0.000  0.00  0.00    +0.000 NA
BRANCH  14  15
ATOM     15  C   UNL     1       4.213   0.127   0.000  0.00  0.00    +0.000 C 
BRANCH  15  16
ATOM     16  C   UNL     1       4.928  -0.285   0.000  0.00  0.00    +0.000 C 
ATOM     17  C   UNL     1       4.928  -1.110   0.000  0.00  0.00    +0.000 C 
BRANCH  16  18
ATOM     18  C   UNL     1       5.642   0.127   0.000  0.00  0.00    +0.000 C 
BRANCH  18  19
ATOM     19  C   UNL     1       6.357  -0.285   0.000  0.00  0.00    +0.000 C 
ATOM     20  F   UNL     1       7.071  -0.698   0.000  0.00  0.00    +0.000 F 
ATOM     21  F   UNL     1       6.769   0.429   0.000  0.00  0.00    +0.000 F 
ATOM     22  F   UNL     1       5.944  -1.000   0.000  0.00  0.00    +0.000 F 
ENDBRANCH  18  19
ENDBRANCH  16  18
ENDBRANCH  15  16
ENDBRANCH  14  15
ENDBRANCH   9  12
ENDBRANCH   1   2
BRANCH   1  28
ATOM     23  C   UNL     1      -1.758   0.313   0.000  0.00  0.00    +0.000 A 
ATOM     24  C   UNL     1      -2.564   0.484   0.000  0.00  0.00    +0.000 A 
ATOM     25  C   UNL     1      -2.819   1.269   0.000  0.00  0.00    +0.000 A 
ATOM     26  C   UNL     1      -2.267   1.882   0.000  0.00  0.00    +0.000 A 
ATOM     27  C   UNL     1      -1.460   1.710   0.000  0.00  0.00    +0.000 A 
ATOM     28  C   UNL     1      -1.205   0.926   0.000  0.00  0.00    +0.000 A 
BRANCH  25  29
ATOM     29  C   UNL     1      -3.626   1.440   0.000  0.00  0.00    +0.000 C 
ATOM     30  O   UNL     1      -3.881   2.225   0.000  0.00  0.00    +0.000 OA
ATOM     31  N   UNL     1      -4.178   0.827   0.000  0.00  0.00    +0.000 NA
BRANCH  31  32
ATOM     32  S   UNL     1      -4.985   0.999   0.000  0.00  0.00    +0.000 S 
ATOM     33  O   UNL     1      -4.814   1.806   0.000  0.00  0.00    +0.000 OA
ATOM     34  O   UNL     1      -5.157   0.192   0.000  0.00  0.00    +0.000 OA
BRANCH  32  35
ATOM     35  C   UNL     1      -5.792   1.170   0.000  0.00  0.00    +0.000 A 
ATOM     36  C   UNL     1      -6.344   0.557   0.000  0.00  0.00    +0.000 A 
ATOM     37  C   UNL     1      -7.151   0.729   0.000  0.00  0.00    +0.000 A 
ATOM     38  C   UNL     1      -7.406   1.513   0.000  0.00  0.00    +0.000 A 
ATOM     39  C   UNL     1      -6.854   2.126   0.000  0.00  0.00    +0.000 A 
ATOM     40  C   UNL     1      -6.047   1.955   0.000  0.00  0.00    +0.000 A 
ATOM     41  C   UNL     1      -5.495   2.568   0.000  0.00  0.00    +0.000 C 
ENDBRANCH  32  35
ENDBRANCH  31  32
ENDBRANCH  25  29
BRANCH  23  43
ATOM     42  C   UNL     1      -2.054  -1.085   0.000  0.00  0.00    +0.000 C 
ATOM     43  O   UNL     1      -1.502  -0.472   0.000  0.00  0.00    +0.000 OA
ENDBRANCH  23  43
ENDBRANCH   1  28
TORSDOF 11
