REMARK  Name = 
REMARK  6 active torsions:
REMARK  status: ('A' for Active; 'I' for Inactive)
REMARK    1  A    between atoms: N_1  and  C_4
REMARK    2  A    between atoms: C_2  and  C_5
REMARK    3  A    between atoms: C_4  and  C_8
REMARK    4  A    between atoms: C_5  and  C_9
REMARK    5  A    between atoms: C_8  and  C_10
REMARK    6  A    between atoms: C_9  and  C_10
REMARK                            x       y       z     vdW  Elec       q    Type
REMARK                         _______ _______ _______ _____ _____    ______ ____
ROOT
ATOM      1  C   UNK     1       0.357  -0.206   0.000  0.00  0.00    +0.000 C 
ENDROOT
BRANCH   1   2
ATOM      2  C   UNK     1      -0.357   0.206   0.000  0.00  0.00    +0.000 C 
BRANCH   2   3
ATOM      3  C   UNK     1      -1.072  -0.206   0.000  0.00  0.00    +0.000 C 
BRANCH   3   4
ATOM      4  N   UNK     1      -1.786   0.206   0.000  0.00  0.00    +0.000 NA
ATOM      5  C   UNK     1      -2.501  -0.206   0.000  0.00  0.00    +0.000 C 
ATOM      6  N   UNK     1      -3.215   0.206   0.000  0.00  0.00    +0.000 NA
ATOM      7  N   UNK     1      -2.501  -1.031   0.000  0.00  0.00    +0.000 NA
ENDBRANCH   3   4
ENDBRANCH   2   3
ENDBRANCH   1   2
BRANCH   1   8
ATOM      8  C   UNK     1       1.072   0.206   0.000  0.00  0.00    +0.000 C 
BRANCH   8   9
ATOM      9  C   UNK     1       1.786  -0.206   0.000  0.00  0.00    +0.000 C 
ATOM     10  N   UNK     1       1.786  -1.031   0.000  0.00  0.00    +0.000 NA
BRANCH   9  11
ATOM     11  C   UNK     1       2.501   0.206   0.000  0.00  0.00    +0.000 C 
ATOM     12  O   UNK     1       3.215  -0.206   0.000  0.00  0.00    +0.000 OA
ATOM     13  O   UNK     1       2.501   1.031   0.000  0.00  0.00    +0.000 OA
ENDBRANCH   9  11
ENDBRANCH   8   9
ENDBRANCH   1   8
TORSDOF 6
