REMARK  Name = 
REMARK  6 active torsions:
REMARK  status: ('A' for Active; 'I' for Inactive)
REMARK    1  A    between atoms: C_11  and  C_19
REMARK    2  A    between atoms: C_12  and  C_22
REMARK    3  A    between atoms: C_13  and  C_16
REMARK    4  A    between atoms: C_16  and  N_24
REMARK    5  A    between atoms: C_18  and  C_20
REMARK    6  A    between atoms: C_20  and  C_21
REMARK                            x       y       z     vdW  Elec       q    Type
REMARK                         _______ _______ _______ _____ _____    ______ ____
ROOT
ATOM      1  C   UNL     1       3.466   3.528   0.000  0.00  0.00    +0.000 C 
ATOM      2  C   UNL     1       3.466   4.353   0.000  0.00  0.00    +0.000 C 
ENDROOT
BRANCH   2   9
ATOM      3  C   UNL     1       6.324   6.003   0.000  0.00  0.00    +0.000 C 
ATOM      4  C   UNL     1       4.895   6.003   0.000  0.00  0.00    +0.000 A 
ATOM      5  C   UNL     1       5.609   4.765   0.000  0.00  0.00    +0.000 A 
ATOM      6  C   UNL     1       4.180   5.590   0.000  0.00  0.00    +0.000 A 
ATOM      7  C   UNL     1       4.895   4.353   0.000  0.00  0.00    +0.000 A 
ATOM      8  C   UNL     1       5.609   5.590   0.000  0.00  0.00    +0.000 A 
ATOM      9  C   UNL     1       4.180   4.765   0.000  0.00  0.00    +0.000 A 
ENDBRANCH   2   9
BRANCH   2  14
ATOM     10  C   UNL     1       2.037   6.003   0.000  0.00  0.00    +0.000 A 
ATOM     11  C   UNL     1       1.322   5.590   0.000  0.00  0.00    +0.000 A 
ATOM     12  C   UNL     1       2.751   5.590   0.000  0.00  0.00    +0.000 A 
ATOM     13  C   UNL     1       1.322   4.765   0.000  0.00  0.00    +0.000 A 
ATOM     14  C   UNL     1       2.751   4.765   0.000  0.00  0.00    +0.000 A 
ATOM     15  N   UNL     1       2.037   4.353   0.000  0.00  0.00    +0.000 NA
BRANCH  13  16
ATOM     16  C   UNL     1       0.608   4.353   0.000  0.00  0.00    +0.000 C 
ATOM     17  C   UNL     1      -0.107   4.765   0.000  0.00  0.00    +0.000 C 
BRANCH  17  18
ATOM     18  C   UNL     1      -0.821   4.353   0.000  0.00  0.00    +0.000 C 
ATOM     19  O   UNL     1      -0.821   3.528   0.000  0.00  0.00    +0.000 OA
ATOM     20  O   UNL     1      -1.536   4.765   0.000  0.00  0.00    +0.000 OA
ENDBRANCH  17  18
ENDBRANCH  13  16
ENDBRANCH   2  14
BRANCH   1  21
ATOM     21  C   UNL     1       4.180   3.115   0.000  0.00  0.00    +0.000 C 
BRANCH  21  26
ATOM     22  C   UNL     1       3.768   1.021   0.000  0.00  0.00    +0.000 C 
ATOM     23  C   UNL     1       4.593   1.021   0.000  0.00  0.00    +0.000 C 
ATOM     24  C   UNL     1       3.513   1.805   0.000  0.00  0.00    +0.000 C 
ATOM     25  C   UNL     1       4.848   1.805   0.000  0.00  0.00    +0.000 C 
ATOM     26  N   UNL     1       4.180   2.290   0.000  0.00  0.00    +0.000 NA
ENDBRANCH  21  26
ENDBRANCH   1  21
TORSDOF 6
