REMARK  Name = 
REMARK  7 active torsions:
REMARK  status: ('A' for Active; 'I' for Inactive)
REMARK    1  A    between atoms: C_4  and  N_8
REMARK    2  A    between atoms: C_9  and  C_11
REMARK    3  A    between atoms: C_14  and  C_17
REMARK    4  A    between atoms: C_17  and  N_18
REMARK    5  A    between atoms: C_19  and  O_21
REMARK    6  A    between atoms: O_21  and  C_22
REMARK    7  A    between atoms: C_22  and  C_23
REMARK                            x       y       z     vdW  Elec       q    Type
REMARK                         _______ _______ _______ _____ _____    ______ ____
ROOT
ATOM      1  C   UNL     1       0.000  -4.950   0.000  0.00  0.00    +0.000 A 
ATOM      2  C   UNL     1       0.000  -4.125   0.000  0.00  0.00    +0.000 A 
ATOM      3  C   UNL     1       0.715  -3.712   0.000  0.00  0.00    +0.000 A 
ATOM      4  C   UNL     1       1.429  -4.125   0.000  0.00  0.00    +0.000 A 
ATOM      5  C   UNL     1       1.429  -4.950   0.000  0.00  0.00    +0.000 A 
ATOM      6  C   UNL     1       0.715  -5.362   0.000  0.00  0.00    +0.000 A 
ENDROOT
BRANCH   1   8
ATOM      7  N   UNL     1      -0.715  -6.188   0.000  0.00  0.00    +0.000 NA
ATOM      8  C   UNL     1      -0.715  -5.362   0.000  0.00  0.00    +0.000 C 
ATOM      9  O   UNL     1      -1.429  -4.950   0.000  0.00  0.00    +0.000 OA
BRANCH   7  13
ATOM     10  C   UNL     1      -2.858  -7.425   0.000  0.00  0.00    +0.000 A 
ATOM     11  C   UNL     1      -2.858  -6.600   0.000  0.00  0.00    +0.000 A 
ATOM     12  C   UNL     1      -2.143  -6.188   0.000  0.00  0.00    +0.000 A 
ATOM     13  C   UNL     1      -1.429  -6.600   0.000  0.00  0.00    +0.000 A 
ATOM     14  C   UNL     1      -1.429  -7.425   0.000  0.00  0.00    +0.000 A 
ATOM     15  C   UNL     1      -2.143  -7.838   0.000  0.00  0.00    +0.000 A 
ATOM     16  N   UNL     1      -0.715  -7.838   0.000  0.00  0.00    +0.000 NA
ENDBRANCH   7  13
ENDBRANCH   1   8
BRANCH   4  17
ATOM     17  C   UNL     1       2.143  -3.712   0.000  0.00  0.00    +0.000 C 
BRANCH  17  18
ATOM     18  N   UNL     1       2.858  -4.125   0.000  0.00  0.00    +0.000 NA
ATOM     19  C   UNL     1       3.572  -3.712   0.000  0.00  0.00    +0.000 C 
ATOM     20  O   UNL     1       3.572  -2.888   0.000  0.00  0.00    +0.000 OA
BRANCH  19  21
ATOM     21  O   UNL     1       4.287  -4.125   0.000  0.00  0.00    +0.000 OA
BRANCH  21  22
ATOM     22  C   UNL     1       5.001  -3.712   0.000  0.00  0.00    +0.000 C 
BRANCH  22  23
ATOM     23  C   UNL     1       5.716  -4.125   0.000  0.00  0.00    +0.000 A 
ATOM     24  C   UNL     1       6.430  -3.712   0.000  0.00  0.00    +0.000 A 
ATOM     25  N   UNL     1       7.145  -4.125   0.000  0.00  0.00    +0.000 NA
ATOM     26  C   UNL     1       7.145  -4.950   0.000  0.00  0.00    +0.000 A 
ATOM     27  C   UNL     1       6.430  -5.362   0.000  0.00  0.00    +0.000 A 
ATOM     28  C   UNL     1       5.716  -4.950   0.000  0.00  0.00    +0.000 A 
ENDBRANCH  22  23
ENDBRANCH  21  22
ENDBRANCH  19  21
ENDBRANCH  17  18
ENDBRANCH   4  17
TORSDOF 7
