REMARK  Name = 
REMARK  8 active torsions:
REMARK  status: ('A' for Active; 'I' for Inactive)
REMARK    1  A    between atoms: C_2  and  O_31
REMARK    2  A    between atoms: C_4  and  C_27
REMARK    3  A    between atoms: C_19  and  O_20
REMARK    4  A    between atoms: C_27  and  C_29
REMARK    5  A    between atoms: O_31  and  C_32
REMARK    6  A    between atoms: C_36  and  O_37
REMARK    7  A    between atoms: O_37  and  C_38
REMARK    8  A    between atoms: C_38  and  C_39
REMARK                            x       y       z     vdW  Elec       q    Type
REMARK                         _______ _______ _______ _____ _____    ______ ____
ROOT
ATOM      1  C   UNL     1      -1.429  -4.125   0.000  0.00  0.00    +0.000 C 
ATOM      2  C   UNL     1      -2.143  -3.712   0.000  0.00  0.00    +0.000 C 
ATOM      3  C   UNL     1      -2.143  -2.888   0.000  0.00  0.00    +0.000 C 
ATOM      4  O   UNL     1      -2.956  -3.031   0.000  0.00  0.00    +0.000 OA
ATOM      5  C   UNL     1      -1.429  -2.475   0.000  0.00  0.00    +0.000 C 
ATOM      6  C   UNL     1      -0.715  -2.888   0.000  0.00  0.00    +0.000 A 
ATOM      7  C   UNL     1       0.000  -2.475   0.000  0.00  0.00    +0.000 A 
ATOM      8  O   UNL     1       0.000  -1.650   0.000  0.00  0.00    +0.000 OA
ATOM      9  C   UNL     1       0.715  -2.888   0.000  0.00  0.00    +0.000 A 
ATOM     10  C   UNL     1       0.715  -3.712   0.000  0.00  0.00    +0.000 A 
ATOM     11  C   UNL     1       1.429  -4.125   0.000  0.00  0.00    +0.000 C 
ATOM     12  O   UNL     1       1.429  -4.950   0.000  0.00  0.00    +0.000 OA
ATOM     13  C   UNL     1       2.143  -3.712   0.000  0.00  0.00    +0.000 A 
ATOM     14  C   UNL     1       2.143  -2.888   0.000  0.00  0.00    +0.000 A 
ATOM     15  C   UNL     1       2.858  -2.475   0.000  0.00  0.00    +0.000 A 
ATOM     16  C   UNL     1       3.572  -2.888   0.000  0.00  0.00    +0.000 A 
ATOM     17  C   UNL     1       3.572  -3.712   0.000  0.00  0.00    +0.000 A 
ATOM     18  C   UNL     1       2.858  -4.125   0.000  0.00  0.00    +0.000 A 
ATOM     19  C   UNL     1       1.429  -2.475   0.000  0.00  0.00    +0.000 C 
ATOM     20  O   UNL     1       1.429  -1.650   0.000  0.00  0.00    +0.000 OA
ATOM     21  C   UNL     1       0.000  -4.125   0.000  0.00  0.00    +0.000 A 
ATOM     22  O   UNL     1       0.000  -4.950   0.000  0.00  0.00    +0.000 OA
ATOM     23  C   UNL     1      -0.715  -3.712   0.000  0.00  0.00    +0.000 A 
ENDROOT
BRANCH   3  24
ATOM     24  C   UNL     1      -2.426  -2.112   0.000  0.00  0.00    +0.000 C 
ATOM     25  O   UNL     1      -1.895  -1.480   0.000  0.00  0.00    +0.000 OA
BRANCH  24  26
ATOM     26  C   UNL     1      -3.238  -1.969   0.000  0.00  0.00    +0.000 C 
ATOM     27  O   UNL     1      -3.520  -1.194   0.000  0.00  0.00    +0.000 OA
ENDBRANCH  24  26
ENDBRANCH   3  24
BRANCH  18  28
ATOM     28  O   UNL     1       2.858  -4.950   0.000  0.00  0.00    +0.000 OA
ATOM     29  C   UNL     1       2.143  -5.362   0.000  0.00  0.00    +0.000 C 
ENDBRANCH  18  28
BRANCH   1  30
ATOM     30  O   UNL     1      -1.429  -4.950   0.000  0.00  0.00    +0.000 OA
BRANCH  30  31
ATOM     31  C   UNL     1      -2.143  -5.362   0.000  0.00  0.00    +0.000 C 
ATOM     32  C   UNL     1      -2.143  -6.188   0.000  0.00  0.00    +0.000 C 
ATOM     33  C   UNL     1      -2.858  -6.600   0.000  0.00  0.00    +0.000 C 
ATOM     34  N   UNL     1      -2.858  -7.425   0.000  0.00  0.00    +0.000 NA
ATOM     35  C   UNL     1      -3.572  -6.188   0.000  0.00  0.00    +0.000 C 
ATOM     36  C   UNL     1      -3.572  -5.362   0.000  0.00  0.00    +0.000 C 
ATOM     37  C   UNL     1      -4.287  -4.950   0.000  0.00  0.00    +0.000 C 
ATOM     38  O   UNL     1      -2.858  -4.950   0.000  0.00  0.00    +0.000 OA
BRANCH  35  39
ATOM     39  O   UNL     1      -4.287  -6.600   0.000  0.00  0.00    +0.000 OA
BRANCH  39  40
ATOM     40  C   UNL     1      -4.287  -7.425   0.000  0.00  0.00    +0.000 C 
BRANCH  40  41
ATOM     41  C   UNL     1      -5.001  -7.838   0.000  0.00  0.00    +0.000 A 
ATOM     42  C   UNL     1      -5.001  -8.662   0.000  0.00  0.00    +0.000 A 
ATOM     43  C   UNL     1      -5.716  -9.075   0.000  0.00  0.00    +0.000 A 
ATOM     44  C   UNL     1      -6.430  -8.662   0.000  0.00  0.00    +0.000 A 
ATOM     45  C   UNL     1      -6.430  -7.838   0.000  0.00  0.00    +0.000 A 
ATOM     46  C   UNL     1      -5.716  -7.425   0.000  0.00  0.00    +0.000 A 
ENDBRANCH  40  41
ENDBRANCH  39  40
ENDBRANCH  35  39
ENDBRANCH  30  31
ENDBRANCH   1  30
TORSDOF 8
