REMARK  Name = 
REMARK  4 active torsions:
REMARK  status: ('A' for Active; 'I' for Inactive)
REMARK    1  A    between atoms: C_6  and  C_10
REMARK    2  A    between atoms: C_12  and  C_13
REMARK    3  A    between atoms: C_13  and  N_14
REMARK    4  A    between atoms: C_15  and  C_16
REMARK                            x       y       z     vdW  Elec       q    Type
REMARK                         _______ _______ _______ _____ _____    ______ ____
ROOT
ATOM      1  C   UNL     1      -0.896  -0.966   0.000  0.00  0.00    +0.000 A 
ATOM      2  C   UNL     1      -0.896  -1.791   0.000  0.00  0.00    +0.000 A 
ATOM      3  C   UNL     1      -1.597  -2.203   0.000  0.00  0.00    +0.000 A 
ATOM      4  C   UNL     1      -2.340  -1.791   0.000  0.00  0.00    +0.000 A 
ATOM      5  C   UNL     1      -2.340  -0.966   0.000  0.00  0.00    +0.000 A 
ATOM      6  C   UNL     1      -1.597  -0.553   0.000  0.00  0.00    +0.000 A 
ATOM      7  C   UNL     1      -0.112  -0.718   0.000  0.00  0.00    +0.000 C 
ATOM      8  C   UNL     1       0.383  -1.378   0.000  0.00  0.00    +0.000 C 
ATOM      9  O   UNL     1      -0.112  -2.038   0.000  0.00  0.00    +0.000 OA
ENDROOT
BRANCH   6  10
ATOM     10  C   UNL     1      -1.597   0.272   0.000  0.00  0.00    +0.000 C 
ATOM     11  C   UNL     1      -2.010   0.973   0.000  0.00  0.00    +0.000 C 
ATOM     12  C   UNL     1      -1.185   0.973   0.000  0.00  0.00    +0.000 C 
BRANCH  12  13
ATOM     13  C   UNL     1      -0.469   1.383   0.000  0.00  0.00    +0.000 C 
BRANCH  13  14
ATOM     14  N   UNL     1       0.232   0.975   0.000  0.00  0.00    +0.000 NA
ATOM     15  C   UNL     1       0.937   1.378   0.000  0.00  0.00    +0.000 C 
ATOM     16  O   UNL     1       0.937   2.203   0.000  0.00  0.00    +0.000 OA
BRANCH  15  17
ATOM     17  C   UNL     1       1.633   0.972   0.000  0.00  0.00    +0.000 C 
ATOM     18  C   UNL     1       2.340   1.377   0.000  0.00  0.00    +0.000 C 
ENDBRANCH  15  17
ENDBRANCH  13  14
ENDBRANCH  12  13
ENDBRANCH   6  10
TORSDOF 4
