REMARK  Name = 
REMARK  19 active torsions:
REMARK  status: ('A' for Active; 'I' for Inactive)
REMARK    1  A    between atoms: N_34  and  C_70
REMARK    2  A    between atoms: N_35  and  C_71
REMARK    3  A    between atoms: N_38  and  C_82
REMARK    4  A    between atoms: N_39  and  C_83
REMARK    5  A    between atoms: C_44  and  C_46
REMARK    6  A    between atoms: C_45  and  C_47
REMARK    7  A    between atoms: C_64  and  C_70
REMARK    8  A    between atoms: C_66  and  C_71
REMARK    9  A    between atoms: CA_68  and  C_84
REMARK   10  A    between atoms: C_74  and  C_78
REMARK   11  A    between atoms: C_74  and  C_79
REMARK   12  A    between atoms: C_75  and  C_80
REMARK   13  A    between atoms: C_75  and  C_81
REMARK   14  A    between atoms: C_78  and  C_86
REMARK   15  A    between atoms: C_79  and  C_87
REMARK   16  A    between atoms: C_80  and  C_88
REMARK   17  A    between atoms: C_81  and  C_89
REMARK   18  A    between atoms: C_86  and  C_90
REMARK   19  A    between atoms: C_88  and  C_91
REMARK                            x       y       z     vdW  Elec       q    Type
REMARK                         _______ _______ _______ _____ _____    ______ ____
ROOT
ATOM      1  O   UNL     1      -6.949   2.798   0.000  0.00  0.00    +0.000 OA
ATOM      2  O   UNL     1      -4.091   1.973   0.000  0.00  0.00    +0.000 OA
ATOM      3  O   UNL     1      -4.091   5.273   0.000  0.00  0.00    +0.000 OA
ATOM      4  O   UNL     1      -1.948   4.036   0.000  0.00  0.00    +0.000 OA
ATOM      5  O   UNL     1      -2.662   6.923   0.000  0.00  0.00    +0.000 OA
ATOM      6  N   UNL     1      -4.806   3.211   0.000  0.00  0.00    +0.000 NA
ATOM      7  N   UNL     1      -6.234   4.036   0.000  0.00  0.00    +0.000 NA
ATOM      8  N   UNL     1      -3.377   4.036   0.000  0.00  0.00    +0.000 NA
ATOM      9  N   UNL     1      -4.806   6.511   0.000  0.00  0.00    +0.000 NA
ATOM     10  N   UNL     1      -6.234   5.686   0.000  0.00  0.00    +0.000 NA
ATOM     11  N   UNL     1      -3.377   5.686   0.000  0.00  0.00    +0.000 NA
ATOM     12  C   UNL     1      -5.520   2.798   0.000  0.00  0.00    +0.000 C 
ATOM     13  C   UNL     1      -6.234   3.211   0.000  0.00  0.00    +0.000 C 
ATOM     14  C   UNL     1      -5.520   4.448   0.000  0.00  0.00    +0.000 C 
ATOM     15  C   UNL     1      -4.091   2.798   0.000  0.00  0.00    +0.000 C 
ATOM     16  CA  UNL     1      -5.520   5.273   0.000  0.00  0.00    +0.000 C 
ATOM     17  C   UNL     1      -3.377   3.211   0.000  0.00  0.00    +0.000 C 
ATOM     18  C   UNL     1      -2.662   5.273   0.000  0.00  0.00    +0.000 C 
ATOM     19  C   UNL     1      -4.806   5.686   0.000  0.00  0.00    +0.000 C 
ATOM     20  CA  UNL     1      -4.091   6.923   0.000  0.00  0.00    +0.000 C 
ATOM     21  C   UNL     1      -2.662   4.448   0.000  0.00  0.00    +0.000 C 
ATOM     22  C   UNL     1      -3.377   6.511   0.000  0.00  0.00    +0.000 C 
ATOM     23  C   UNL     1      -2.662   2.798   0.000  0.00  0.00    +0.000 C 
ENDROOT
BRANCH  12  27
ATOM     24  N   UNL     1      -6.234   1.561   0.000  0.00  0.00    +0.000 NA
ATOM     25  N   UNL     1      -5.520   0.323   0.000  0.00  0.00    +0.000 NA
ATOM     26  N   UNL     1      -6.949   0.323   0.000  0.00  0.00    +0.000 NA
ATOM     27  C   UNL     1      -5.520   1.973   0.000  0.00  0.00    +0.000 C 
ATOM     28  C   UNL     1      -4.806   1.561   0.000  0.00  0.00    +0.000 C 
ATOM     29  C   UNL     1      -4.806   0.736   0.000  0.00  0.00    +0.000 C 
ATOM     30  C   UNL     1      -6.234   0.736   0.000  0.00  0.00    +0.000 C 
ENDBRANCH  12  27
BRANCH  23  32
ATOM     31  O   UNL     1      -1.233   1.973   0.000  0.00  0.00    +0.000 OA
ATOM     32  N   UNL     1      -2.662   1.973   0.000  0.00  0.00    +0.000 NA
ATOM     33  N   UNL     1      -1.948   0.736   0.000  0.00  0.00    +0.000 NA
ATOM     34  C   UNL     1      -1.948   1.561   0.000  0.00  0.00    +0.000 C 
ENDBRANCH  23  32
BRANCH  20  36
ATOM     35  O   UNL     1      -3.377   8.161   0.000  0.00  0.00    +0.000 OA
ATOM     36  C   UNL     1      -4.091   7.748   0.000  0.00  0.00    +0.000 C 
ENDBRANCH  20  36
BRANCH  18  37
ATOM     37  C   UNL     1      -1.948   5.686   0.000  0.00  0.00    +0.000 C 
BRANCH  37  39
ATOM     38  O   UNL     1      -0.519   6.511   0.000  0.00  0.00    +0.000 OA
ATOM     39  N   UNL     1      -1.233   5.273   0.000  0.00  0.00    +0.000 NA
ATOM     40  C   UNL     1      -0.519   5.686   0.000  0.00  0.00    +0.000 C 
BRANCH  40  41
ATOM     41  C   UNL     1       0.196   5.273   0.000  0.00  0.00    +0.000 C 
BRANCH  41  43
ATOM     42  N   UNL     1       0.910   6.511   0.000  0.00  0.00    +0.000 NA
ATOM     43  C   UNL     1       0.910   5.686   0.000  0.00  0.00    +0.000 C 
BRANCH  43  44
ATOM     44  C   UNL     1       1.625   5.273   0.000  0.00  0.00    +0.000 C 
BRANCH  44  45
ATOM     45  C   UNL     1       2.339   5.686   0.000  0.00  0.00    +0.000 C 
BRANCH  45  47
ATOM     46  N   UNL     1       3.768   5.686   0.000  0.00  0.00    +0.000 NA
ATOM     47  C   UNL     1       3.054   5.273   0.000  0.00  0.00    +0.000 C 
ENDBRANCH  45  47
ENDBRANCH  44  45
ENDBRANCH  43  44
ENDBRANCH  41  43
ENDBRANCH  40  41
ENDBRANCH  37  39
ENDBRANCH  18  37
TORSDOF 10
REMARK  Name = 
REMARK  19 active torsions:
REMARK  status: ('A' for Active; 'I' for Inactive)
REMARK    1  A    between atoms: N_34  and  C_70
REMARK    2  A    between atoms: N_35  and  C_71
REMARK    3  A    between atoms: N_38  and  C_82
REMARK    4  A    between atoms: N_39  and  C_83
REMARK    5  A    between atoms: C_44  and  C_46
REMARK    6  A    between atoms: C_45  and  C_47
REMARK    7  A    between atoms: C_64  and  C_70
REMARK    8  A    between atoms: C_66  and  C_71
REMARK    9  A    between atoms: CA_68  and  C_84
REMARK   10  A    between atoms: C_74  and  C_78
REMARK   11  A    between atoms: C_74  and  C_79
REMARK   12  A    between atoms: C_75  and  C_80
REMARK   13  A    between atoms: C_75  and  C_81
REMARK   14  A    between atoms: C_78  and  C_86
REMARK   15  A    between atoms: C_79  and  C_87
REMARK   16  A    between atoms: C_80  and  C_88
REMARK   17  A    between atoms: C_81  and  C_89
REMARK   18  A    between atoms: C_86  and  C_90
REMARK   19  A    between atoms: C_88  and  C_91
REMARK                            x       y       z     vdW  Elec       q    Type
REMARK                         _______ _______ _______ _____ _____    ______ ____
ROOT
ATOM      1  O   UNL     1      -3.768  -5.686   0.000  0.00  0.00    +0.000 OA
ATOM      2  O   UNL     1      -0.910  -6.511   0.000  0.00  0.00    +0.000 OA
ATOM      3  O   UNL     1      -0.910  -3.211   0.000  0.00  0.00    +0.000 OA
ATOM      4  O   UNL     1       1.233  -4.448   0.000  0.00  0.00    +0.000 OA
ATOM      5  O   UNL     1       0.519  -1.561   0.000  0.00  0.00    +0.000 OA
ATOM      6  N   UNL     1      -1.625  -5.273   0.000  0.00  0.00    +0.000 NA
ATOM      7  N   UNL     1      -3.054  -4.448   0.000  0.00  0.00    +0.000 NA
ATOM      8  N   UNL     1      -0.196  -4.448   0.000  0.00  0.00    +0.000 NA
ATOM      9  N   UNL     1      -1.625  -1.973   0.000  0.00  0.00    +0.000 NA
ATOM     10  N   UNL     1      -3.054  -2.798   0.000  0.00  0.00    +0.000 NA
ATOM     11  N   UNL     1      -0.196  -2.798   0.000  0.00  0.00    +0.000 NA
ATOM     12  C   UNL     1      -2.339  -5.686   0.000  0.00  0.00    +0.000 C 
ATOM     13  C   UNL     1      -3.054  -5.273   0.000  0.00  0.00    +0.000 C 
ATOM     14  C   UNL     1      -2.339  -4.036   0.000  0.00  0.00    +0.000 C 
ATOM     15  C   UNL     1      -0.910  -5.686   0.000  0.00  0.00    +0.000 C 
ATOM     16  C   UNL     1      -2.339  -3.211   0.000  0.00  0.00    +0.000 C 
ATOM     17  C   UNL     1      -0.196  -5.273   0.000  0.00  0.00    +0.000 C 
ATOM     18  C   UNL     1       0.519  -3.211   0.000  0.00  0.00    +0.000 C 
ATOM     19  C   UNL     1      -1.625  -2.798   0.000  0.00  0.00    +0.000 C 
ATOM     20  C   UNL     1      -0.910  -1.561   0.000  0.00  0.00    +0.000 C 
ATOM     21  C   UNL     1       0.519  -4.036   0.000  0.00  0.00    +0.000 C 
ATOM     22  C   UNL     1      -0.196  -1.973   0.000  0.00  0.00    +0.000 C 
ATOM     23  C   UNL     1       0.519  -5.686   0.000  0.00  0.00    +0.000 C 
ATOM     24  C   UNL     1      -0.910  -0.736   0.000  0.00  0.00    +0.000 C 
ENDROOT
BRANCH  12  28
ATOM     25  N   UNL     1      -3.054  -6.923   0.000  0.00  0.00    +0.000 NA
ATOM     26  N   UNL     1      -2.339  -8.161   0.000  0.00  0.00    +0.000 NA
ATOM     27  N   UNL     1      -3.768  -8.161   0.000  0.00  0.00    +0.000 NA
ATOM     28  C   UNL     1      -2.339  -6.511   0.000  0.00  0.00    +0.000 C 
ATOM     29  C   UNL     1      -1.625  -6.923   0.000  0.00  0.00    +0.000 C 
ATOM     30  C   UNL     1      -1.625  -7.748   0.000  0.00  0.00    +0.000 C 
ATOM     31  C   UNL     1      -3.054  -7.748   0.000  0.00  0.00    +0.000 C 
ENDBRANCH  12  28
BRANCH  23  33
ATOM     32  O   UNL     1       1.948  -6.511   0.000  0.00  0.00    +0.000 OA
ATOM     33  N   UNL     1       0.519  -6.511   0.000  0.00  0.00    +0.000 NA
ATOM     34  N   UNL     1       1.233  -7.748   0.000  0.00  0.00    +0.000 NA
ATOM     35  C   UNL     1       1.233  -6.923   0.000  0.00  0.00    +0.000 C 
ENDBRANCH  23  33
BRANCH  18  36
ATOM     36  C   UNL     1       1.233  -2.798   0.000  0.00  0.00    +0.000 C 
BRANCH  36  38
ATOM     37  O   UNL     1       2.662  -1.973   0.000  0.00  0.00    +0.000 OA
ATOM     38  N   UNL     1       1.948  -3.211   0.000  0.00  0.00    +0.000 NA
ATOM     39  C   UNL     1       2.662  -2.798   0.000  0.00  0.00    +0.000 C 
BRANCH  39  40
ATOM     40  C   UNL     1       3.377  -3.211   0.000  0.00  0.00    +0.000 C 
BRANCH  40  42
ATOM     41  N   UNL     1       4.091  -1.973   0.000  0.00  0.00    +0.000 NA
ATOM     42  C   UNL     1       4.091  -2.798   0.000  0.00  0.00    +0.000 C 
BRANCH  42  43
ATOM     43  C   UNL     1       4.806  -3.211   0.000  0.00  0.00    +0.000 C 
BRANCH  43  44
ATOM     44  C   UNL     1       5.520  -2.798   0.000  0.00  0.00    +0.000 C 
BRANCH  44  46
ATOM     45  N   UNL     1       6.949  -2.798   0.000  0.00  0.00    +0.000 NA
ATOM     46  C   UNL     1       6.234  -3.211   0.000  0.00  0.00    +0.000 C 
ENDBRANCH  44  46
ENDBRANCH  43  44
ENDBRANCH  42  43
ENDBRANCH  40  42
ENDBRANCH  39  40
ENDBRANCH  36  38
ENDBRANCH  18  36
TORSDOF 9
