REMARK  Name = 
REMARK  6 active torsions:
REMARK  status: ('A' for Active; 'I' for Inactive)
REMARK    1  A    between atoms: N_14  and  C_17
REMARK    2  A    between atoms: C_17  and  C_22
REMARK    3  A    between atoms: C_24  and  C_25
REMARK    4  A    between atoms: N_43  and  C_45
REMARK    5  A    between atoms: C_45  and  C_46
REMARK    6  A    between atoms: C_52  and  C_53
REMARK                            x       y       z     vdW  Elec       q    Type
REMARK                         _______ _______ _______ _____ _____    ______ ____
ROOT
ATOM      1  N   UNL     1      -0.751   0.613   0.000  0.00  0.00    +0.000 N 
ATOM      2  C   UNL     1      -0.084   1.098   0.000  0.00  0.00    +0.000 C 
ATOM      3  C   UNL     1      -0.339   1.883   0.000  0.00  0.00    +0.000 C 
ATOM      4  C   UNL     1      -1.164   1.883   0.000  0.00  0.00    +0.000 A 
ATOM      5  C   UNL     1      -1.419   1.098   0.000  0.00  0.00    +0.000 A 
ATOM      6  C   UNL     1      -2.226   0.926   0.000  0.00  0.00    +0.000 A 
ATOM      7  C   UNL     1      -2.778   1.540   0.000  0.00  0.00    +0.000 A 
ATOM      8  C   UNL     1      -2.523   2.324   0.000  0.00  0.00    +0.000 A 
ATOM      9  C   UNL     1      -1.716   2.496   0.000  0.00  0.00    +0.000 A 
ATOM     10  C   UNL     1       0.723   0.927   0.000  0.00  0.00    +0.000 C 
ATOM     11  C   UNL     1       1.275   1.540   0.000  0.00  0.00    +0.000 C 
ATOM     12  C   UNL     1       1.020   2.324   0.000  0.00  0.00    +0.000 C 
ATOM     13  C   UNL     1       0.213   2.496   0.000  0.00  0.00    +0.000 C 
ATOM     14  N   UNL     1       0.796   3.079   0.000  0.00  0.00    +0.000 N 
ATOM     15  C   UNL     1       1.858   2.123   0.000  0.00  0.00    +0.000 C 
ATOM     16  C   UNL     1       1.593   2.866   0.000  0.00  0.00    +0.000 C 
ATOM     17  C   UNL     1      -0.233   3.616   0.000  0.00  0.00    +0.000 C 
ATOM     18  C   UNL     1      -0.811   3.126   0.000  0.00  0.00    +0.000 C 
ATOM     19  C   UNL     1       2.683   2.123   0.000  0.00  0.00    +0.000 C 
ATOM     20  N   UNL     1       0.751  -0.613   0.000  0.00  0.00    +0.000 N 
ATOM     21  C   UNL     1       0.084  -1.098   0.000  0.00  0.00    +0.000 C 
ATOM     22  C   UNL     1       0.339  -1.883   0.000  0.00  0.00    +0.000 C 
ATOM     23  C   UNL     1       1.164  -1.883   0.000  0.00  0.00    +0.000 A 
ATOM     24  C   UNL     1       1.419  -1.098   0.000  0.00  0.00    +0.000 A 
ATOM     25  C   UNL     1       1.716  -2.496   0.000  0.00  0.00    +0.000 A 
ATOM     26  C   UNL     1       2.523  -2.324   0.000  0.00  0.00    +0.000 A 
ATOM     27  C   UNL     1       2.778  -1.540   0.000  0.00  0.00    +0.000 A 
ATOM     28  C   UNL     1       2.226  -0.927   0.000  0.00  0.00    +0.000 A 
ATOM     29  C   UNL     1      -0.213  -2.496   0.000  0.00  0.00    +0.000 C 
ATOM     30  C   UNL     1      -1.020  -2.324   0.000  0.00  0.00    +0.000 C 
ATOM     31  C   UNL     1      -1.275  -1.540   0.000  0.00  0.00    +0.000 C 
ATOM     32  C   UNL     1      -0.723  -0.927   0.000  0.00  0.00    +0.000 C 
ATOM     33  C   UNL     1       1.135   0.212   0.000  0.00  0.00    +0.000 C 
ATOM     34  C   UNL     1      -0.965  -0.184   0.000  0.00  0.00    +0.000 C 
ATOM     35  C   UNL     1      -1.858  -2.123   0.000  0.00  0.00    +0.000 C 
ATOM     36  N   UNL     1      -0.796  -3.079   0.000  0.00  0.00    +0.000 N 
ATOM     37  C   UNL     1      -1.645  -2.920   0.000  0.00  0.00    +0.000 C 
ATOM     38  C   UNL     1       0.493  -3.528   0.000  0.00  0.00    +0.000 C 
ATOM     39  C   UNL     1       1.003  -3.036   0.000  0.00  0.00    +0.000 C 
ATOM     40  C   UNL     1      -2.683  -2.123   0.000  0.00  0.00    +0.000 C 
ENDROOT
BRANCH  19  41
ATOM     41  C   UNL     1       3.267   1.540   0.000  0.00  0.00    +0.000 C 
ATOM     42  O   UNL     1       4.092   1.540   0.000  0.00  0.00    +0.000 OA
ENDBRANCH  19  41
BRANCH  40  43
ATOM     43  C   UNL     1      -3.267  -1.540   0.000  0.00  0.00    +0.000 C 
ATOM     44  O   UNL     1      -4.092  -1.540   0.000  0.00  0.00    +0.000 OA
ENDBRANCH  40  43
BRANCH  14  45
ATOM     45  C   UNL     1       1.380   3.663   0.000  0.00  0.00    +0.000 C 
BRANCH  45  46
ATOM     46  C   UNL     1       2.177   3.449   0.000  0.00  0.00    +0.000 C 
ATOM     47  C   UNL     1       2.760   4.032   0.000  0.00  0.00    +0.000 C 
ENDBRANCH  45  46
ENDBRANCH  14  45
BRANCH  36  48
ATOM     48  C   UNL     1      -1.380  -3.663   0.000  0.00  0.00    +0.000 C 
BRANCH  48  49
ATOM     49  C   UNL     1      -2.177  -3.449   0.000  0.00  0.00    +0.000 C 
ATOM     50  C   UNL     1      -2.760  -4.032   0.000  0.00  0.00    +0.000 C 
ENDBRANCH  48  49
ENDBRANCH  36  48
TORSDOF 6
