REMARK  Name = 
REMARK  10 active torsions:
REMARK  status: ('A' for Active; 'I' for Inactive)
REMARK    1  A    between atoms: C_1  and  C_31
REMARK    2  A    between atoms: C_2  and  N_3
REMARK    3  A    between atoms: C_2  and  C_7
REMARK    4  A    between atoms: N_9  and  C_10
REMARK    5  A    between atoms: N_16  and  C_18
REMARK    6  A    between atoms: C_18  and  C_19
REMARK    7  A    between atoms: C_22  and  C_25
REMARK    8  A    between atoms: C_34  and  C_37
REMARK    9  A    between atoms: C_35  and  C_41
REMARK   10  A    between atoms: C_37  and  C_38
REMARK                            x       y       z     vdW  Elec       q    Type
REMARK                         _______ _______ _______ _____ _____    ______ ____
ROOT
ATOM      1  C   UNL     1       0.327   1.100   0.000  0.00  0.00    +0.000 C 
ATOM      2  O   UNL     1       1.131   0.916   0.000  0.00  0.00    +0.000 OA
ATOM      3  N   UNL     1      -0.234   0.495   0.000  0.00  0.00    +0.000 NA
ENDROOT
BRANCH   3   4
ATOM      4  C   UNL     1       0.009  -0.293   0.000  0.00  0.00    +0.000 C 
ATOM      5  C   UNL     1       0.825  -0.416   0.000  0.00  0.00    +0.000 C 
ATOM      6  C   UNL     1       1.238  -1.131   0.000  0.00  0.00    +0.000 C 
ATOM      7  C   UNL     1       0.936  -1.899   0.000  0.00  0.00    +0.000 C 
ATOM      8  C   UNL     1       0.148  -2.142   0.000  0.00  0.00    +0.000 C 
ATOM      9  C   UNL     1      -0.595  -0.854   0.000  0.00  0.00    +0.000 C 
ATOM     10  N   UNL     1      -0.534  -1.677   0.000  0.00  0.00    +0.000 N 
ATOM     11  O   UNL     1      -1.363  -0.553   0.000  0.00  0.00    +0.000 OA
BRANCH  10  12
ATOM     12  C   UNL     1      -1.248  -2.090   0.000  0.00  0.00    +0.000 C 
BRANCH  12  13
ATOM     13  C   UNL     1      -1.248  -2.914   0.000  0.00  0.00    +0.000 A 
ATOM     14  C   UNL     1      -0.534  -3.327   0.000  0.00  0.00    +0.000 A 
ATOM     15  C   UNL     1      -0.534  -4.152   0.000  0.00  0.00    +0.000 A 
ATOM     16  C   UNL     1      -1.248  -4.564   0.000  0.00  0.00    +0.000 A 
ATOM     17  C   UNL     1      -1.963  -4.152   0.000  0.00  0.00    +0.000 A 
ATOM     18  C   UNL     1      -1.963  -3.327   0.000  0.00  0.00    +0.000 A 
BRANCH  16  19
ATOM     19  C   UNL     1      -1.248  -5.389   0.000  0.00  0.00    +0.000 A 
ATOM     20  C   UNL     1      -0.534  -5.802   0.000  0.00  0.00    +0.000 A 
ATOM     21  C   UNL     1      -0.534  -6.627   0.000  0.00  0.00    +0.000 A 
ATOM     22  C   UNL     1      -1.248  -7.040   0.000  0.00  0.00    +0.000 A 
ATOM     23  C   UNL     1      -1.963  -6.627   0.000  0.00  0.00    +0.000 A 
ATOM     24  C   UNL     1      -1.963  -5.802   0.000  0.00  0.00    +0.000 A 
ENDBRANCH  16  19
ENDBRANCH  12  13
ENDBRANCH  10  12
ENDBRANCH   3   4
BRANCH   1  26
ATOM     25  C   UNL     1       0.645   2.493   0.000  0.00  0.00    +0.000 C 
ATOM     26  C   UNL     1       0.084   1.888   0.000  0.00  0.00    +0.000 C 
BRANCH  25  27
ATOM     27  C   UNL     1       0.402   3.281   0.000  0.00  0.00    +0.000 A 
ATOM     28  C   UNL     1      -0.402   3.465   0.000  0.00  0.00    +0.000 A 
ATOM     29  C   UNL     1      -0.645   4.253   0.000  0.00  0.00    +0.000 A 
ATOM     30  C   UNL     1      -0.084   4.858   0.000  0.00  0.00    +0.000 A 
ATOM     31  C   UNL     1       0.720   4.674   0.000  0.00  0.00    +0.000 A 
ATOM     32  C   UNL     1       0.963   3.886   0.000  0.00  0.00    +0.000 A 
BRANCH  31  33
ATOM     33  C   UNL     1       1.281   5.279   0.000  0.00  0.00    +0.000 C 
ATOM     34  O   UNL     1       2.086   5.096   0.000  0.00  0.00    +0.000 OA
ENDBRANCH  31  33
BRANCH  30  35
ATOM     35  C   UNL     1      -0.327   5.646   0.000  0.00  0.00    +0.000 C 
BRANCH  35  36
ATOM     36  C   UNL     1       0.234   6.251   0.000  0.00  0.00    +0.000 C 
ATOM     37  O   UNL     1      -0.009   7.040   0.000  0.00  0.00    +0.000 OA
ATOM     38  O   UNL     1       1.038   6.067   0.000  0.00  0.00    +0.000 OA
ENDBRANCH  35  36
ENDBRANCH  30  35
ENDBRANCH  25  27
BRANCH  26  39
ATOM     39  N   UNL     1      -0.720   2.072   0.000  0.00  0.00    +0.000 NA
ATOM     40  C   UNL     1      -1.281   1.467   0.000  0.00  0.00    +0.000 C 
ATOM     41  C   UNL     1      -1.038   0.679   0.000  0.00  0.00    +0.000 C 
ATOM     42  O   UNL     1      -2.086   1.651   0.000  0.00  0.00    +0.000 OA
ENDBRANCH  26  39
ENDBRANCH   1  26
TORSDOF 10
