REMARK  Name = 
REMARK  10 active torsions:
REMARK  status: ('A' for Active; 'I' for Inactive)
REMARK    1  A    between atoms: C_2  and  CA_3
REMARK    2  A    between atoms: CA_3  and  N_4
REMARK    3  A    between atoms: C_5  and  C_6
REMARK    4  A    between atoms: C_6  and  N_7
REMARK    5  A    between atoms: C_6  and  C_16
REMARK    6  A    between atoms: C_8  and  C_9
REMARK    7  A    between atoms: C_9  and  C_10
REMARK    8  A    between atoms: C_10  and  C_11
REMARK    9  A    between atoms: C_11  and  C_12
REMARK   10  A    between atoms: C_16  and  S_17
REMARK                            x       y       z     vdW  Elec       q    Type
REMARK                         _______ _______ _______ _____ _____    ______ ____
ROOT
ATOM      1  C   UNK A   1      -0.716   0.404   0.000  0.00  0.00    +0.000 C 
ENDROOT
BRANCH   1   3
ATOM      2  N   GLY A   2      -2.147   0.400   0.000  0.00  0.00    +0.000 NA
ATOM      3  C   UNK A   1      -1.431   0.814   0.000  0.00  0.00    +0.000 C 
ATOM      4  O   UNK A   1      -1.433   1.643   0.000  0.00  0.00    +0.000 OA
BRANCH   2   5
ATOM      5  CA  GLY A   2      -2.863   0.810   0.000  0.00  0.00    +0.000 C 
BRANCH   5   7
ATOM      6  O   GLY A   2      -4.294   0.806   0.000  0.00  0.00    +0.000 OA
ATOM      7  C   GLY A   2      -3.579   0.396   0.000  0.00  0.00    +0.000 C 
ATOM      8  OXT GLY A   2      -3.577  -0.433   0.000  0.00  0.00    +0.000 OA
ENDBRANCH   5   7
ENDBRANCH   2   5
ENDBRANCH   1   3
BRANCH   1   9
ATOM      9  N   UNK A   1       0.000   0.818   0.000  0.00  0.00    +0.000 NA
ATOM     10  C   UNK A   1       0.716   0.408   0.000  0.00  0.00    +0.000 C 
ATOM     11  O   UNK A   1       0.717  -0.421   0.000  0.00  0.00    +0.000 OA
BRANCH  10  12
ATOM     12  C   UNK A   1       1.431   0.822   0.000  0.00  0.00    +0.000 C 
BRANCH  12  13
ATOM     13  C   UNK A   1       2.147   0.412   0.000  0.00  0.00    +0.000 C 
BRANCH  13  14
ATOM     14  C   UNK A   1       2.863   0.827   0.000  0.00  0.00    +0.000 C 
ATOM     15  N   UNK A   1       2.861   1.655   0.000  0.00  0.00    +0.000 NA
BRANCH  14  16
ATOM     16  C   UNK A   1       3.579   0.416   0.000  0.00  0.00    +0.000 C 
ATOM     17  O   UNK A   1       4.294   0.831   0.000  0.00  0.00    +0.000 OA
ATOM     18  O   UNK A   1       3.580  -0.412   0.000  0.00  0.00    +0.000 OA
ENDBRANCH  14  16
ENDBRANCH  13  14
ENDBRANCH  12  13
ENDBRANCH  10  12
ENDBRANCH   1   9
BRANCH   1  19
ATOM     19  C   UNK A   1      -0.716  -0.421   0.000  0.00  0.00    +0.000 C 
BRANCH  19  20
ATOM     20  S   UNK A   1      -1.431  -0.831   0.000  0.00  0.00    +0.000 S 
ATOM     21  C   UNK A   1      -1.431  -1.655   0.000  0.00  0.00    +0.000 C 
ENDBRANCH  19  20
ENDBRANCH   1  19
TORSDOF 10
