REMARK  Name = 
REMARK  4 active torsions:
REMARK  status: ('A' for Active; 'I' for Inactive)
REMARK    1  A    between atoms: S_1  and  O_3
REMARK    2  A    between atoms: O_3  and  C_13
REMARK    3  A    between atoms: N_11  and  C_14
REMARK    4  A    between atoms: C_15  and  C_17
REMARK                            x       y       z     vdW  Elec       q    Type
REMARK                         _______ _______ _______ _____ _____    ______ ____
ROOT
ATOM      1  O   UNL     1       1.127  -0.619   0.000  0.00  0.00    +0.000 OA
ATOM      2  O   UNL     1      -1.016   0.619   0.000  0.00  0.00    +0.000 OA
ATOM      3  O   UNL     1       1.841   0.619   0.000  0.00  0.00    +0.000 OA
ATOM      4  C   UNL     1      -0.302   0.206   0.000  0.00  0.00    +0.000 C 
ATOM      5  C   UNL     1      -0.302  -0.619   0.000  0.00  0.00    +0.000 C 
ATOM      6  C   UNL     1       0.412   0.619   0.000  0.00  0.00    +0.000 C 
ATOM      7  C   UNL     1       0.412  -1.031   0.000  0.00  0.00    +0.000 C 
ATOM      8  C   UNL     1       1.127   0.206   0.000  0.00  0.00    +0.000 C 
ENDROOT
BRANCH   6  10
ATOM      9  O   UNL     1       1.841   1.444   0.000  0.00  0.00    +0.000 OA
ATOM     10  N   UNL     1       0.412   1.444   0.000  0.00  0.00    +0.000 N 
ATOM     11  C   UNL     1       1.127   1.856   0.000  0.00  0.00    +0.000 C 
ATOM     12  C   UNL     1       1.127   2.681   0.000  0.00  0.00    +0.000 C 
ATOM     13  H   UNL     1      -0.030   1.700   0.000  0.00  0.00    +0.000 HD
ENDBRANCH   6  10
BRANCH   7  15
ATOM     14  O   UNL     1       1.127  -2.269   0.000  0.00  0.00    +0.000 OA
ATOM     15  C   UNL     1       0.412  -1.856   0.000  0.00  0.00    +0.000 C 
ENDBRANCH   7  15
BRANCH   5  16
ATOM     16  O   UNL     1      -1.016  -1.031   0.000  0.00  0.00    +0.000 OA
BRANCH  16  17
ATOM     17  S   UNL     1      -1.016  -1.856   0.000  0.00  0.00    +0.000 S 
ATOM     18  O   UNL     1      -1.016  -2.681   0.000  0.00  0.00    +0.000 OA
ATOM     19  O   UNL     1      -1.841  -1.856   0.000  0.00  0.00    +0.000 OA
ATOM     20  O   UNL     1      -0.191  -1.856   0.000  0.00  0.00    +0.000 OA
ENDBRANCH  16  17
ENDBRANCH   5  16
TORSDOF 4
