REMARK  Name = 
REMARK  5 active torsions:
REMARK  status: ('A' for Active; 'I' for Inactive)
REMARK    1  A    between atoms: C_5  and  N_8
REMARK    2  A    between atoms: C_14  and  C_16
REMARK    3  A    between atoms: C_16  and  C_17
REMARK    4  A    between atoms: C_16  and  N_23
REMARK    5  A    between atoms: C_24  and  C_26
REMARK                            x       y       z     vdW  Elec       q    Type
REMARK                         _______ _______ _______ _____ _____    ______ ____
ROOT
ATOM      1  C   UNL     1       4.781   3.585   0.000  0.00  0.00    +0.000 C 
ENDROOT
BRANCH   1   8
ATOM      2  N   UNL     1       6.925   5.648   0.000  0.00  0.00    +0.000 NA
ATOM      3  C   UNL     1       6.925   4.823   0.000  0.00  0.00    +0.000 C 
ATOM      4  C   UNL     1       6.210   4.410   0.000  0.00  0.00    +0.000 C 
ATOM      5  N   UNL     1       5.496   4.823   0.000  0.00  0.00    +0.000 N 
ATOM      6  C   UNL     1       5.496   5.648   0.000  0.00  0.00    +0.000 C 
ATOM      7  C   UNL     1       6.210   6.060   0.000  0.00  0.00    +0.000 C 
ATOM      8  C   UNL     1       4.781   4.410   0.000  0.00  0.00    +0.000 C 
ATOM      9  O   UNL     1       4.067   4.823   0.000  0.00  0.00    +0.000 OA
BRANCH   2  14
ATOM     10  C   UNL     1       9.783   7.298   0.000  0.00  0.00    +0.000 C 
ATOM     11  N   UNL     1       9.068   6.885   0.000  0.00  0.00    +0.000 NA
ATOM     12  C   UNL     1       9.068   6.060   0.000  0.00  0.00    +0.000 C 
ATOM     13  C   UNL     1       8.354   5.648   0.000  0.00  0.00    +0.000 C 
ATOM     14  C   UNL     1       7.639   6.060   0.000  0.00  0.00    +0.000 C 
ATOM     15  C   UNL     1       7.639   6.885   0.000  0.00  0.00    +0.000 C 
ATOM     16  C   UNL     1       8.354   7.298   0.000  0.00  0.00    +0.000 C 
ENDBRANCH   2  14
ENDBRANCH   1   8
BRANCH   1  17
ATOM     17  C   UNL     1       5.496   3.173   0.000  0.00  0.00    +0.000 A 
ATOM     18  C   UNL     1       6.210   3.585   0.000  0.00  0.00    +0.000 A 
ATOM     19  C   UNL     1       6.925   3.173   0.000  0.00  0.00    +0.000 A 
ATOM     20  C   UNL     1       6.925   2.348   0.000  0.00  0.00    +0.000 A 
ATOM     21  C   UNL     1       6.210   1.935   0.000  0.00  0.00    +0.000 A 
ATOM     22  C   UNL     1       5.496   2.348   0.000  0.00  0.00    +0.000 A 
ENDBRANCH   1  17
BRANCH   1  23
ATOM     23  N   UNL     1       4.067   3.173   0.000  0.00  0.00    +0.000 NA
ATOM     24  C   UNL     1       4.067   2.348   0.000  0.00  0.00    +0.000 C 
ATOM     25  O   UNL     1       4.781   1.935   0.000  0.00  0.00    +0.000 OA
BRANCH  24  26
ATOM     26  C   UNL     1       3.352   1.935   0.000  0.00  0.00    +0.000 A 
ATOM     27  C   UNL     1       3.352   1.110   0.000  0.00  0.00    +0.000 A 
ATOM     28  C   UNL     1       2.638   0.698   0.000  0.00  0.00    +0.000 A 
ATOM     29  C   UNL     1       1.923   1.110   0.000  0.00  0.00    +0.000 A 
ATOM     30  C   UNL     1       1.139   0.856   0.000  0.00  0.00    +0.000 A 
ATOM     31  C   UNL     1       0.654   1.523   0.000  0.00  0.00    +0.000 A 
ATOM     32  N   UNL     1       1.139   2.190   0.000  0.00  0.00    +0.000 NA
ATOM     33  C   UNL     1       1.923   1.935   0.000  0.00  0.00    +0.000 A 
ATOM     34  C   UNL     1       2.638   2.348   0.000  0.00  0.00    +0.000 A 
ENDBRANCH  24  26
ENDBRANCH   1  23
TORSDOF 5
