REMARK  Name = 
REMARK  2 active torsions:
REMARK  status: ('A' for Active; 'I' for Inactive)
REMARK    1  A    between atoms: S_1  and  N_6
REMARK    2  A    between atoms: S_1  and  C_12
REMARK                            x       y       z     vdW  Elec       q    Type
REMARK                         _______ _______ _______ _____ _____    ______ ____
ROOT
ATOM      1  O   UNL     1      -1.899  -1.233   0.000  0.00  0.00    +0.000 OA
ATOM      2  O   UNL     1      -1.899   1.143   0.000  0.00  0.00    +0.000 OA
ATOM      3  C   UNL     1      -1.214  -0.045   0.000  0.00  0.00    +0.000 A 
ATOM      4  C   UNL     1       0.212  -0.028   0.000  0.00  0.00    +0.000 A 
ATOM      5  C   UNL     1      -1.214  -0.837   0.000  0.00  0.00    +0.000 A 
ATOM      6  C   UNL     1      -0.505   0.379   0.000  0.00  0.00    +0.000 A 
ATOM      7  C   UNL     1      -2.586  -0.045   0.000  0.00  0.00    +0.000 A 
ATOM      8  C   UNL     1      -1.899   0.351   0.000  0.00  0.00    +0.000 A 
ATOM      9  C   UNL     1      -2.586  -0.837   0.000  0.00  0.00    +0.000 A 
ATOM     10  C   UNL     1       0.212  -0.853   0.000  0.00  0.00    +0.000 A 
ATOM     11  C   UNL     1      -0.505  -1.260   0.000  0.00  0.00    +0.000 A 
ATOM     12  C   UNL     1      -3.294   0.379   0.000  0.00  0.00    +0.000 A 
ATOM     13  C   UNL     1      -3.294  -1.260   0.000  0.00  0.00    +0.000 A 
ATOM     14  C   UNL     1      -4.011  -0.028   0.000  0.00  0.00    +0.000 A 
ATOM     15  C   UNL     1      -4.011  -0.853   0.000  0.00  0.00    +0.000 A 
ENDROOT
BRANCH   4  16
ATOM     16  S   UNL     1       0.896   0.370   0.000  0.00  0.00    +0.000 S 
ATOM     17  O   UNL     1       1.295  -0.314   0.000  0.00  0.00    +0.000 OA
ATOM     18  O   UNL     1       0.498   1.055   0.000  0.00  0.00    +0.000 OA
BRANCH  16  19
ATOM     19  N   UNL     1       1.581   0.769   0.000  0.00  0.00    +0.000 N 
ATOM     20  N   UNL     1       2.991   0.701   0.000  0.00  0.00    +0.000 NA
ATOM     21  N   UNL     1       2.354  -0.412   0.000  0.00  0.00    +0.000 NA
ATOM     22  N   UNL     1       3.523   0.114   0.000  0.00  0.00    +0.000 N 
ATOM     23  N   UNL     1       3.130  -0.573   0.000  0.00  0.00    +0.000 NA
ATOM     24  C   UNL     1       2.268   0.376   0.000  0.00  0.00    +0.000 A 
ATOM     25  H   UNL     1       1.579   1.260   0.000  0.00  0.00    +0.000 HD
ATOM     26  H   UNL     1       4.011   0.167   0.000  0.00  0.00    +0.000 HD
ENDBRANCH  16  19
ENDBRANCH   4  16
TORSDOF 2
