REMARK  Name = 
REMARK  5 active torsions:
REMARK  status: ('A' for Active; 'I' for Inactive)
REMARK    1  A    between atoms: N_4  and  C_5
REMARK    2  A    between atoms: C_5  and  C_6
REMARK    3  A    between atoms: C_17  and  N_19
REMARK    4  A    between atoms: C_23  and  C_31
REMARK    5  A    between atoms: N_26  and  C_27
REMARK                            x       y       z     vdW  Elec       q    Type
REMARK                         _______ _______ _______ _____ _____    ______ ____
ROOT
ATOM      1  C   UNL     1       2.460   1.650   0.000  0.00  0.00    +0.000 C 
ATOM      2  O   UNL     1       2.873   2.365   0.000  0.00  0.00    +0.000 OA
ATOM      3  N   UNL     1       1.635   1.650   0.000  0.00  0.00    +0.000 N 
ATOM      4  C   UNL     1       1.429   0.825   0.000  0.00  0.00    +0.000 C 
ATOM      5  C   UNL     1       2.143   1.238   0.000  0.00  0.00    +0.000 C 
ATOM      6  C   UNL     1       2.143   2.062   0.000  0.00  0.00    +0.000 C 
ATOM      7  C   UNL     1       1.429   2.475   0.000  0.00  0.00    +0.000 C 
ATOM      8  C   UNL     1       0.715   2.062   0.000  0.00  0.00    +0.000 A 
ATOM      9  C   UNL     1       0.715   1.238   0.000  0.00  0.00    +0.000 A 
ATOM     10  C   UNL     1       0.000   0.825   0.000  0.00  0.00    +0.000 A 
ATOM     11  C   UNL     1      -0.715   1.238   0.000  0.00  0.00    +0.000 A 
ATOM     12  C   UNL     1      -0.715   2.062   0.000  0.00  0.00    +0.000 A 
ATOM     13  C   UNL     1       0.000   2.475   0.000  0.00  0.00    +0.000 A 
ENDROOT
BRANCH  12  14
ATOM     14  N   UNL     1      -1.429   2.475   0.000  0.00  0.00    +0.000 NA
ATOM     15  C   UNL     1      -2.143   2.062   0.000  0.00  0.00    +0.000 A 
ATOM     16  N   UNL     1      -2.143   1.238   0.000  0.00  0.00    +0.000 NA
ATOM     17  C   UNL     1      -2.858   0.825   0.000  0.00  0.00    +0.000 A 
ATOM     18  C   UNL     1      -3.572   1.238   0.000  0.00  0.00    +0.000 A 
ATOM     19  C   UNL     1      -3.572   2.062   0.000  0.00  0.00    +0.000 A 
ATOM     20  N   UNL     1      -2.858   2.475   0.000  0.00  0.00    +0.000 NA
ATOM     21  N   UNL     1      -4.287   2.475   0.000  0.00  0.00    +0.000 NA
BRANCH  21  22
ATOM     22  C   UNL     1      -4.287   3.300   0.000  0.00  0.00    +0.000 C 
ATOM     23  C   UNL     1      -4.870   3.883   0.000  0.00  0.00    +0.000 C 
ATOM     24  C   UNL     1      -4.287   4.467   0.000  0.00  0.00    +0.000 C 
ATOM     25  C   UNL     1      -3.704   3.883   0.000  0.00  0.00    +0.000 C 
ENDBRANCH  21  22
BRANCH  18  26
ATOM     26  C   UNL     1      -4.287   0.825   0.000  0.00  0.00    +0.000 C 
ATOM     27  F   UNL     1      -5.001   0.412   0.000  0.00  0.00    +0.000 F 
ATOM     28  F   UNL     1      -4.699   1.540   0.000  0.00  0.00    +0.000 F 
ATOM     29  F   UNL     1      -3.874   0.111   0.000  0.00  0.00    +0.000 F 
ENDBRANCH  18  26
ENDBRANCH  12  14
BRANCH   1  30
ATOM     30  C   UNL     1       2.873   0.935   0.000  0.00  0.00    +0.000 C 
BRANCH  30  34
ATOM     31  C   UNL     1       4.935   0.221   0.000  0.00  0.00    +0.000 C 
ATOM     32  C   UNL     1       4.110   0.221   0.000  0.00  0.00    +0.000 C 
ATOM     33  O   UNL     1       3.698  -0.493   0.000  0.00  0.00    +0.000 OA
ATOM     34  N   UNL     1       3.698   0.935   0.000  0.00  0.00    +0.000 NA
ENDBRANCH  30  34
ENDBRANCH   1  30
TORSDOF 5
