REMARK  Name = 
REMARK  5 active torsions:
REMARK  status: ('A' for Active; 'I' for Inactive)
REMARK    1  A    between atoms: C_6  and  O_8
REMARK    2  A    between atoms: O_8  and  C_9
REMARK    3  A    between atoms: C_11  and  C_33
REMARK    4  A    between atoms: C_26  and  O_30
REMARK    5  A    between atoms: C_33  and  C_34
REMARK                            x       y       z     vdW  Elec       q    Type
REMARK                         _______ _______ _______ _____ _____    ______ ____
ROOT
ATOM      1  C   UNL     1       5.001   1.238   0.000  0.00  0.00    +0.000 C 
ATOM      2  C   UNL     1       5.716   0.825   0.000  0.00  0.00    +0.000 C 
ATOM      3  C   UNL     1       5.716   0.000   0.000  0.00  0.00    +0.000 C 
ATOM      4  C   UNL     1       5.001  -0.412   0.000  0.00  0.00    +0.000 C 
ATOM      5  C   UNL     1       4.287   0.000   0.000  0.00  0.00    +0.000 A 
ATOM      6  C   UNL     1       4.287   0.825   0.000  0.00  0.00    +0.000 A 
ATOM      7  C   UNL     1       3.572   1.238   0.000  0.00  0.00    +0.000 A 
ATOM      8  C   UNL     1       2.858   0.825   0.000  0.00  0.00    +0.000 A 
ATOM      9  C   UNL     1       2.858   0.000   0.000  0.00  0.00    +0.000 A 
ATOM     10  C   UNL     1       3.572  -0.412   0.000  0.00  0.00    +0.000 A 
ATOM     11  O   UNL     1       3.572  -1.238   0.000  0.00  0.00    +0.000 OA
ATOM     12  C   UNL     1       2.143  -0.412   0.000  0.00  0.00    +0.000 C 
ATOM     13  O   UNL     1       2.143  -1.238   0.000  0.00  0.00    +0.000 OA
ATOM     14  C   UNL     1       1.429   0.000   0.000  0.00  0.00    +0.000 A 
ATOM     15  C   UNL     1       0.715  -0.412   0.000  0.00  0.00    +0.000 A 
ATOM     16  C   UNL     1       0.000   0.000   0.000  0.00  0.00    +0.000 A 
ATOM     17  C   UNL     1       0.000   0.825   0.000  0.00  0.00    +0.000 A 
ATOM     18  C   UNL     1       0.715   1.238   0.000  0.00  0.00    +0.000 A 
ATOM     19  C   UNL     1       1.429   0.825   0.000  0.00  0.00    +0.000 A 
ATOM     20  C   UNL     1       2.143   1.238   0.000  0.00  0.00    +0.000 C 
ATOM     21  O   UNL     1       2.143   2.062   0.000  0.00  0.00    +0.000 OA
ATOM     22  O   UNL     1       3.572   2.062   0.000  0.00  0.00    +0.000 OA
ATOM     23  O   UNL     1       6.153  -0.700   0.000  0.00  0.00    +0.000 OA
ENDROOT
BRANCH  18  24
ATOM     24  O   UNL     1       0.715   2.062   0.000  0.00  0.00    +0.000 OA
ATOM     25  C   UNL     1       1.429   2.475   0.000  0.00  0.00    +0.000 C 
ENDBRANCH  18  24
BRANCH   1  26
ATOM     26  O   UNL     1       5.001   2.062   0.000  0.00  0.00    +0.000 OA
BRANCH  26  32
ATOM     27  C   UNL     1       6.430   4.537   0.000  0.00  0.00    +0.000 C 
ATOM     28  C   UNL     1       6.430   3.712   0.000  0.00  0.00    +0.000 C 
ATOM     29  C   UNL     1       7.145   3.300   0.000  0.00  0.00    +0.000 C 
ATOM     30  C   UNL     1       7.145   2.475   0.000  0.00  0.00    +0.000 C 
ATOM     31  C   UNL     1       6.430   2.062   0.000  0.00  0.00    +0.000 C 
ATOM     32  C   UNL     1       5.716   2.475   0.000  0.00  0.00    +0.000 C 
ATOM     33  O   UNL     1       5.716   3.300   0.000  0.00  0.00    +0.000 OA
ATOM     34  N   UNL     1       7.859   2.062   0.000  0.00  0.00    +0.000 NA
ATOM     35  O   UNL     1       7.859   3.712   0.000  0.00  0.00    +0.000 OA
ENDBRANCH  26  32
ENDBRANCH   1  26
BRANCH   3  36
ATOM     36  C   UNL     1       6.540  -0.029   0.000  0.00  0.00    +0.000 C 
BRANCH  36  37
ATOM     37  C   UNL     1       6.977   0.671   0.000  0.00  0.00    +0.000 C 
ATOM     38  O   UNL     1       6.590   1.399   0.000  0.00  0.00    +0.000 OA
ENDBRANCH  36  37
ENDBRANCH   3  36
TORSDOF 5
