REMARK  Name = 
REMARK  10 active torsions:
REMARK  status: ('A' for Active; 'I' for Inactive)
REMARK    1  A    between atoms: C_6  and  C_16
REMARK    2  A    between atoms: C_7  and  N_20
REMARK    3  A    between atoms: C_8  and  N_20
REMARK    4  A    between atoms: C_14  and  C_15
REMARK    5  A    between atoms: C_14  and  N_20
REMARK    6  A    between atoms: C_15  and  O_22
REMARK    7  A    between atoms: C_16  and  C_18
REMARK    8  A    between atoms: C_17  and  C_18
REMARK    9  A    between atoms: C_18  and  C_19
REMARK   10  A    between atoms: C_19  and  O_22
REMARK                            x       y       z     vdW  Elec       q    Type
REMARK                         _______ _______ _______ _____ _____    ______ ____
ROOT
ATOM      1  C   UNL     1       4.287   2.475   0.000  0.00  0.00    +0.000 C 
ENDROOT
BRANCH   1   7
ATOM      2  C   UNL     1       4.287   4.950   0.000  0.00  0.00    +0.000 A 
ATOM      3  C   UNL     1       3.572   4.537   0.000  0.00  0.00    +0.000 A 
ATOM      4  C   UNL     1       5.001   4.537   0.000  0.00  0.00    +0.000 A 
ATOM      5  C   UNL     1       3.572   3.712   0.000  0.00  0.00    +0.000 A 
ATOM      6  C   UNL     1       5.001   3.712   0.000  0.00  0.00    +0.000 A 
ATOM      7  C   UNL     1       4.287   3.300   0.000  0.00  0.00    +0.000 A 
ENDBRANCH   1   7
BRANCH   1   9
ATOM      8  C   UNL     1       2.858   2.475   0.000  0.00  0.00    +0.000 C 
ATOM      9  C   UNL     1       3.572   2.062   0.000  0.00  0.00    +0.000 C 
BRANCH   9  11
ATOM     10  C   UNL     1       2.858   0.825   0.000  0.00  0.00    +0.000 C 
ATOM     11  C   UNL     1       3.572   1.238   0.000  0.00  0.00    +0.000 C 
ENDBRANCH   9  11
ENDBRANCH   1   9
BRANCH   1  12
ATOM     12  C   UNL     1       5.001   2.062   0.000  0.00  0.00    +0.000 C 
ATOM     13  O   UNL     1       5.716   2.475   0.000  0.00  0.00    +0.000 OA
BRANCH  12  14
ATOM     14  O   UNL     1       5.001   1.238   0.000  0.00  0.00    +0.000 OA
BRANCH  14  15
ATOM     15  C   UNL     1       5.716   0.825   0.000  0.00  0.00    +0.000 C 
BRANCH  15  16
ATOM     16  C   UNL     1       5.716   0.000   0.000  0.00  0.00    +0.000 C 
BRANCH  16  18
ATOM     17  C   UNL     1       6.843   0.302   0.000  0.00  0.00    +0.000 C 
ATOM     18  N   UNL     1       6.430  -0.412   0.000  0.00  0.00    +0.000 N 
BRANCH  18  20
ATOM     19  C   UNL     1       7.145  -1.650   0.000  0.00  0.00    +0.000 C 
ATOM     20  C   UNL     1       7.145  -0.825   0.000  0.00  0.00    +0.000 C 
ENDBRANCH  18  20
BRANCH  18  22
ATOM     21  C   UNL     1       5.193  -1.127   0.000  0.00  0.00    +0.000 C 
ATOM     22  C   UNL     1       6.018  -1.127   0.000  0.00  0.00    +0.000 C 
ENDBRANCH  18  22
ENDBRANCH  16  18
ENDBRANCH  15  16
ENDBRANCH  14  15
ENDBRANCH  12  14
ENDBRANCH   1  12
TORSDOF 10
