REMARK  Name = 
REMARK  3 active torsions:
REMARK  status: ('A' for Active; 'I' for Inactive)
REMARK    1  A    between atoms: C_20  and  C_27
REMARK    2  A    between atoms: C_22  and  C_23
REMARK    3  A    between atoms: C_23  and  C_25
REMARK                            x       y       z     vdW  Elec       q    Type
REMARK                         _______ _______ _______ _____ _____    ______ ____
ROOT
ATOM      1  C   UNL     1       5.833  -3.569   0.000  0.00  0.00    +0.000 C 
ATOM      2  C   UNL     1       6.000  -2.761   0.000  0.00  0.00    +0.000 C 
ATOM      3  C   UNL     1       6.489  -3.425   0.000  0.00  0.00    +0.000 C 
ATOM      4  C   UNL     1       7.309  -3.335   0.000  0.00  0.00    +0.000 C 
ATOM      5  C   UNL     1       7.640  -2.579   0.000  0.00  0.00    +0.000 C 
ATOM      6  C   UNL     1       7.151  -1.914   0.000  0.00  0.00    +0.000 C 
ATOM      7  C   UNL     1       7.483  -1.159   0.000  0.00  0.00    +0.000 C 
ATOM      8  C   UNL     1       8.303  -1.068   0.000  0.00  0.00    +0.000 C 
ATOM      9  C   UNL     1       8.791  -1.733   0.000  0.00  0.00    +0.000 C 
ATOM     10  C   UNL     1       9.611  -1.642   0.000  0.00  0.00    +0.000 C 
ATOM     11  C   UNL     1      10.100  -2.306   0.000  0.00  0.00    +0.000 C 
ATOM     12  O   UNL     1      10.920  -2.216   0.000  0.00  0.00    +0.000 OA
ATOM     13  C   UNL     1       9.769  -3.062   0.000  0.00  0.00    +0.000 C 
ATOM     14  C   UNL     1       8.949  -3.153   0.000  0.00  0.00    +0.000 C 
ATOM     15  C   UNL     1       8.460  -2.488   0.000  0.00  0.00    +0.000 C 
ATOM     16  C   UNL     1       6.331  -2.005   0.000  0.00  0.00    +0.000 C 
ATOM     17  C   UNL     1       5.715  -1.457   0.000  0.00  0.00    +0.000 C 
ATOM     18  C   UNL     1       5.003  -1.873   0.000  0.00  0.00    +0.000 C 
ATOM     19  O   UNL     1       4.182  -1.792   0.000  0.00  0.00    +0.000 OA
ATOM     20  C   UNL     1       3.851  -2.547   0.000  0.00  0.00    +0.000 C 
ATOM     21  O   UNL     1       4.467  -3.096   0.000  0.00  0.00    +0.000 OA
ATOM     22  C   UNL     1       5.179  -2.679   0.000  0.00  0.00    +0.000 C 
ENDROOT
BRANCH  20  23
ATOM     23  C   UNL     1       3.045  -2.723   0.000  0.00  0.00    +0.000 A 
ATOM     24  C   UNL     1       2.429  -2.175   0.000  0.00  0.00    +0.000 A 
ATOM     25  C   UNL     1       1.716  -2.591   0.000  0.00  0.00    +0.000 A 
ATOM     26  C   UNL     1       1.893  -3.397   0.000  0.00  0.00    +0.000 A 
ATOM     27  O   UNL     1       2.713  -3.479   0.000  0.00  0.00    +0.000 OA
ENDBRANCH  20  23
BRANCH  22  28
ATOM     28  C   UNL     1       5.355  -3.485   0.000  0.00  0.00    +0.000 C 
ATOM     29  O   UNL     1       6.025  -3.966   0.000  0.00  0.00    +0.000 OA
BRANCH  28  30
ATOM     30  C   UNL     1       4.745  -4.041   0.000  0.00  0.00    +0.000 C 
ATOM     31  F   UNL     1       3.959  -3.790   0.000  0.00  0.00    +0.000 F 
ENDBRANCH  28  30
ENDBRANCH  22  28
TORSDOF 3
