REMARK  Name = 
REMARK  0 active torsions:
REMARK  status: ('A' for Active; 'I' for Inactive)
REMARK                            x       y       z     vdW  Elec       q    Type
REMARK                         _______ _______ _______ _____ _____    ______ ____
ROOT
ATOM      1  O   UNL     1       1.938  -0.825   0.000  0.00  0.00    +0.000 OA
ATOM      2  P   UNL     1       1.938  -0.000   0.000  0.00  0.00    +0.000 P 
ATOM      3  O   UNL     1       2.763  -0.000   0.000  0.00  0.00    +0.000 OA
ATOM      4  O   UNL     1       1.113  -0.000   0.000  0.00  0.00    +0.000 OA
ATOM      5  O   UNL     1       1.938   0.825   0.000  0.00  0.00    +0.000 OA
ENDROOT
TORSDOF 0
REMARK  Name = 
REMARK  0 active torsions:
REMARK  status: ('A' for Active; 'I' for Inactive)
REMARK                            x       y       z     vdW  Elec       q    Type
REMARK                         _______ _______ _______ _____ _____    ______ ____
ROOT
ATOM      1 NA   UNL     1      -1.031  -0.165   0.000  0.00  0.00    +0.000 Na
ENDROOT
TORSDOF 0
REMARK  Name = 
REMARK  0 active torsions:
REMARK  status: ('A' for Active; 'I' for Inactive)
REMARK                            x       y       z     vdW  Elec       q    Type
REMARK                         _______ _______ _______ _____ _____    ______ ____
ROOT
ATOM      1 NA   UNL     1      -2.763  -0.165   0.000  0.00  0.00    +0.000 Na
ENDROOT
TORSDOF 0
