REMARK  Name = 
REMARK  7 active torsions:
REMARK  status: ('A' for Active; 'I' for Inactive)
REMARK    1  A    between atoms: C_13  and  C_20
REMARK    2  A    between atoms: C_18  and  O_41
REMARK    3  A    between atoms: C_19  and  O_44
REMARK    4  A    between atoms: C_20  and  C_32
REMARK    5  A    between atoms: C_21  and  O_45
REMARK    6  A    between atoms: C_22  and  O_44
REMARK    7  A    between atoms: C_31  and  O_45
REMARK                            x       y       z     vdW  Elec       q    Type
REMARK                         _______ _______ _______ _____ _____    ______ ____
ROOT
ATOM      1  C   UNL     1       1.429   2.475   0.000  0.00  0.00    +0.000 A 
ATOM      2  C   UNL     1       2.143   2.062   0.000  0.00  0.00    +0.000 A 
ATOM      3  C   UNL     1       1.429   3.300   0.000  0.00  0.00    +0.000 A 
ATOM      4  C   UNL     1       6.430   2.062   0.000  0.00  0.00    +0.000 C 
ATOM      5  C   UNL     1       7.145   3.300   0.000  0.00  0.00    +0.000 C 
ATOM      6  C   UNL     1       2.858   2.475   0.000  0.00  0.00    +0.000 A 
ATOM      7  C   UNL     1       5.716   2.475   0.000  0.00  0.00    +0.000 A 
ATOM      8  C   UNL     1       2.143   3.712   0.000  0.00  0.00    +0.000 A 
ATOM      9  C   UNL     1       6.430   3.712   0.000  0.00  0.00    +0.000 C 
ATOM     10  C   UNL     1       2.858   3.300   0.000  0.00  0.00    +0.000 A 
ATOM     11  C   UNL     1       5.716   3.300   0.000  0.00  0.00    +0.000 A 
ATOM     12  C   UNL     1       4.287   2.475   0.000  0.00  0.00    +0.000 A 
ATOM     13  C   UNL     1       4.287   3.300   0.000  0.00  0.00    +0.000 A 
ATOM     14  C   UNL     1       3.572   2.062   0.000  0.00  0.00    +0.000 C 
ATOM     15  C   UNL     1       5.001   2.062   0.000  0.00  0.00    +0.000 A 
ATOM     16  C   UNL     1       3.572   3.712   0.000  0.00  0.00    +0.000 C 
ATOM     17  C   UNL     1       5.001   3.712   0.000  0.00  0.00    +0.000 A 
ATOM     18  C   UNL     1       7.145   2.475   0.000  0.00  0.00    +0.000 C 
ATOM     19  O   UNL     1       3.572   1.238   0.000  0.00  0.00    +0.000 OA
ATOM     20  O   UNL     1       5.001   1.238   0.000  0.00  0.00    +0.000 OA
ATOM     21  O   UNL     1       3.572   4.537   0.000  0.00  0.00    +0.000 OA
ATOM     22  O   UNL     1       5.001   4.537   0.000  0.00  0.00    +0.000 OA
ATOM     23  O   UNL     1       7.969   2.446   0.000  0.00  0.00    +0.000 OA
ENDROOT
BRANCH   8  25
ATOM     24  C   UNL     1       2.858   4.950   0.000  0.00  0.00    +0.000 C 
ATOM     25  O   UNL     1       2.143   4.537   0.000  0.00  0.00    +0.000 OA
ENDBRANCH   8  25
BRANCH  18  26
ATOM     26  C   UNL     1       7.582   1.775   0.000  0.00  0.00    +0.000 C 
ATOM     27  O   UNL     1       8.406   1.804   0.000  0.00  0.00    +0.000 OA
BRANCH  26  28
ATOM     28  C   UNL     1       7.195   1.047   0.000  0.00  0.00    +0.000 C 
ATOM     29  O   UNL     1       6.370   1.018   0.000  0.00  0.00    +0.000 OA
ENDBRANCH  26  28
ENDBRANCH  18  26
BRANCH   9  30
ATOM     30  O   UNL     1       6.430   4.537   0.000  0.00  0.00    +0.000 OA
BRANCH  30  35
ATOM     31  C   UNL     1       7.859   7.013   0.000  0.00  0.00    +0.000 C 
ATOM     32  C   UNL     1       7.859   4.537   0.000  0.00  0.00    +0.000 C 
ATOM     33  C   UNL     1       7.859   6.188   0.000  0.00  0.00    +0.000 C 
ATOM     34  C   UNL     1       8.574   4.950   0.000  0.00  0.00    +0.000 C 
ATOM     35  C   UNL     1       7.145   4.950   0.000  0.00  0.00    +0.000 C 
ATOM     36  C   UNL     1       8.574   5.775   0.000  0.00  0.00    +0.000 C 
ATOM     37  N   UNL     1       9.288   4.537   0.000  0.00  0.00    +0.000 NA
ATOM     38  O   UNL     1       7.145   5.775   0.000  0.00  0.00    +0.000 OA
BRANCH  36  39
ATOM     39  O   UNL     1       9.288   6.188   0.000  0.00  0.00    +0.000 OA
BRANCH  39  44
ATOM     40  C   UNL     1      10.003   8.250   0.000  0.00  0.00    +0.000 C 
ATOM     41  C   UNL     1       9.288   8.662   0.000  0.00  0.00    +0.000 C 
ATOM     42  C   UNL     1      10.003   7.425   0.000  0.00  0.00    +0.000 C 
ATOM     43  C   UNL     1       8.574   8.250   0.000  0.00  0.00    +0.000 C 
ATOM     44  C   UNL     1       9.288   7.013   0.000  0.00  0.00    +0.000 C 
ATOM     45  O   UNL     1       8.574   7.425   0.000  0.00  0.00    +0.000 OA
ENDBRANCH  39  44
ENDBRANCH  36  39
ENDBRANCH  30  35
ENDBRANCH   9  30
TORSDOF 7
