REMARK  Name = 
REMARK  11 active torsions:
REMARK  status: ('A' for Active; 'I' for Inactive)
REMARK    1  A    between atoms: C_3  and  C_16
REMARK    2  A    between atoms: N_4  and  C_8
REMARK    3  A    between atoms: N_4  and  C_18
REMARK    4  A    between atoms: O_5  and  C_7
REMARK    5  A    between atoms: O_5  and  C_9
REMARK    6  A    between atoms: C_6  and  C_8
REMARK    7  A    between atoms: C_6  and  C_9
REMARK    8  A    between atoms: C_10  and  C_19
REMARK    9  A    between atoms: C_16  and  O_17
REMARK   10  A    between atoms: O_17  and  C_20
REMARK   11  A    between atoms: C_19  and  C_20
REMARK                            x       y       z     vdW  Elec       q    Type
REMARK                         _______ _______ _______ _____ _____    ______ ____
ROOT
ATOM      1  C   UNL     1      -1.783   0.411   0.000  0.00  0.00    +0.000 A 
ATOM      2  C   UNL     1      -1.795  -1.234   0.000  0.00  0.00    +0.000 A 
ATOM      3  C   UNL     1      -2.501   0.003   0.000  0.00  0.00    +0.000 A 
ATOM      4  C   UNL     1      -1.077  -0.007   0.000  0.00  0.00    +0.000 A 
ATOM      5  C   UNL     1      -2.507  -0.816   0.000  0.00  0.00    +0.000 A 
ATOM      6  C   UNL     1      -1.083  -0.826   0.000  0.00  0.00    +0.000 A 
ENDROOT
BRANCH   1   7
ATOM      7  O   UNL     1      -1.778   1.236   0.000  0.00  0.00    +0.000 OA
BRANCH   7   8
ATOM      8  C   UNL     1      -1.066   1.643   0.000  0.00  0.00    +0.000 C 
BRANCH   8   9
ATOM      9  C   UNL     1      -0.351   1.231   0.000  0.00  0.00    +0.000 C 
ATOM     10  O   UNL     1      -0.349   0.411   0.000  0.00  0.00    +0.000 OA
BRANCH   9  11
ATOM     11  C   UNL     1       0.363   1.644   0.000  0.00  0.00    +0.000 C 
BRANCH  11  12
ATOM     12  N   UNL     1       1.078   1.231   0.000  0.00  0.00    +0.000 NA
BRANCH  12  13
ATOM     13  C   UNL     1       1.793   1.644   0.000  0.00  0.00    +0.000 C 
ATOM     14  C   UNL     1       1.793   2.470   0.000  0.00  0.00    +0.000 C 
ATOM     15  C   UNL     1       2.507   1.232   0.000  0.00  0.00    +0.000 C 
ENDBRANCH  12  13
ENDBRANCH  11  12
ENDBRANCH   9  11
ENDBRANCH   8   9
ENDBRANCH   7   8
ENDBRANCH   1   7
BRANCH   2  16
ATOM     16  C   UNL     1      -1.793  -2.057   0.000  0.00  0.00    +0.000 C 
BRANCH  16  17
ATOM     17  C   UNL     1      -1.079  -2.470   0.000  0.00  0.00    +0.000 C 
BRANCH  17  18
ATOM     18  O   UNL     1      -0.364  -2.057   0.000  0.00  0.00    +0.000 OA
BRANCH  18  19
ATOM     19  C   UNL     1       0.351  -2.470   0.000  0.00  0.00    +0.000 C 
BRANCH  19  22
ATOM     20  C   UNL     1       1.890  -2.057   0.000  0.00  0.00    +0.000 C 
ATOM     21  C   UNL     1       1.478  -1.342   0.000  0.00  0.00    +0.000 C 
ATOM     22  C   UNL     1       1.065  -2.057   0.000  0.00  0.00    +0.000 C 
ENDBRANCH  19  22
ENDBRANCH  18  19
ENDBRANCH  17  18
ENDBRANCH  16  17
ENDBRANCH   2  16
TORSDOF 11
