REMARK  Name = 
REMARK  2 active torsions:
REMARK  status: ('A' for Active; 'I' for Inactive)
REMARK    1  A    between atoms: C_4  and  C_7
REMARK    2  A    between atoms: C_6  and  N_10
REMARK                            x       y       z     vdW  Elec       q    Type
REMARK                         _______ _______ _______ _____ _____    ______ ____
ROOT
ATOM      1  C   UNL     1       1.429   0.000   0.000  0.00  0.00    +0.000 A 
ATOM      2  C   UNL     1       1.429   0.825   0.000  0.00  0.00    +0.000 A 
ATOM      3  C   UNL     1       0.000   0.000   0.000  0.00  0.00    +0.000 A 
ATOM      4  C   UNL     1       0.714  -0.412   0.000  0.00  0.00    +0.000 A 
ATOM      5  C   UNL     1       0.714   1.238   0.000  0.00  0.00    +0.000 A 
ATOM      6  C   UNL     1       0.000   0.825   0.000  0.00  0.00    +0.000 A 
ATOM      7  I   UNL     1       0.714   2.062   0.000  0.00  0.00    +0.000 I 
ENDROOT
BRANCH   4   8
ATOM      8  C   UNL     1       0.714  -1.238   0.000  0.00  0.00    +0.000 C 
ATOM      9  N   UNL     1       1.429  -1.650   0.000  0.00  0.00    +0.000 NA
ATOM     10  O   UNL     1       0.000  -1.650   0.000  0.00  0.00    +0.000 OA
ENDBRANCH   4   8
BRANCH   6  11
ATOM     11  N   UNL     1      -0.714   1.238   0.000  0.00  0.00    +0.000 N 
ATOM     12  O   UNL     1      -0.714   2.062   0.000  0.00  0.00    +0.000 OA
ATOM     13  O   UNL     1      -1.429   0.825   0.000  0.00  0.00    +0.000 OA
ENDBRANCH   6  11
TORSDOF 2
