REMARK  Name = 
REMARK  8 active torsions:
REMARK  status: ('A' for Active; 'I' for Inactive)
REMARK    1  A    between atoms: C_2  and  C_3
REMARK    2  A    between atoms: C_12  and  C_29
REMARK    3  A    between atoms: C_24  and  C_25
REMARK    4  A    between atoms: C_29  and  C_30
REMARK    5  A    between atoms: C_30  and  C_31
REMARK    6  A    between atoms: C_34  and  C_37
REMARK    7  A    between atoms: C_37  and  C_38
REMARK    8  A    between atoms: C_38  and  C_39
REMARK                            x       y       z     vdW  Elec       q    Type
REMARK                         _______ _______ _______ _____ _____    ______ ____
ROOT
ATOM      1  C   UNL     1      -2.695  -1.565   0.000  0.00  0.00    +0.000 A 
ATOM      2  C   UNL     1      -2.134  -2.116   0.000  0.00  0.00    +0.000 A 
ATOM      3  C   UNL     1      -1.376  -1.699   0.000  0.00  0.00    +0.000 A 
ATOM      4  C   UNL     1      -0.640  -2.103   0.000  0.00  0.00    +0.000 C 
ATOM      5  C   UNL     1       0.059  -1.716   0.000  0.00  0.00    +0.000 C 
ATOM      6  N   UNL     1       0.199  -0.924   0.000  0.00  0.00    +0.000 NA
ATOM      7  C   UNL     1       1.017  -0.742   0.000  0.00  0.00    +0.000 C 
ATOM      8  C   UNL     1       1.391  -0.036   0.000  0.00  0.00    +0.000 C 
ATOM      9  C   UNL     1       0.975   0.693   0.000  0.00  0.00    +0.000 A 
ATOM     10  C   UNL     1       1.378   1.458   0.000  0.00  0.00    +0.000 A 
ATOM     11  C   UNL     1       0.817   2.009   0.000  0.00  0.00    +0.000 A 
ATOM     12  C   UNL     1       0.059   1.622   0.000  0.00  0.00    +0.000 A 
ATOM     13  N   UNL     1       0.213   0.803   0.000  0.00  0.00    +0.000 NA
ATOM     14  C   UNL     1      -0.647   1.996   0.000  0.00  0.00    +0.000 C 
ATOM     15  C   UNL     1      -1.375   1.609   0.000  0.00  0.00    +0.000 C 
ATOM     16  N   UNL     1      -1.544   0.817   0.000  0.00  0.00    +0.000 NA
ATOM     17  C   UNL     1      -2.333   0.664   0.000  0.00  0.00    +0.000 C 
ATOM     18  C   UNL     1      -2.707  -0.101   0.000  0.00  0.00    +0.000 C 
ATOM     19  C   UNL     1      -2.321  -0.800   0.000  0.00  0.00    +0.000 A 
ATOM     20  N   UNL     1      -1.500  -0.939   0.000  0.00  0.00    +0.000 NA
ATOM     21  C   UNL     1      -2.691   1.363   0.000  0.00  0.00    +0.000 C 
ATOM     22  C   UNL     1      -2.110   1.954   0.000  0.00  0.00    +0.000 C 
ATOM     23  C   UNL     1      -3.506   1.488   0.000  0.00  0.00    +0.000 C 
ATOM     24  C   UNL     1       0.942   2.824   0.000  0.00  0.00    +0.000 C 
ATOM     25  C   UNL     1       1.404  -1.529   0.000  0.00  0.00    +0.000 C 
ATOM     26  C   UNL     1       0.853  -2.090   0.000  0.00  0.00    +0.000 C 
ATOM     27  C   UNL     1       0.998  -2.902   0.000  0.00  0.00    +0.000 C 
ATOM     28  C   UNL     1      -2.246  -2.933   0.000  0.00  0.00    +0.000 C 
ENDROOT
BRANCH   1  30
ATOM     29  C   UNL     1      -4.035  -1.069   0.000  0.00  0.00    +0.000 C 
ATOM     30  C   UNL     1      -3.508  -1.704   0.000  0.00  0.00    +0.000 C 
ENDBRANCH   1  30
BRANCH  22  31
ATOM     31  C   UNL     1      -2.256   2.766   0.000  0.00  0.00    +0.000 C 
ATOM     32  C   UNL     1      -1.626   3.298   0.000  0.00  0.00    +0.000 C 
ENDBRANCH  22  31
BRANCH  10  33
ATOM     33  C   UNL     1       2.193   1.585   0.000  0.00  0.00    +0.000 C 
BRANCH  33  34
ATOM     34  C   UNL     1       2.491   2.354   0.000  0.00  0.00    +0.000 C 
BRANCH  34  35
ATOM     35  C   UNL     1       3.306   2.481   0.000  0.00  0.00    +0.000 C 
ATOM     36  O   UNL     1       3.604   3.250   0.000  0.00  0.00    +0.000 OA
ATOM     37  O   UNL     1       3.824   1.838   0.000  0.00  0.00    +0.000 OA
ENDBRANCH  34  35
ENDBRANCH  33  34
ENDBRANCH  10  33
BRANCH  25  38
ATOM     38  C   UNL     1       2.219  -1.660   0.000  0.00  0.00    +0.000 C 
BRANCH  38  39
ATOM     39  C   UNL     1       2.513  -2.431   0.000  0.00  0.00    +0.000 C 
BRANCH  39  40
ATOM     40  C   UNL     1       3.327  -2.562   0.000  0.00  0.00    +0.000 C 
ATOM     41  O   UNL     1       3.848  -1.922   0.000  0.00  0.00    +0.000 OA
ATOM     42  O   UNL     1       3.621  -3.333   0.000  0.00  0.00    +0.000 OA
ENDBRANCH  39  40
ENDBRANCH  38  39
ENDBRANCH  25  38
TORSDOF 8
REMARK  Name = 
REMARK  8 active torsions:
REMARK  status: ('A' for Active; 'I' for Inactive)
REMARK    1  A    between atoms: C_2  and  C_3
REMARK    2  A    between atoms: C_12  and  C_29
REMARK    3  A    between atoms: C_24  and  C_25
REMARK    4  A    between atoms: C_29  and  C_30
REMARK    5  A    between atoms: C_30  and  C_31
REMARK    6  A    between atoms: C_34  and  C_37
REMARK    7  A    between atoms: C_37  and  C_38
REMARK    8  A    between atoms: C_38  and  C_39
REMARK                            x       y       z     vdW  Elec       q    Type
REMARK                         _______ _______ _______ _____ _____    ______ ____
ROOT
ATOM      1 CL   UNL     1       7.148   0.000   0.000  0.00  0.00    +0.000 Cl
ENDROOT
TORSDOF 0
REMARK  Name = 
REMARK  8 active torsions:
REMARK  status: ('A' for Active; 'I' for Inactive)
REMARK    1  A    between atoms: C_2  and  C_3
REMARK    2  A    between atoms: C_12  and  C_29
REMARK    3  A    between atoms: C_24  and  C_25
REMARK    4  A    between atoms: C_29  and  C_30
REMARK    5  A    between atoms: C_30  and  C_31
REMARK    6  A    between atoms: C_34  and  C_37
REMARK    7  A    between atoms: C_37  and  C_38
REMARK    8  A    between atoms: C_38  and  C_39
REMARK                            x       y       z     vdW  Elec       q    Type
REMARK                         _______ _______ _______ _____ _____    ______ ____
ROOT
ATOM      1 CL   UNL     1       0.000  -4.983   0.000  0.00  0.00    +0.000 Cl
ENDROOT
TORSDOF 0
REMARK  Name = 
REMARK  8 active torsions:
REMARK  status: ('A' for Active; 'I' for Inactive)
REMARK    1  A    between atoms: C_2  and  C_3
REMARK    2  A    between atoms: C_12  and  C_29
REMARK    3  A    between atoms: C_24  and  C_25
REMARK    4  A    between atoms: C_29  and  C_30
REMARK    5  A    between atoms: C_30  and  C_31
REMARK    6  A    between atoms: C_34  and  C_37
REMARK    7  A    between atoms: C_37  and  C_38
REMARK    8  A    between atoms: C_38  and  C_39
REMARK                            x       y       z     vdW  Elec       q    Type
REMARK                         _______ _______ _______ _____ _____    ______ ____
ROOT
ATOM      1 SN   UNL     1       6.323   0.000   0.000  0.00  0.00    +0.000 Sn
ENDROOT
TORSDOF 0
