REMARK  Name = 
REMARK  17 active torsions:
REMARK  status: ('A' for Active; 'I' for Inactive)
REMARK    1  A    between atoms: C_4  and  O_62
REMARK    2  A    between atoms: C_8  and  O_57
REMARK    3  A    between atoms: C_11  and  O_53
REMARK    4  A    between atoms: C_13  and  O_42
REMARK    5  A    between atoms: C_19  and  O_20
REMARK    6  A    between atoms: O_20  and  C_21
REMARK    7  A    between atoms: C_21  and  C_23
REMARK    8  A    between atoms: C_23  and  C_24
REMARK    9  A    between atoms: C_24  and  C_25
REMARK   10  A    between atoms: C_24  and  N_31
REMARK   11  A    between atoms: C_32  and  C_34
REMARK   12  A    between atoms: O_42  and  C_43
REMARK   13  A    between atoms: C_43  and  C_45
REMARK   14  A    between atoms: O_53  and  C_54
REMARK   15  A    between atoms: O_57  and  C_58
REMARK   16  A    between atoms: C_58  and  S_59
REMARK   17  A    between atoms: O_62  and  C_63
REMARK                            x       y       z     vdW  Elec       q    Type
REMARK                         _______ _______ _______ _____ _____    ______ ____
ROOT
ATOM      1  C   UNL     1      -1.000  -0.158   0.000  0.00  0.00    +0.000 C 
ATOM      2  C   UNL     1      -0.290   0.262   0.000  0.00  0.00    +0.000 C 
ATOM      3  C   UNL     1       0.458  -0.206   0.000  0.00  0.00    +0.000 C 
ATOM      4  C   UNL     1       1.020  -0.880   0.000  0.00  0.00    +0.000 C 
ATOM      5  C   UNL     1       1.866  -1.036   0.000  0.00  0.00    +0.000 C 
ATOM      6  O   UNL     1       2.053  -1.840   0.000  0.00  0.00    +0.000 OA
ATOM      7  C   UNL     1       2.537  -0.537   0.000  0.00  0.00    +0.000 C 
ATOM      8  C   UNL     1       3.201  -1.028   0.000  0.00  0.00    +0.000 C 
ATOM      9  C   UNL     1       3.957  -0.698   0.000  0.00  0.00    +0.000 C 
ATOM     10  C   UNL     1       4.050   0.122   0.000  0.00  0.00    +0.000 C 
ATOM     11  C   UNL     1       3.386   0.612   0.000  0.00  0.00    +0.000 C 
ATOM     12  C   UNL     1       2.630   0.282   0.000  0.00  0.00    +0.000 C 
ATOM     13  C   UNL     1       2.071   0.947   0.000  0.00  0.00    +0.000 C 
ATOM     14  C   UNL     1       1.206   1.094   0.000  0.00  0.00    +0.000 C 
ATOM     15  C   UNL     1       0.876   0.418   0.000  0.00  0.00    +0.000 C 
ATOM     16  C   UNL     1       1.694   0.303   0.000  0.00  0.00    +0.000 C 
ATOM     17  C   UNL     1       1.386  -0.231   0.000  0.00  0.00    +0.000 C 
ATOM     18  C   UNL     1       0.425   1.506   0.000  0.00  0.00    +0.000 C 
ATOM     19  C   UNL     1      -0.339   1.117   0.000  0.00  0.00    +0.000 C 
ATOM     20  O   UNL     1       1.470   1.875   0.000  0.00  0.00    +0.000 OA
ATOM     21  C   UNL     1       3.877   1.275   0.000  0.00  0.00    +0.000 C 
ATOM     22  O   UNL     1       4.540   0.785   0.000  0.00  0.00    +0.000 OA
ATOM     23  C   UNL     1       2.538  -1.362   0.000  0.00  0.00    +0.000 C 
ENDROOT
BRANCH  19  24
ATOM     24  O   UNL     1      -1.054   1.529   0.000  0.00  0.00    +0.000 OA
BRANCH  24  25
ATOM     25  C   UNL     1      -1.055   2.354   0.000  0.00  0.00    +0.000 C 
ATOM     26  O   UNL     1      -0.341   2.767   0.000  0.00  0.00    +0.000 OA
BRANCH  25  27
ATOM     27  C   UNL     1      -1.770   2.765   0.000  0.00  0.00    +0.000 C 
ATOM     28  O   UNL     1      -2.484   2.352   0.000  0.00  0.00    +0.000 OA
BRANCH  27  29
ATOM     29  C   UNL     1      -1.771   3.590   0.000  0.00  0.00    +0.000 C 
BRANCH  29  30
ATOM     30  C   UNL     1      -1.057   4.004   0.000  0.00  0.00    +0.000 A 
ATOM     31  C   UNL     1      -1.058   4.829   0.000  0.00  0.00    +0.000 A 
ATOM     32  C   UNL     1      -0.345   5.242   0.000  0.00  0.00    +0.000 A 
ATOM     33  C   UNL     1       0.370   4.831   0.000  0.00  0.00    +0.000 A 
ATOM     34  C   UNL     1       0.372   4.006   0.000  0.00  0.00    +0.000 A 
ATOM     35  C   UNL     1      -0.342   3.592   0.000  0.00  0.00    +0.000 A 
ENDBRANCH  29  30
BRANCH  29  36
ATOM     36  N   UNL     1      -2.486   4.002   0.000  0.00  0.00    +0.000 NA
ATOM     37  C   UNL     1      -2.487   4.827   0.000  0.00  0.00    +0.000 C 
ATOM     38  O   UNL     1      -1.774   5.240   0.000  0.00  0.00    +0.000 OA
BRANCH  37  39
ATOM     39  C   UNL     1      -3.203   5.238   0.000  0.00  0.00    +0.000 A 
ATOM     40  C   UNL     1      -3.916   4.825   0.000  0.00  0.00    +0.000 A 
ATOM     41  C   UNL     1      -4.631   5.236   0.000  0.00  0.00    +0.000 A 
ATOM     42  C   UNL     1      -4.633   6.061   0.000  0.00  0.00    +0.000 A 
ATOM     43  C   UNL     1      -3.919   6.475   0.000  0.00  0.00    +0.000 A 
ATOM     44  C   UNL     1      -3.204   6.063   0.000  0.00  0.00    +0.000 A 
ENDBRANCH  37  39
ENDBRANCH  29  36
ENDBRANCH  27  29
ENDBRANCH  25  27
ENDBRANCH  24  25
ENDBRANCH  19  24
BRANCH   8  45
ATOM     45  O   UNL     1       3.108  -1.847   0.000  0.00  0.00    +0.000 OA
BRANCH  45  46
ATOM     46  C   UNL     1       3.771  -2.338   0.000  0.00  0.00    +0.000 C 
BRANCH  46  47
ATOM     47  S   UNL     1       3.678  -3.157   0.000  0.00  0.00    +0.000 S 
ATOM     48  C   UNL     1       4.342  -3.648   0.000  0.00  0.00    +0.000 C 
ENDBRANCH  46  47
ENDBRANCH  45  46
ENDBRANCH   8  45
BRANCH  13  49
ATOM     49  O   UNL     1       2.481   1.663   0.000  0.00  0.00    +0.000 OA
BRANCH  49  50
ATOM     50  C   UNL     1       2.065   2.376   0.000  0.00  0.00    +0.000 C 
ATOM     51  O   UNL     1       1.240   2.373   0.000  0.00  0.00    +0.000 OA
BRANCH  50  52
ATOM     52  C   UNL     1       2.475   3.092   0.000  0.00  0.00    +0.000 A 
ATOM     53  C   UNL     1       2.059   3.805   0.000  0.00  0.00    +0.000 A 
ATOM     54  C   UNL     1       2.469   4.521   0.000  0.00  0.00    +0.000 A 
ATOM     55  C   UNL     1       3.294   4.524   0.000  0.00  0.00    +0.000 A 
ATOM     56  C   UNL     1       3.709   3.811   0.000  0.00  0.00    +0.000 A 
ATOM     57  C   UNL     1       3.300   3.095   0.000  0.00  0.00    +0.000 A 
ENDBRANCH  50  52
ENDBRANCH  49  50
ENDBRANCH  13  49
BRANCH   4  58
ATOM     58  O   UNL     1       0.603  -1.592   0.000  0.00  0.00    +0.000 OA
BRANCH  58  59
ATOM     59  C   UNL     1       1.012  -2.309   0.000  0.00  0.00    +0.000 C 
ATOM     60  O   UNL     1       1.837  -2.314   0.000  0.00  0.00    +0.000 OA
ATOM     61  C   UNL     1       0.595  -3.021   0.000  0.00  0.00    +0.000 C 
ENDBRANCH  58  59
ENDBRANCH   4  58
BRANCH  11  62
ATOM     62  O   UNL     1       2.872   1.257   0.000  0.00  0.00    +0.000 OA
BRANCH  62  63
ATOM     63  C   UNL     1       3.174   2.025   0.000  0.00  0.00    +0.000 C 
ATOM     64  O   UNL     1       2.660   2.670   0.000  0.00  0.00    +0.000 OA
ATOM     65  C   UNL     1       3.990   2.147   0.000  0.00  0.00    +0.000 C 
ENDBRANCH  62  63
ENDBRANCH  11  62
TORSDOF 17
