REMARK  Name = 
REMARK  10 active torsions:
REMARK  status: ('A' for Active; 'I' for Inactive)
REMARK    1  A    between atoms: O_6  and  N_9
REMARK    2  A    between atoms: O_6  and  C_29
REMARK    3  A    between atoms: N_7  and  C_12
REMARK    4  A    between atoms: N_7  and  C_14
REMARK    5  A    between atoms: N_8  and  C_25
REMARK    6  A    between atoms: C_12  and  C_13
REMARK    7  A    between atoms: C_13  and  C_17
REMARK    8  A    between atoms: C_15  and  C_18
REMARK    9  A    between atoms: C_18  and  C_22
REMARK   10  A    between atoms: C_25  and  C_29
REMARK                            x       y       z     vdW  Elec       q    Type
REMARK                         _______ _______ _______ _____ _____    ______ ____
ROOT
ATOM      1 CL   UNL     1       1.565  -0.747   0.000  0.00  0.00    +0.000 Cl
ATOM      2  F   UNL     1      -1.293  -0.747   0.000  0.00  0.00    +0.000 F 
ATOM      3  C   UNL     1      -0.579  -1.984   0.000  0.00  0.00    +0.000 A 
ATOM      4  C   UNL     1       0.136  -0.747   0.000  0.00  0.00    +0.000 A 
ATOM      5  C   UNL     1      -0.579  -1.159   0.000  0.00  0.00    +0.000 A 
ATOM      6  C   UNL     1       0.136  -2.397   0.000  0.00  0.00    +0.000 A 
ATOM      7  C   UNL     1       0.850  -1.159   0.000  0.00  0.00    +0.000 A 
ATOM      8  C   UNL     1       0.850  -1.984   0.000  0.00  0.00    +0.000 A 
ENDROOT
BRANCH   3   9
ATOM      9  N   UNL     1      -1.293  -2.397   0.000  0.00  0.00    +0.000 N 
ATOM     10  H   UNL     1      -1.736  -2.141   0.000  0.00  0.00    +0.000 HD
BRANCH   9  11
ATOM     11  C   UNL     1      -1.293  -3.222   0.000  0.00  0.00    +0.000 C 
BRANCH  11  14
ATOM     12  F   UNL     1      -2.420  -2.920   0.000  0.00  0.00    +0.000 F 
ATOM     13  F   UNL     1      -1.595  -4.349   0.000  0.00  0.00    +0.000 F 
ATOM     14  C   UNL     1      -2.008  -3.634   0.000  0.00  0.00    +0.000 C 
BRANCH  14  15
ATOM     15  C   UNL     1      -2.722  -4.047   0.000  0.00  0.00    +0.000 A 
ATOM     16  C   UNL     1      -2.722  -4.872   0.000  0.00  0.00    +0.000 A 
ATOM     17  C   UNL     1      -3.437  -3.634   0.000  0.00  0.00    +0.000 A 
ATOM     18  C   UNL     1      -3.437  -5.284   0.000  0.00  0.00    +0.000 A 
ATOM     19  C   UNL     1      -4.151  -4.047   0.000  0.00  0.00    +0.000 A 
ATOM     20  C   UNL     1      -4.151  -4.872   0.000  0.00  0.00    +0.000 A 
ENDBRANCH  14  15
ENDBRANCH  11  14
ENDBRANCH   9  11
ENDBRANCH   3   9
BRANCH   4  21
ATOM     21  C   UNL     1       0.136   0.078   0.000  0.00  0.00    +0.000 C 
BRANCH  21  24
ATOM     22  O   UNL     1       1.565   0.078   0.000  0.00  0.00    +0.000 OA
ATOM     23  N   UNL     1       0.850   1.316   0.000  0.00  0.00    +0.000 N 
ATOM     24  C   UNL     1       0.850   0.491   0.000  0.00  0.00    +0.000 C 
ATOM     25  H   UNL     1       0.407   1.572   0.000  0.00  0.00    +0.000 HD
BRANCH  23  26
ATOM     26  C   UNL     1       1.565   1.728   0.000  0.00  0.00    +0.000 C 
BRANCH  26  27
ATOM     27  C   UNL     1       1.565   2.553   0.000  0.00  0.00    +0.000 C 
BRANCH  27  28
ATOM     28  O   UNL     1       2.279   2.966   0.000  0.00  0.00    +0.000 OA
BRANCH  28  29
ATOM     29  N   UNL     1       2.279   3.791   0.000  0.00  0.00    +0.000 NA
ATOM     30  N   UNL     1       3.708   3.791   0.000  0.00  0.00    +0.000 N 
ATOM     31  N   UNL     1       2.994   5.028   0.000  0.00  0.00    +0.000 N 
ATOM     32  C   UNL     1       2.994   4.203   0.000  0.00  0.00    +0.000 C 
ATOM     33  H   UNL     1       3.708   3.279   0.000  0.00  0.00    +0.000 HD
ATOM     34  H   UNL     1       4.151   4.047   0.000  0.00  0.00    +0.000 HD
ATOM     35  H   UNL     1       2.551   5.284   0.000  0.00  0.00    +0.000 HD
ATOM     36  H   UNL     1       3.437   5.284   0.000  0.00  0.00    +0.000 HD
ENDBRANCH  28  29
ENDBRANCH  27  28
ENDBRANCH  26  27
ENDBRANCH  23  26
ENDBRANCH  21  24
ENDBRANCH   4  21
TORSDOF 10
