REMARK  Name = 
REMARK  5 active torsions:
REMARK  status: ('A' for Active; 'I' for Inactive)
REMARK    1  A    between atoms: N_3  and  CA_4
REMARK    2  A    between atoms: CA_4  and  C_5
REMARK    3  A    between atoms: CA_4  and  CB_8
REMARK    4  A    between atoms: CB_8  and  CG_9
REMARK    5  A    between atoms: CG_9  and  SD_10
REMARK                            x       y       z     vdW  Elec       q    Type
REMARK                         _______ _______ _______ _____ _____    ______ ____
ROOT
ATOM      1  CA  MET A   1       0.357  -0.619   0.000  0.00  0.00    +0.000 C 
ENDROOT
BRANCH   1   4
ATOM      2  C   UNK A   0      -1.786  -1.031   0.000  0.00  0.00    +0.000 C 
ATOM      3  C   UNK A   0      -1.072  -0.619   0.000  0.00  0.00    +0.000 C 
ATOM      4  N   MET A   1      -0.357  -1.031   0.000  0.00  0.00    +0.000 NA
ATOM      5  O   UNK A   0      -1.072   0.206   0.000  0.00  0.00    +0.000 OA
ENDBRANCH   1   4
BRANCH   1   6
ATOM      6  C   MET A   1       1.072  -1.031   0.000  0.00  0.00    +0.000 C 
ATOM      7  O   MET A   1       1.786  -0.619   0.000  0.00  0.00    +0.000 OA
ATOM      8  OXT MET A   1       1.072  -1.856   0.000  0.00  0.00    +0.000 OA
ENDBRANCH   1   6
BRANCH   1   9
ATOM      9  CB  MET A   1       0.357   0.206   0.000  0.00  0.00    +0.000 C 
BRANCH   9  10
ATOM     10  CG  MET A   1       1.072   0.619   0.000  0.00  0.00    +0.000 C 
BRANCH  10  11
ATOM     11  SD  MET A   1       1.072   1.444   0.000  0.00  0.00    +0.000 S 
ATOM     12  CE  MET A   1       1.786   1.856   0.000  0.00  0.00    +0.000 C 
ENDBRANCH  10  11
ENDBRANCH   9  10
ENDBRANCH   1   9
TORSDOF 5
