REMARK  Name = 
REMARK  24 active torsions:
REMARK  status: ('A' for Active; 'I' for Inactive)
REMARK    1  A    between atoms: S_1  and  C_50
REMARK    2  A    between atoms: S_1  and  C_51
REMARK    3  A    between atoms: P_2  and  O_6
REMARK    4  A    between atoms: P_3  and  O_8
REMARK    5  A    between atoms: P_3  and  O_11
REMARK    6  A    between atoms: P_4  and  O_11
REMARK    7  A    between atoms: P_4  and  O_13
REMARK    8  A    between atoms: O_6  and  C_30
REMARK    9  A    between atoms: O_8  and  C_34
REMARK   10  A    between atoms: O_13  and  C_41
REMARK   11  A    between atoms: N_22  and  C_33
REMARK   12  A    between atoms: N_26  and  C_39
REMARK   13  A    between atoms: N_27  and  C_46
REMARK   14  A    between atoms: N_28  and  C_49
REMARK   15  A    between atoms: N_29  and  C_54
REMARK   16  A    between atoms: C_32  and  C_34
REMARK   17  A    between atoms: C_38  and  C_40
REMARK   18  A    between atoms: C_38  and  C_41
REMARK   19  A    between atoms: C_40  and  C_45
REMARK   20  A    between atoms: C_46  and  C_47
REMARK   21  A    between atoms: C_47  and  C_48
REMARK   22  A    between atoms: C_49  and  C_50
REMARK   23  A    between atoms: C_51  and  C_52
REMARK   24  A    between atoms: C_53  and  C_55
REMARK                            x       y       z     vdW  Elec       q    Type
REMARK                         _______ _______ _______ _____ _____    ______ ____
ROOT
ATOM      1  O   UNL     1      -3.306   0.713   0.000  0.00  0.00    +0.000 OA
ENDROOT
BRANCH   1   2
ATOM      2  P   UNL     1      -4.059   1.050   0.000  0.00  0.00    +0.000 P 
ATOM      3  O   UNL     1      -3.723   1.803   0.000  0.00  0.00    +0.000 OA
ATOM      4  O   UNL     1      -4.396   0.297   0.000  0.00  0.00    +0.000 OA
BRANCH   2   5
ATOM      5  O   UNL     1      -4.812   1.387   0.000  0.00  0.00    +0.000 OA
BRANCH   5   6
ATOM      6  P   UNL     1      -5.481   0.903   0.000  0.00  0.00    +0.000 P 
ATOM      7  O   UNL     1      -4.997   0.235   0.000  0.00  0.00    +0.000 OA
ATOM      8  O   UNL     1      -5.965   1.571   0.000  0.00  0.00    +0.000 OA
BRANCH   6   9
ATOM      9  O   UNL     1      -6.149   0.419   0.000  0.00  0.00    +0.000 OA
BRANCH   9  10
ATOM     10  C   UNL     1      -6.902   0.756   0.000  0.00  0.00    +0.000 C 
BRANCH  10  15
ATOM     11  O   UNL     1      -7.572  -0.553   0.000  0.00  0.00    +0.000 OA
ATOM     12  O   UNL     1      -9.666  -0.137   0.000  0.00  0.00    +0.000 OA
ATOM     13  C   UNL     1      -8.355   0.528   0.000  0.00  0.00    +0.000 C 
ATOM     14  C   UNL     1      -8.841  -0.138   0.000  0.00  0.00    +0.000 C 
ATOM     15  C   UNL     1      -7.570   0.272   0.000  0.00  0.00    +0.000 C 
ATOM     16  C   UNL     1      -8.357  -0.806   0.000  0.00  0.00    +0.000 C 
BRANCH  16  17
ATOM     17  N   UNL     1      -8.613  -1.591   0.000  0.00  0.00    +0.000 N 
ATOM     18  N   UNL     1      -8.613  -2.918   0.000  0.00  0.00    +0.000 NA
ATOM     19  N   UNL     1     -10.108  -1.429   0.000  0.00  0.00    +0.000 NA
ATOM     20  N   UNL     1     -10.823  -2.667   0.000  0.00  0.00    +0.000 NA
ATOM     21  C   UNL     1      -9.394  -1.842   0.000  0.00  0.00    +0.000 A 
ATOM     22  C   UNL     1      -8.132  -2.254   0.000  0.00  0.00    +0.000 A 
ATOM     23  C   UNL     1      -9.394  -2.667   0.000  0.00  0.00    +0.000 A 
ATOM     24  C   UNL     1     -10.108  -3.079   0.000  0.00  0.00    +0.000 A 
ATOM     25  C   UNL     1     -10.823  -1.842   0.000  0.00  0.00    +0.000 A 
BRANCH  24  26
ATOM     26  N   UNL     1     -10.108  -3.904   0.000  0.00  0.00    +0.000 N 
ATOM     27  H   UNL     1     -10.551  -4.160   0.000  0.00  0.00    +0.000 HD
ATOM     28  H   UNL     1      -9.665  -4.160   0.000  0.00  0.00    +0.000 HD
ENDBRANCH  24  26
ENDBRANCH  16  17
BRANCH  13  29
ATOM     29  O   UNL     1      -8.608   1.314   0.000  0.00  0.00    +0.000 OA
BRANCH  29  30
ATOM     30  P   UNL     1      -8.055   1.926   0.000  0.00  0.00    +0.000 P 
ATOM     31  O   UNL     1      -7.502   2.538   0.000  0.00  0.00    +0.000 OA
ATOM     32  O   UNL     1      -8.667   2.479   0.000  0.00  0.00    +0.000 OA
ATOM     33  O   UNL     1      -7.443   1.373   0.000  0.00  0.00    +0.000 OA
ENDBRANCH  29  30
ENDBRANCH  13  29
ENDBRANCH  10  15
ENDBRANCH   9  10
ENDBRANCH   6   9
ENDBRANCH   5   6
ENDBRANCH   2   5
ENDBRANCH   1   2
BRANCH   1  34
ATOM     34  C   UNL     1      -2.638   1.197   0.000  0.00  0.00    +0.000 C 
BRANCH  34  35
ATOM     35  C   UNL     1      -1.885   0.860   0.000  0.00  0.00    +0.000 C 
ATOM     36  C   UNL     1      -1.548   1.613   0.000  0.00  0.00    +0.000 C 
ATOM     37  C   UNL     1      -2.222   0.107   0.000  0.00  0.00    +0.000 C 
BRANCH  35  39
ATOM     38  O   UNL     1      -1.047  -0.297   0.000  0.00  0.00    +0.000 OA
ATOM     39  C   UNL     1      -1.132   0.523   0.000  0.00  0.00    +0.000 C 
BRANCH  39  42
ATOM     40  O   UNL     1      -0.548   1.827   0.000  0.00  0.00    +0.000 OA
ATOM     41  N   UNL     1       0.290   0.670   0.000  0.00  0.00    +0.000 N 
ATOM     42  C   UNL     1      -0.463   1.007   0.000  0.00  0.00    +0.000 C 
ATOM     43  H   UNL     1       0.342   0.161   0.000  0.00  0.00    +0.000 HD
BRANCH  41  44
ATOM     44  C   UNL     1       0.958   1.154   0.000  0.00  0.00    +0.000 C 
BRANCH  44  45
ATOM     45  C   UNL     1       1.711   0.817   0.000  0.00  0.00    +0.000 C 
BRANCH  45  48
ATOM     46  O   UNL     1       2.295   2.121   0.000  0.00  0.00    +0.000 OA
ATOM     47  N   UNL     1       3.132   0.964   0.000  0.00  0.00    +0.000 N 
ATOM     48  C   UNL     1       2.379   1.301   0.000  0.00  0.00    +0.000 C 
ATOM     49  H   UNL     1       3.185   0.455   0.000  0.00  0.00    +0.000 HD
BRANCH  47  50
ATOM     50  C   UNL     1       3.801   1.448   0.000  0.00  0.00    +0.000 C 
BRANCH  50  51
ATOM     51  C   UNL     1       4.554   1.111   0.000  0.00  0.00    +0.000 C 
BRANCH  51  52
ATOM     52  S   UNL     1       5.222   1.594   0.000  0.00  0.00    +0.000 S 
BRANCH  52  54
ATOM     53  O   UNL     1       6.060   0.437   0.000  0.00  0.00    +0.000 OA
ATOM     54  C   UNL     1       5.975   1.258   0.000  0.00  0.00    +0.000 C 
BRANCH  54  55
ATOM     55  C   UNL     1       6.644   1.741   0.000  0.00  0.00    +0.000 C 
ATOM     56  C   UNL     1       7.396   1.405   0.000  0.00  0.00    +0.000 C 
BRANCH  56  57
ATOM     57  C   UNL     1       8.065   1.888   0.000  0.00  0.00    +0.000 A 
ATOM     58  C   UNL     1       9.401   2.856   0.000  0.00  0.00    +0.000 A 
ATOM     59  C   UNL     1       7.980   2.709   0.000  0.00  0.00    +0.000 A 
ATOM     60  C   UNL     1       8.818   1.551   0.000  0.00  0.00    +0.000 A 
ATOM     61  C   UNL     1       8.648   3.193   0.000  0.00  0.00    +0.000 A 
ATOM     62  C   UNL     1       9.486   2.035   0.000  0.00  0.00    +0.000 A 
BRANCH  58  63
ATOM     63  N   UNL     1      10.070   3.340   0.000  0.00  0.00    +0.000 N 
ATOM     64  C   UNL     1      10.823   3.003   0.000  0.00  0.00    +0.000 C 
ATOM     65  C   UNL     1       9.985   4.160   0.000  0.00  0.00    +0.000 C 
ENDBRANCH  58  63
ENDBRANCH  56  57
ENDBRANCH  54  55
ENDBRANCH  52  54
ENDBRANCH  51  52
ENDBRANCH  50  51
ENDBRANCH  47  50
ENDBRANCH  45  48
ENDBRANCH  44  45
ENDBRANCH  41  44
ENDBRANCH  39  42
ENDBRANCH  35  39
ENDBRANCH  34  35
ENDBRANCH   1  34
TORSDOF 24
