REMARK  Name = 
REMARK  3 active torsions:
REMARK  status: ('A' for Active; 'I' for Inactive)
REMARK    1  A    between atoms: C_2  and  C_15
REMARK    2  A    between atoms: C_7  and  C_8
REMARK    3  A    between atoms: C_8  and  C_15
REMARK                            x       y       z     vdW  Elec       q    Type
REMARK                         _______ _______ _______ _____ _____    ______ ____
ROOT
ATOM      1  C   UNL     1       0.357  -0.206   0.000  0.00  0.00    +0.000 C 
ATOM      2  C   UNL     1       0.770  -0.921   0.000  0.00  0.00    +0.000 C 
ATOM      3  C   UNL     1      -0.055  -0.921   0.000  0.00  0.00    +0.000 C 
ENDROOT
BRANCH   1   5
ATOM      4  C   UNL     1       1.786  -0.206   0.000  0.00  0.00    +0.000 A 
ATOM      5  C   UNL     1       1.072   0.206   0.000  0.00  0.00    +0.000 A 
ATOM      6  C   UNL     1       1.072   1.031   0.000  0.00  0.00    +0.000 A 
ATOM      7  N   UNL     1       1.786   1.444   0.000  0.00  0.00    +0.000 NA
ATOM      8  C   UNL     1       2.501   1.031   0.000  0.00  0.00    +0.000 A 
ATOM      9  C   UNL     1       2.501   0.206   0.000  0.00  0.00    +0.000 A 
ENDBRANCH   1   5
BRANCH   1  10
ATOM     10  C   UNL     1      -0.357   0.206   0.000  0.00  0.00    +0.000 C 
ATOM     11  O   UNL     1      -0.357   1.031   0.000  0.00  0.00    +0.000 OA
BRANCH  10  12
ATOM     12  C   UNL     1      -1.072  -0.206   0.000  0.00  0.00    +0.000 A 
ATOM     13  C   UNL     1      -1.786   0.206   0.000  0.00  0.00    +0.000 A 
ATOM     14  C   UNL     1      -1.072  -1.031   0.000  0.00  0.00    +0.000 A 
ATOM     15  C   UNL     1      -2.501  -0.206   0.000  0.00  0.00    +0.000 A 
ATOM     16  N   UNL     1      -1.786  -1.444   0.000  0.00  0.00    +0.000 NA
ATOM     17  C   UNL     1      -2.501  -1.031   0.000  0.00  0.00    +0.000 A 
ENDBRANCH  10  12
ENDBRANCH   1  10
TORSDOF 3
