REMARK  Name = 
REMARK  13 active torsions:
REMARK  status: ('A' for Active; 'I' for Inactive)
REMARK    1  A    between atoms: C_2  and  C_3
REMARK    2  A    between atoms: C_3  and  C_4
REMARK    3  A    between atoms: C_4  and  C_5
REMARK    4  A    between atoms: C_5  and  C_37
REMARK    5  A    between atoms: C_12  and  C_26
REMARK    6  A    between atoms: C_13  and  O_24
REMARK    7  A    between atoms: C_16  and  C_18
REMARK    8  A    between atoms: C_26  and  N_27
REMARK    9  A    between atoms: N_27  and  C_28
REMARK   10  A    between atoms: C_28  and  C_29
REMARK   11  A    between atoms: C_28  and  C_33
REMARK   12  A    between atoms: C_29  and  C_30
REMARK   13  A    between atoms: C_33  and  C_34
REMARK                            x       y       z     vdW  Elec       q    Type
REMARK                         _______ _______ _______ _____ _____    ______ ____
ROOT
ATOM      1  C   UNL     1       3.013   9.985   0.000  0.00  0.00    +0.000 C 
ATOM      2  C   UNL     1       3.478   9.304   0.000  0.00  0.00    +0.000 C 
ATOM      3  S   UNL     1       3.235   8.515   0.000  0.00  0.00    +0.000 S 
ATOM      4  O   UNL     1       4.057   8.454   0.000  0.00  0.00    +0.000 OA
ATOM      5  O   UNL     1       3.358   7.700   0.000  0.00  0.00    +0.000 OA
ATOM      6  C   UNL     1       2.467   8.214   0.000  0.00  0.00    +0.000 A 
ATOM      7  C   UNL     1       2.467   7.389   0.000  0.00  0.00    +0.000 A 
ATOM      8  C   UNL     1       1.752   6.976   0.000  0.00  0.00    +0.000 A 
ATOM      9  C   UNL     1       1.038   7.389   0.000  0.00  0.00    +0.000 A 
ATOM     10  C   UNL     1       1.038   8.214   0.000  0.00  0.00    +0.000 A 
ATOM     11  C   UNL     1       1.752   8.627   0.000  0.00  0.00    +0.000 A 
ATOM     12  C   UNL     1       1.629   9.442   0.000  0.00  0.00    +0.000 C 
ATOM     13  N   UNL     1       2.190  10.047   0.000  0.00  0.00    +0.000 NA
ENDROOT
BRANCH  12  14
ATOM     14  C   UNL     1       0.841   9.685   0.000  0.00  0.00    +0.000 A 
ATOM     15  C   UNL     1       0.236   9.124   0.000  0.00  0.00    +0.000 A 
ATOM     16  C   UNL     1      -0.552   9.367   0.000  0.00  0.00    +0.000 A 
ATOM     17  C   UNL     1      -0.736  10.172   0.000  0.00  0.00    +0.000 A 
ATOM     18  C   UNL     1      -0.131  10.733   0.000  0.00  0.00    +0.000 A 
ATOM     19  C   UNL     1       0.657  10.490   0.000  0.00  0.00    +0.000 A 
ENDBRANCH  12  14
BRANCH   1  20
ATOM     20  C   UNL     1       3.781  10.287   0.000  0.00  0.00    +0.000 C 
ATOM     21  C   UNL     1       4.426   9.772   0.000  0.00  0.00    +0.000 C 
ENDBRANCH   1  20
BRANCH   9  22
ATOM     22  O   UNL     1       0.323   6.976   0.000  0.00  0.00    +0.000 OA
ATOM     23  C   UNL     1      -0.391   7.389   0.000  0.00  0.00    +0.000 C 
ENDBRANCH   9  22
BRANCH   1  24
ATOM     24  C   UNL     1       2.890  10.801   0.000  0.00  0.00    +0.000 C 
BRANCH  24  25
ATOM     25  C   UNL     1       3.535  11.316   0.000  0.00  0.00    +0.000 C 
BRANCH  25  27
ATOM     26  C   UNL     1       4.948  11.528   0.000  0.00  0.00    +0.000 C 
ATOM     27  C   UNL     1       4.303  11.014   0.000  0.00  0.00    +0.000 C 
ENDBRANCH  25  27
ENDBRANCH  24  25
ENDBRANCH   1  24
BRANCH   8  28
ATOM     28  C   UNL     1       1.752   6.152   0.000  0.00  0.00    +0.000 C 
BRANCH  28  29
ATOM     29  N   UNL     1       2.467   5.739   0.000  0.00  0.00    +0.000 NA
BRANCH  29  30
ATOM     30  C   UNL     1       2.467   4.914   0.000  0.00  0.00    +0.000 C 
BRANCH  30  31
ATOM     31  C   UNL     1       1.752   4.502   0.000  0.00  0.00    +0.000 C 
BRANCH  31  32
ATOM     32  C   UNL     1       1.038   4.914   0.000  0.00  0.00    +0.000 C 
ATOM     33  O   UNL     1       0.323   4.502   0.000  0.00  0.00    +0.000 OA
ATOM     34  O   UNL     1       1.038   5.739   0.000  0.00  0.00    +0.000 OA
ENDBRANCH  31  32
ENDBRANCH  30  31
BRANCH  30  35
ATOM     35  C   UNL     1       3.181   4.502   0.000  0.00  0.00    +0.000 C 
BRANCH  35  36
ATOM     36  C   UNL     1       3.896   4.914   0.000  0.00  0.00    +0.000 C 
ATOM     37  O   UNL     1       3.896   5.739   0.000  0.00  0.00    +0.000 OA
ATOM     38  O   UNL     1       4.610   4.502   0.000  0.00  0.00    +0.000 OA
ENDBRANCH  35  36
ENDBRANCH  30  35
ENDBRANCH  29  30
ENDBRANCH  28  29
ENDBRANCH   8  28
TORSDOF 13
