REMARK  Name = 
REMARK  5 active torsions:
REMARK  status: ('A' for Active; 'I' for Inactive)
REMARK    1  A    between atoms: C_2  and  C_16
REMARK    2  A    between atoms: C_5  and  O_7
REMARK    3  A    between atoms: O_7  and  C_8
REMARK    4  A    between atoms: C_8  and  C_9
REMARK    5  A    between atoms: C_9  and  N_10
REMARK                            x       y       z     vdW  Elec       q    Type
REMARK                         _______ _______ _______ _____ _____    ______ ____
ROOT
ATOM      1  C   UNL     1      -0.773  -4.843   0.000  0.00  0.00    +0.000 C 
ATOM      2  C   UNL     1      -1.409  -4.319   0.000  0.00  0.00    +0.000 C 
ATOM      3  C   UNL     1      -1.273  -3.505   0.000  0.00  0.00    +0.000 C 
ATOM      4  C   UNL     1      -0.500  -3.216   0.000  0.00  0.00    +0.000 C 
ATOM      5  O   UNL     1      -1.078  -2.628   0.000  0.00  0.00    +0.000 OA
ATOM      6  O   UNL     1      -0.697  -1.896   0.000  0.00  0.00    +0.000 OA
ATOM      7  C   UNL     1       0.116  -2.032   0.000  0.00  0.00    +0.000 C 
ATOM      8  O   UNL     1       0.238  -2.848   0.000  0.00  0.00    +0.000 OA
ATOM      9  C   UNL     1       0.852  -1.659   0.000  0.00  0.00    +0.000 C 
ATOM     10  C   UNL     1       0.852  -0.911   0.000  0.00  0.00    +0.000 C 
ATOM     11  C   UNL     1       1.301  -0.121   0.000  0.00  0.00    +0.000 C 
ATOM     12  C   UNL     1       0.566  -0.494   0.000  0.00  0.00    +0.000 C 
ATOM     13  C   UNL     1       0.566  -1.242   0.000  0.00  0.00    +0.000 C 
ATOM     14  C   UNL     1       1.301  -1.616   0.000  0.00  0.00    +0.000 C 
ATOM     15  C   UNL     1       2.037  -1.242   0.000  0.00  0.00    +0.000 C 
ATOM     16  C   UNL     1       1.587  -2.032   0.000  0.00  0.00    +0.000 C 
ATOM     17  C   UNL     1       2.037  -0.494   0.000  0.00  0.00    +0.000 C 
ATOM     18  C   UNL     1       0.136  -3.741   0.000  0.00  0.00    +0.000 C 
ATOM     19  C   UNL     1       0.000  -4.555   0.000  0.00  0.00    +0.000 C 
ENDROOT
BRANCH   1  21
ATOM     20  C   UNL     1      -1.682  -5.946   0.000  0.00  0.00    +0.000 A 
ATOM     21  C   UNL     1      -0.909  -5.657   0.000  0.00  0.00    +0.000 A 
ATOM     22  C   UNL     1      -0.273  -6.182   0.000  0.00  0.00    +0.000 A 
ATOM     23  C   UNL     1      -0.409  -6.996   0.000  0.00  0.00    +0.000 A 
ATOM     24  C   UNL     1      -1.182  -7.285   0.000  0.00  0.00    +0.000 A 
ATOM     25  C   UNL     1      -1.818  -6.760   0.000  0.00  0.00    +0.000 A 
BRANCH  24  26
ATOM     26  O   UNL     1      -1.318  -8.098   0.000  0.00  0.00    +0.000 OA
BRANCH  26  27
ATOM     27  C   UNL     1      -2.091  -8.387   0.000  0.00  0.00    +0.000 C 
BRANCH  27  28
ATOM     28  C   UNL     1      -2.227  -9.201   0.000  0.00  0.00    +0.000 C 
BRANCH  28  29
ATOM     29  N   UNL     1      -3.000  -9.489   0.000  0.00  0.00    +0.000 NA
ATOM     30  C   UNL     1      -3.136 -10.303   0.000  0.00  0.00    +0.000 C 
ATOM     31  C   UNL     1      -3.909 -10.592   0.000  0.00  0.00    +0.000 C 
ATOM     32  O   UNL     1      -4.545 -10.067   0.000  0.00  0.00    +0.000 OA
ATOM     33  C   UNL     1      -4.409  -9.254   0.000  0.00  0.00    +0.000 C 
ATOM     34  C   UNL     1      -3.636  -8.965   0.000  0.00  0.00    +0.000 C 
ENDBRANCH  28  29
ENDBRANCH  27  28
ENDBRANCH  26  27
ENDBRANCH  24  26
ENDBRANCH   1  21
TORSDOF 5
