REMARK  Name = 
REMARK  19 active torsions:
REMARK  status: ('A' for Active; 'I' for Inactive)
REMARK    1  A    between atoms: C_2  and  C_3
REMARK    2  A    between atoms: C_7  and  S_86
REMARK    3  A    between atoms: C_11  and  C_80
REMARK    4  A    between atoms: C_15  and  C_77
REMARK    5  A    between atoms: C_19  and  C_72
REMARK    6  A    between atoms: C_31  and  C_65
REMARK    7  A    between atoms: C_35  and  C_60
REMARK    8  A    between atoms: C_39  and  C_56
REMARK    9  A    between atoms: C_43  and  C_47
REMARK   10  A    between atoms: C_47  and  C_48
REMARK   11  A    between atoms: C_48  and  C_50
REMARK   12  A    between atoms: C_50  and  C_51
REMARK   13  A    between atoms: C_60  and  C_61
REMARK   14  A    between atoms: C_65  and  C_66
REMARK   15  A    between atoms: C_72  and  C_73
REMARK   16  A    between atoms: C_80  and  C_81
REMARK   17  A    between atoms: S_86  and  C_87
REMARK   18  A    between atoms: C_87  and  C_88
REMARK   19  A    between atoms: C_88  and  N_89
REMARK                            x       y       z     vdW  Elec       q    Type
REMARK                         _______ _______ _______ _____ _____    ______ ____
ROOT
ATOM      1  C   UNL     1      -1.386  -0.411   0.000  0.00  0.00    +0.000 C 
ATOM      2  C   UNL     1      -0.940   0.283   0.000  0.00  0.00    +0.000 C 
ATOM      3  O   UNL     1      -0.116   0.244   0.000  0.00  0.00    +0.000 OA
ATOM      4  N   UNL     1      -1.318   1.016   0.000  0.00  0.00    +0.000 N 
ATOM      5  C   UNL     1      -0.604   1.429   0.000  0.00  0.00    +0.000 C 
ATOM      6  C   UNL     1      -0.604   2.254   0.000  0.00  0.00    +0.000 C 
ATOM      7  O   UNL     1       0.111   2.666   0.000  0.00  0.00    +0.000 OA
ATOM      8  N   UNL     1      -1.318   2.666   0.000  0.00  0.00    +0.000 N 
ATOM      9  C   UNL     1      -0.940   3.400   0.000  0.00  0.00    +0.000 C 
ATOM     10  C   UNL     1      -1.386   4.094   0.000  0.00  0.00    +0.000 C 
ATOM     11  O   UNL     1      -1.008   4.827   0.000  0.00  0.00    +0.000 OA
ATOM     12  N   UNL     1      -2.211   4.054   0.000  0.00  0.00    +0.000 NA
ATOM     13  C   UNL     1      -2.289   4.876   0.000  0.00  0.00    +0.000 C 
ATOM     14  C   UNL     1      -3.039   5.218   0.000  0.00  0.00    +0.000 C 
ATOM     15  O   UNL     1      -3.118   6.040   0.000  0.00  0.00    +0.000 OA
ATOM     16  N   UNL     1      -3.711   4.740   0.000  0.00  0.00    +0.000 N 
ATOM     17  C   UNL     1      -4.221   5.388   0.000  0.00  0.00    +0.000 C 
ATOM     18  C   UNL     1      -5.038   5.271   0.000  0.00  0.00    +0.000 C 
ATOM     19  O   UNL     1      -5.548   5.920   0.000  0.00  0.00    +0.000 OA
ATOM     20  N   UNL     1      -5.345   4.505   0.000  0.00  0.00    +0.000 NA
ATOM     21  C   UNL     1      -6.124   4.775   0.000  0.00  0.00    +0.000 C 
ATOM     22  C   UNL     1      -6.748   4.235   0.000  0.00  0.00    +0.000 C 
ATOM     23  O   UNL     1      -7.527   4.505   0.000  0.00  0.00    +0.000 OA
ATOM     24  N   UNL     1      -6.592   3.425   0.000  0.00  0.00    +0.000 NA
ATOM     25  C   UNL     1      -7.393   3.230   0.000  0.00  0.00    +0.000 C 
ATOM     26  C   UNL     1      -7.626   2.438   0.000  0.00  0.00    +0.000 C 
ATOM     27  O   UNL     1      -8.428   2.244   0.000  0.00  0.00    +0.000 OA
ATOM     28  N   UNL     1      -7.056   1.841   0.000  0.00  0.00    +0.000 N 
ATOM     29  C   UNL     1      -7.626   1.244   0.000  0.00  0.00    +0.000 C 
ATOM     30  C   UNL     1      -7.393   0.453   0.000  0.00  0.00    +0.000 C 
ATOM     31  O   UNL     1      -7.963  -0.144   0.000  0.00  0.00    +0.000 OA
ATOM     32  N   UNL     1      -6.592   0.258   0.000  0.00  0.00    +0.000 N 
ATOM     33  C   UNL     1      -6.748  -0.552   0.000  0.00  0.00    +0.000 C 
ATOM     34  C   UNL     1      -6.124  -1.092   0.000  0.00  0.00    +0.000 C 
ATOM     35  O   UNL     1      -6.280  -1.902   0.000  0.00  0.00    +0.000 OA
ATOM     36  N   UNL     1      -5.345  -0.822   0.000  0.00  0.00    +0.000 N 
ATOM     37  C   UNL     1      -5.038  -1.588   0.000  0.00  0.00    +0.000 C 
ATOM     38  C   UNL     1      -4.221  -1.706   0.000  0.00  0.00    +0.000 C 
ATOM     39  O   UNL     1      -3.915  -2.471   0.000  0.00  0.00    +0.000 OA
ATOM     40  N   UNL     1      -3.711  -1.057   0.000  0.00  0.00    +0.000 N 
ATOM     41  C   UNL     1      -3.039  -1.536   0.000  0.00  0.00    +0.000 C 
ATOM     42  C   UNL     1      -2.289  -1.193   0.000  0.00  0.00    +0.000 C 
ATOM     43  O   UNL     1      -1.617  -1.671   0.000  0.00  0.00    +0.000 OA
ATOM     44  N   UNL     1      -2.211  -0.372   0.000  0.00  0.00    +0.000 NA
ATOM     45  C   UNL     1      -3.829  -0.240   0.000  0.00  0.00    +0.000 C 
ATOM     46  C   UNL     1      -5.002  -0.072   0.000  0.00  0.00    +0.000 C 
ATOM     47  C   UNL     1      -5.897   0.704   0.000  0.00  0.00    +0.000 C 
ATOM     48  C   UNL     1      -6.231   1.841   0.000  0.00  0.00    +0.000 C 
ATOM     49  C   UNL     1      -7.963   3.827   0.000  0.00  0.00    +0.000 C 
ATOM     50  C   UNL     1      -6.280   5.585   0.000  0.00  0.00    +0.000 C 
ATOM     51  C   UNL     1      -3.829   3.923   0.000  0.00  0.00    +0.000 C 
ATOM     52  C   UNL     1      -2.110   2.434   0.000  0.00  0.00    +0.000 C 
ATOM     53  C   UNL     1      -2.110   1.249   0.000  0.00  0.00    +0.000 C 
ENDROOT
BRANCH  13  54
ATOM     54  C   UNL     1      -1.617   5.354   0.000  0.00  0.00    +0.000 C 
ATOM     55  C   UNL     1      -1.695   6.176   0.000  0.00  0.00    +0.000 C 
ATOM     56  C   UNL     1      -0.797   5.260   0.000  0.00  0.00    +0.000 C 
ENDBRANCH  13  54
BRANCH  37  57
ATOM     57  C   UNL     1      -5.548  -2.237   0.000  0.00  0.00    +0.000 C 
ATOM     58  C   UNL     1      -5.241  -3.002   0.000  0.00  0.00    +0.000 C 
ATOM     59  C   UNL     1      -6.361  -2.377   0.000  0.00  0.00    +0.000 C 
ENDBRANCH  37  57
BRANCH   1  61
ATOM     60  C   UNL     1      -0.184  -1.183   0.000  0.00  0.00    +0.000 C 
ATOM     61  C   UNL     1      -1.008  -1.144   0.000  0.00  0.00    +0.000 C 
ENDBRANCH   1  61
BRANCH  41  62
ATOM     62  C   UNL     1      -3.118  -2.357   0.000  0.00  0.00    +0.000 C 
ATOM     63  O   UNL     1      -3.726  -2.915   0.000  0.00  0.00    +0.000 OA
BRANCH  62  64
ATOM     64  C   UNL     1      -2.446  -2.835   0.000  0.00  0.00    +0.000 C 
ATOM     65  C   UNL     1      -2.524  -3.657   0.000  0.00  0.00    +0.000 C 
BRANCH  64  66
ATOM     66  C   UNL     1      -1.695  -2.493   0.000  0.00  0.00    +0.000 C 
BRANCH  66  67
ATOM     67  C   UNL     1      -1.023  -2.971   0.000  0.00  0.00    +0.000 C 
ATOM     68  C   UNL     1      -1.102  -3.792   0.000  0.00  0.00    +0.000 C 
ATOM     69  C   UNL     1      -0.430  -4.271   0.000  0.00  0.00    +0.000 C 
ENDBRANCH  66  67
ENDBRANCH  64  66
ENDBRANCH  62  64
ENDBRANCH  41  62
BRANCH  33  70
ATOM     70  C   UNL     1      -7.527  -0.822   0.000  0.00  0.00    +0.000 C 
BRANCH  70  71
ATOM     71  C   UNL     1      -7.683  -1.632   0.000  0.00  0.00    +0.000 C 
ATOM     72  C   UNL     1      -7.060  -2.172   0.000  0.00  0.00    +0.000 C 
ATOM     73  C   UNL     1      -8.463  -1.902   0.000  0.00  0.00    +0.000 C 
ENDBRANCH  70  71
ENDBRANCH  33  70
BRANCH   9  74
ATOM     74  C   UNL     1      -0.116   3.439   0.000  0.00  0.00    +0.000 C 
BRANCH  74  75
ATOM     75  C   UNL     1       0.262   4.172   0.000  0.00  0.00    +0.000 C 
ATOM     76  C   UNL     1       0.995   3.794   0.000  0.00  0.00    +0.000 C 
ATOM     77  C   UNL     1      -0.472   4.550   0.000  0.00  0.00    +0.000 C 
ATOM     78  O   UNL     1       0.640   4.906   0.000  0.00  0.00    +0.000 OA
ENDBRANCH  74  75
ENDBRANCH   9  74
BRANCH  29  79
ATOM     79  C   UNL     1      -8.428   1.439   0.000  0.00  0.00    +0.000 C 
BRANCH  79  80
ATOM     80  C   UNL     1      -8.997   0.842   0.000  0.00  0.00    +0.000 C 
ATOM     81  C   UNL     1      -8.764   0.050   0.000  0.00  0.00    +0.000 C 
ATOM     82  C   UNL     1      -9.799   1.036   0.000  0.00  0.00    +0.000 C 
ENDBRANCH  79  80
ENDBRANCH  29  79
BRANCH   5  83
ATOM     83  S   UNL     1       0.111   1.016   0.000  0.00  0.00    +0.000 S 
BRANCH  83  84
ATOM     84  C   UNL     1       0.825   1.429   0.000  0.00  0.00    +0.000 C 
BRANCH  84  85
ATOM     85  C   UNL     1       1.540   1.016   0.000  0.00  0.00    +0.000 C 
BRANCH  85  86
ATOM     86  N   UNL     1       2.254   1.429   0.000  0.00  0.00    +0.000 NA
ATOM     87  C   UNL     1       2.254   2.254   0.000  0.00  0.00    +0.000 C 
ATOM     88  C   UNL     1       2.968   1.016   0.000  0.00  0.00    +0.000 C 
ENDBRANCH  85  86
ENDBRANCH  84  85
ENDBRANCH  83  84
ENDBRANCH   5  83
BRANCH  17  89
ATOM     89  C   UNL     1      -3.915   6.154   0.000  0.00  0.00    +0.000 C 
BRANCH  89  90
ATOM     90  C   UNL     1      -4.425   6.803   0.000  0.00  0.00    +0.000 C 
ATOM     91  C   UNL     1      -5.241   6.685   0.000  0.00  0.00    +0.000 C 
ATOM     92  C   UNL     1      -4.118   7.569   0.000  0.00  0.00    +0.000 C 
ENDBRANCH  89  90
ENDBRANCH  17  89
TORSDOF 19
