REMARK  Name = 
REMARK  7 active torsions:
REMARK  status: ('A' for Active; 'I' for Inactive)
REMARK    1  A    between atoms: N_6  and  C_12
REMARK    2  A    between atoms: N_7  and  C_14
REMARK    3  A    between atoms: N_9  and  C_22
REMARK    4  A    between atoms: C_12  and  C_18
REMARK    5  A    between atoms: C_14  and  C_17
REMARK    6  A    between atoms: C_17  and  C_21
REMARK    7  A    between atoms: C_22  and  C_24
REMARK                            x       y       z     vdW  Elec       q    Type
REMARK                         _______ _______ _______ _____ _____    ______ ____
ROOT
ATOM      1  O   UNL     1      -0.715   0.206   0.000  0.00  0.00    +0.000 OA
ATOM      2  N   UNL     1       0.715   0.206   0.000  0.00  0.00    +0.000 N 
ATOM      3  N   UNL     1      -0.715   1.856   0.000  0.00  0.00    +0.000 N 
ATOM      4  N   UNL     1       0.715   1.856   0.000  0.00  0.00    +0.000 NA
ATOM      5  C   UNL     1       1.429   0.619   0.000  0.00  0.00    +0.000 A 
ATOM      6  C   UNL     1       0.000   1.444   0.000  0.00  0.00    +0.000 A 
ATOM      7  C   UNL     1       0.000   0.619   0.000  0.00  0.00    +0.000 A 
ATOM      8  C   UNL     1       1.429   1.444   0.000  0.00  0.00    +0.000 A 
ATOM      9  C   UNL     1       2.143   0.206   0.000  0.00  0.00    +0.000 C 
ATOM     10  H   UNL     1      -1.157   1.601   0.000  0.00  0.00    +0.000 HD
ENDROOT
BRANCH   2  11
ATOM     11  C   UNL     1       0.715  -0.619   0.000  0.00  0.00    +0.000 C 
BRANCH  11  14
ATOM     12  O   UNL     1       2.143  -0.619   0.000  0.00  0.00    +0.000 OA
ATOM     13  N   UNL     1       1.429  -1.856   0.000  0.00  0.00    +0.000 N 
ATOM     14  C   UNL     1       1.429  -1.031   0.000  0.00  0.00    +0.000 C 
ATOM     15  H   UNL     1       0.986  -2.112   0.000  0.00  0.00    +0.000 HD
BRANCH  13  16
ATOM     16  C   UNL     1       2.143  -2.269   0.000  0.00  0.00    +0.000 C 
BRANCH  16  19
ATOM     17  F   UNL     1       3.572  -3.094   0.000  0.00  0.00    +0.000 F 
ATOM     18  N   UNL     1       1.429  -3.506   0.000  0.00  0.00    +0.000 NA
ATOM     19  C   UNL     1       2.143  -3.094   0.000  0.00  0.00    +0.000 A 
ATOM     20  C   UNL     1       2.858  -3.506   0.000  0.00  0.00    +0.000 A 
ATOM     21  C   UNL     1       2.858  -4.331   0.000  0.00  0.00    +0.000 A 
ATOM     22  C   UNL     1       1.429  -4.331   0.000  0.00  0.00    +0.000 A 
ATOM     23  C   UNL     1       2.143  -4.744   0.000  0.00  0.00    +0.000 A 
ENDBRANCH  16  19
ENDBRANCH  13  16
ENDBRANCH  11  14
ENDBRANCH   2  11
BRANCH   3  24
ATOM     24  C   UNL     1      -0.715   2.681   0.000  0.00  0.00    +0.000 C 
BRANCH  24  27
ATOM     25  F   UNL     1      -1.841   2.379   0.000  0.00  0.00    +0.000 F 
ATOM     26  F   UNL     1      -1.016   3.808   0.000  0.00  0.00    +0.000 F 
ATOM     27  C   UNL     1      -1.429   3.094   0.000  0.00  0.00    +0.000 C 
BRANCH  27  29
ATOM     28  N   UNL     1      -2.858   3.094   0.000  0.00  0.00    +0.000 NA
ATOM     29  C   UNL     1      -2.143   3.506   0.000  0.00  0.00    +0.000 A 
ATOM     30  C   UNL     1      -2.143   4.331   0.000  0.00  0.00    +0.000 A 
ATOM     31  C   UNL     1      -2.858   4.744   0.000  0.00  0.00    +0.000 A 
ATOM     32  C   UNL     1      -3.572   3.506   0.000  0.00  0.00    +0.000 A 
ATOM     33  C   UNL     1      -3.572   4.331   0.000  0.00  0.00    +0.000 A 
ENDBRANCH  27  29
ENDBRANCH  24  27
ENDBRANCH   3  24
TORSDOF 7
