REMARK  Name = 
REMARK  0 active torsions:
REMARK  status: ('A' for Active; 'I' for Inactive)
REMARK                            x       y       z     vdW  Elec       q    Type
REMARK                         _______ _______ _______ _____ _____    ______ ____
ROOT
ATOM      1  F   UNL     1      -1.429   1.081   0.000  0.00  0.00    +0.000 F 
ATOM      2  O   UNL     1      -1.429  -0.569   0.000  0.00  0.00    +0.000 OA
ATOM      3  O   UNL     1       1.429  -0.569   0.000  0.00  0.00    +0.000 OA
ATOM      4  N   UNL     1       0.000  -0.569   0.000  0.00  0.00    +0.000 N 
ATOM      5  N   UNL     1       0.715   0.668   0.000  0.00  0.00    +0.000 N 
ATOM      6  C   UNL     1      -0.715  -0.157   0.000  0.00  0.00    +0.000 C 
ATOM      7  C   UNL     1      -0.715   0.668   0.000  0.00  0.00    +0.000 C 
ATOM      8  C   UNL     1       0.715  -0.157   0.000  0.00  0.00    +0.000 C 
ATOM      9  C   UNL     1       0.000   1.081   0.000  0.00  0.00    +0.000 C 
ATOM     10  H   UNL     1       0.000  -1.081   0.000  0.00  0.00    +0.000 HD
ATOM     11  H   UNL     1       1.157   0.924   0.000  0.00  0.00    +0.000 HD
ENDROOT
TORSDOF 0
