REMARK  Name = 
REMARK  14 active torsions:
REMARK  status: ('A' for Active; 'I' for Inactive)
REMARK    1  A    between atoms: C_1  and  C_2
REMARK    2  A    between atoms: C_2  and  N_6
REMARK    3  A    between atoms: N_4  and  C_20
REMARK    4  A    between atoms: C_9  and  C_14
REMARK    5  A    between atoms: C_20  and  C_21
REMARK    6  A    between atoms: C_20  and  C_30
REMARK    7  A    between atoms: C_21  and  C_22
REMARK    8  A    between atoms: C_31  and  C_52
REMARK    9  A    between atoms: C_34  and  C_36
REMARK   10  A    between atoms: C_37  and  C_38
REMARK   11  A    between atoms: C_38  and  S_40
REMARK   12  A    between atoms: N_45  and  C_54
REMARK   13  A    between atoms: C_54  and  C_55
REMARK   14  A    between atoms: N_59  and  S_60
REMARK                            x       y       z     vdW  Elec       q    Type
REMARK                         _______ _______ _______ _____ _____    ______ ____
ROOT
ATOM      1  C   UNL     1       0.480   0.754   0.000  0.00  0.00    +0.000 A 
ATOM      2  C   UNL     1       0.067   1.469   0.000  0.00  0.00    +0.000 A 
ATOM      3  C   UNL     1       0.480   2.183   0.000  0.00  0.00    +0.000 A 
ATOM      4  C   UNL     1       1.305   2.183   0.000  0.00  0.00    +0.000 A 
ATOM      5  C   UNL     1       1.717   1.469   0.000  0.00  0.00    +0.000 A 
ATOM      6  N   UNL     1       1.305   0.754   0.000  0.00  0.00    +0.000 NA
ENDROOT
BRANCH   2  14
ATOM      7  N   UNL     1      -0.915   2.968   0.000  0.00  0.00    +0.000 N 
ATOM      8  N   UNL     1      -1.583   3.453   0.000  0.00  0.00    +0.000 NA
ATOM      9  C   UNL     1      -2.250   2.968   0.000  0.00  0.00    +0.000 A 
ATOM     10  C   UNL     1      -1.995   2.183   0.000  0.00  0.00    +0.000 A 
ATOM     11  C   UNL     1      -2.408   1.469   0.000  0.00  0.00    +0.000 A 
ATOM     12  C   UNL     1      -1.995   0.754   0.000  0.00  0.00    +0.000 A 
ATOM     13  C   UNL     1      -1.170   0.754   0.000  0.00  0.00    +0.000 A 
ATOM     14  C   UNL     1      -0.758   1.469   0.000  0.00  0.00    +0.000 A 
ATOM     15  C   UNL     1      -1.170   2.183   0.000  0.00  0.00    +0.000 A 
ATOM     16  N   UNL     1      -3.035   3.223   0.000  0.00  0.00    +0.000 NA
ATOM     17 CL   UNL     1      -3.232   1.469   0.000  0.00  0.00    +0.000 Cl
BRANCH  16  18
ATOM     18  S   UNL     1      -3.648   2.671   0.000  0.00  0.00    +0.000 S 
ATOM     19  O   UNL     1      -4.200   3.284   0.000  0.00  0.00    +0.000 OA
ATOM     20  O   UNL     1      -3.096   2.058   0.000  0.00  0.00    +0.000 OA
ATOM     21  C   UNL     1      -4.261   2.119   0.000  0.00  0.00    +0.000 C 
ENDBRANCH  16  18
BRANCH   7  22
ATOM     22  C   UNL     1      -0.130   3.223   0.000  0.00  0.00    +0.000 C 
BRANCH  22  23
ATOM     23  C   UNL     1       0.041   4.030   0.000  0.00  0.00    +0.000 C 
ATOM     24  F   UNL     1      -0.572   4.582   0.000  0.00  0.00    +0.000 F 
ATOM     25  F   UNL     1       0.213   4.837   0.000  0.00  0.00    +0.000 F 
ATOM     26  F   UNL     1       0.826   4.285   0.000  0.00  0.00    +0.000 F 
ENDBRANCH  22  23
ENDBRANCH   7  22
ENDBRANCH   2  14
BRANCH   5  27
ATOM     27  C   UNL     1       2.542   1.469   0.000  0.00  0.00    +0.000 C 
ATOM     28  C   UNL     1       3.367   1.469   0.000  0.00  0.00    +0.000 C 
BRANCH  28  29
ATOM     29  C   UNL     1       4.192   1.469   0.000  0.00  0.00    +0.000 C 
ATOM     30  C   UNL     1       4.907   1.056   0.000  0.00  0.00    +0.000 C 
ATOM     31  C   UNL     1       4.192   0.644   0.000  0.00  0.00    +0.000 C 
BRANCH  29  32
ATOM     32  S   UNL     1       4.605   2.183   0.000  0.00  0.00    +0.000 S 
ATOM     33  O   UNL     1       5.319   1.771   0.000  0.00  0.00    +0.000 OA
ATOM     34  O   UNL     1       3.890   2.596   0.000  0.00  0.00    +0.000 OA
ATOM     35  C   UNL     1       5.017   2.898   0.000  0.00  0.00    +0.000 C 
ENDBRANCH  29  32
ENDBRANCH  28  29
ENDBRANCH   5  27
BRANCH   1  36
ATOM     36  C   UNL     1       0.067   0.040   0.000  0.00  0.00    +0.000 C 
BRANCH  36  39
ATOM     37  C   UNL     1      -1.170  -0.674   0.000  0.00  0.00    +0.000 C 
ATOM     38  O   UNL     1      -0.757  -1.389   0.000  0.00  0.00    +0.000 OA
ATOM     39  N   UNL     1      -0.757   0.040   0.000  0.00  0.00    +0.000 NA
BRANCH  37  40
ATOM     40  C   UNL     1      -1.995  -0.674   0.000  0.00  0.00    +0.000 C 
BRANCH  40  42
ATOM     41  N   UNL     1      -2.072  -2.143   0.000  0.00  0.00    +0.000 NA
ATOM     42  N   UNL     1      -2.408  -1.389   0.000  0.00  0.00    +0.000 N 
ATOM     43  C   UNL     1      -3.228  -1.475   0.000  0.00  0.00    +0.000 A 
ATOM     44  C   UNL     1      -3.400  -2.282   0.000  0.00  0.00    +0.000 A 
ATOM     45  C   UNL     1      -2.685  -2.695   0.000  0.00  0.00    +0.000 A 
ATOM     46  C   UNL     1      -4.220  -2.368   0.000  0.00  0.00    +0.000 C 
ATOM     47  C   UNL     1      -4.556  -1.615   0.000  0.00  0.00    +0.000 C 
ATOM     48  C   UNL     1      -3.942  -1.062   0.000  0.00  0.00    +0.000 C 
ATOM     49  C   UNL     1      -5.040  -2.282   0.000  0.00  0.00    +0.000 C 
ATOM     50  F   UNL     1      -3.607  -0.309   0.000  0.00  0.00    +0.000 F 
ATOM     51  F   UNL     1      -4.428  -0.395   0.000  0.00  0.00    +0.000 F 
BRANCH  45  52
ATOM     52  C   UNL     1      -2.599  -3.515   0.000  0.00  0.00    +0.000 C 
ATOM     53  F   UNL     1      -3.291  -3.964   0.000  0.00  0.00    +0.000 F 
ATOM     54  F   UNL     1      -2.556  -4.339   0.000  0.00  0.00    +0.000 F 
ATOM     55  F   UNL     1      -1.864  -3.889   0.000  0.00  0.00    +0.000 F 
ENDBRANCH  45  52
ENDBRANCH  40  42
ENDBRANCH  37  40
ENDBRANCH  36  39
BRANCH  36  56
ATOM     56  C   UNL     1       0.480  -0.674   0.000  0.00  0.00    +0.000 C 
BRANCH  56  57
ATOM     57  C   UNL     1       1.305  -0.674   0.000  0.00  0.00    +0.000 A 
ATOM     58  C   UNL     1       1.717   0.040   0.000  0.00  0.00    +0.000 A 
ATOM     59  C   UNL     1       2.542   0.040   0.000  0.00  0.00    +0.000 A 
ATOM     60  C   UNL     1       2.955  -0.674   0.000  0.00  0.00    +0.000 A 
ATOM     61  C   UNL     1       2.542  -1.389   0.000  0.00  0.00    +0.000 A 
ATOM     62  C   UNL     1       1.717  -1.389   0.000  0.00  0.00    +0.000 A 
ATOM     63  F   UNL     1       2.955  -2.103   0.000  0.00  0.00    +0.000 F 
ATOM     64  F   UNL     1       2.955   0.754   0.000  0.00  0.00    +0.000 F 
ENDBRANCH  56  57
ENDBRANCH  36  56
ENDBRANCH   1  36
TORSDOF 14
