REMARK  Name = 
REMARK  7 active torsions:
REMARK  status: ('A' for Active; 'I' for Inactive)
REMARK    1  A    between atoms: C_2  and  C_12
REMARK    2  A    between atoms: C_3  and  C_11
REMARK    3  A    between atoms: C_5  and  C_15
REMARK    4  A    between atoms: C_11  and  C_16
REMARK    5  A    between atoms: C_15  and  C_18
REMARK    6  A    between atoms: C_17  and  O_23
REMARK    7  A    between atoms: C_18  and  O_23
REMARK                            x       y       z     vdW  Elec       q    Type
REMARK                         _______ _______ _______ _____ _____    ______ ____
ROOT
ATOM      1  O   UNL     1       0.507  -1.077   0.000  0.00  0.00    +0.000 OA
ENDROOT
BRANCH   1   3
ATOM      2  C   UNL     1       2.656   0.160   0.000  0.00  0.00    +0.000 A 
ATOM      3  C   UNL     1       1.229  -0.665   0.000  0.00  0.00    +0.000 A 
ATOM      4  C   UNL     1       2.656  -0.665   0.000  0.00  0.00    +0.000 A 
ATOM      5  C   UNL     1       1.934   0.573   0.000  0.00  0.00    +0.000 A 
ATOM      6  C   UNL     1       1.934  -1.077   0.000  0.00  0.00    +0.000 A 
ATOM      7  C   UNL     1       1.229   0.160   0.000  0.00  0.00    +0.000 A 
BRANCH   2   8
ATOM      8  C   UNL     1       3.361   0.579   0.000  0.00  0.00    +0.000 C 
BRANCH   8   9
ATOM      9  C   UNL     1       4.083   0.177   0.000  0.00  0.00    +0.000 C 
ATOM     10  C   UNL     1       4.839   0.510   0.000  0.00  0.00    +0.000 C 
ATOM     11  C   UNL     1       4.180  -0.647   0.000  0.00  0.00    +0.000 C 
ATOM     12  N   UNL     1       5.389  -0.097   0.000  0.00  0.00    +0.000 NA
ATOM     13  O   UNL     1       4.977  -0.814   0.000  0.00  0.00    +0.000 OA
ATOM     14  O   UNL     1       5.005   1.318   0.000  0.00  0.00    +0.000 OA
ATOM     15  O   UNL     1       3.567  -1.198   0.000  0.00  0.00    +0.000 OA
ENDBRANCH   8   9
ENDBRANCH   2   8
ENDBRANCH   1   3
BRANCH   1  16
ATOM     16  C   UNL     1      -0.203  -0.665   0.000  0.00  0.00    +0.000 C 
BRANCH  16  17
ATOM     17  C   UNL     1      -0.920  -1.077   0.000  0.00  0.00    +0.000 C 
BRANCH  17  21
ATOM     18  N   UNL     1      -2.381  -1.003   0.000  0.00  0.00    +0.000 NA
ATOM     19  C   UNL     1      -2.931  -0.390   0.000  0.00  0.00    +0.000 A 
ATOM     20  O   UNL     1      -2.518   0.332   0.000  0.00  0.00    +0.000 OA
ATOM     21  C   UNL     1      -1.630  -0.665   0.000  0.00  0.00    +0.000 A 
ATOM     22  C   UNL     1      -1.710   0.160   0.000  0.00  0.00    +0.000 A 
ATOM     23  C   UNL     1      -1.097   0.711   0.000  0.00  0.00    +0.000 C 
BRANCH  19  24
ATOM     24  C   UNL     1      -3.745  -0.476   0.000  0.00  0.00    +0.000 A 
ATOM     25  C   UNL     1      -4.083  -1.226   0.000  0.00  0.00    +0.000 A 
ATOM     26  C   UNL     1      -4.237   0.195   0.000  0.00  0.00    +0.000 A 
ATOM     27  C   UNL     1      -5.051   0.109   0.000  0.00  0.00    +0.000 A 
ATOM     28  C   UNL     1      -4.896  -1.318   0.000  0.00  0.00    +0.000 A 
ATOM     29  C   UNL     1      -5.389  -0.647   0.000  0.00  0.00    +0.000 A 
ENDBRANCH  19  24
ENDBRANCH  17  21
ENDBRANCH  16  17
ENDBRANCH   1  16
TORSDOF 7
