REMARK  Name = 
REMARK  13 active torsions:
REMARK  status: ('A' for Active; 'I' for Inactive)
REMARK    1  A    between atoms: S_2  and  O_5
REMARK    2  A    between atoms: O_5  and  C_6
REMARK    3  A    between atoms: C_6  and  C_7
REMARK    4  A    between atoms: C_7  and  C_8
REMARK    5  A    between atoms: C_7  and  O_24
REMARK    6  A    between atoms: C_8  and  C_9
REMARK    7  A    between atoms: C_9  and  C_10
REMARK    8  A    between atoms: C_10  and  C_11
REMARK    9  A    between atoms: C_10  and  O_17
REMARK   10  A    between atoms: C_11  and  O_12
REMARK   11  A    between atoms: O_12  and  S_13
REMARK   12  A    between atoms: O_17  and  S_18
REMARK   13  A    between atoms: O_24  and  S_25
REMARK                            x       y       z     vdW  Elec       q    Type
REMARK                         _______ _______ _______ _____ _____    ______ ____
ROOT
ATOM      1  C   UNL     1       1.540  -1.238   0.000  0.00  0.00    +0.000 C 
ATOM      2  O   UNL     1       2.254  -0.825   0.000  0.00  0.00    +0.000 OA
ENDROOT
BRANCH   1   3
ATOM      3  C   UNL     1       1.540  -2.062   0.000  0.00  0.00    +0.000 C 
ATOM      4  O   UNL     1       0.825  -2.475   0.000  0.00  0.00    +0.000 OA
BRANCH   3   5
ATOM      5  C   UNL     1       2.254  -2.475   0.000  0.00  0.00    +0.000 C 
BRANCH   5   6
ATOM      6  O   UNL     1       2.254  -3.300   0.000  0.00  0.00    +0.000 OA
BRANCH   6   7
ATOM      7  S   UNL     1       1.540  -3.712   0.000  0.00  0.00    +0.000 S 
ATOM      8  O   UNL     1       1.127  -2.998   0.000  0.00  0.00    +0.000 OA
ATOM      9  O   UNL     1       1.952  -4.427   0.000  0.00  0.00    +0.000 OA
ATOM     10  C   UNL     1       0.825  -4.125   0.000  0.00  0.00    +0.000 C 
ENDBRANCH   6   7
ENDBRANCH   5   6
BRANCH   5  11
ATOM     11  C   UNL     1       2.968  -2.062   0.000  0.00  0.00    +0.000 C 
BRANCH  11  12
ATOM     12  O   UNL     1       3.683  -2.475   0.000  0.00  0.00    +0.000 OA
BRANCH  12  13
ATOM     13  S   UNL     1       4.397  -2.062   0.000  0.00  0.00    +0.000 S 
ATOM     14  O   UNL     1       5.112  -1.650   0.000  0.00  0.00    +0.000 OA
ATOM     15  O   UNL     1       4.810  -2.777   0.000  0.00  0.00    +0.000 OA
ATOM     16  C   UNL     1       3.985  -1.348   0.000  0.00  0.00    +0.000 C 
ENDBRANCH  12  13
ENDBRANCH  11  12
ENDBRANCH   5  11
ENDBRANCH   3   5
ENDBRANCH   1   3
BRANCH   1  17
ATOM     17  C   UNL     1       0.825  -0.825   0.000  0.00  0.00    +0.000 C 
BRANCH  17  18
ATOM     18  C   UNL     1       0.111  -1.238   0.000  0.00  0.00    +0.000 C 
BRANCH  18  19
ATOM     19  O   UNL     1      -0.604  -0.825   0.000  0.00  0.00    +0.000 OA
BRANCH  19  21
ATOM     20  C   UNL     1      -2.033  -1.650   0.000  0.00  0.00    +0.000 C 
ATOM     21  S   UNL     1      -1.318  -1.238   0.000  0.00  0.00    +0.000 S 
ATOM     22  O   UNL     1      -0.906  -1.952   0.000  0.00  0.00    +0.000 OA
ATOM     23  O   UNL     1      -1.731  -0.523   0.000  0.00  0.00    +0.000 OA
ENDBRANCH  19  21
ENDBRANCH  18  19
ENDBRANCH  17  18
BRANCH  17  24
ATOM     24  O   UNL     1       0.825   0.000   0.000  0.00  0.00    +0.000 OA
BRANCH  24  25
ATOM     25  S   UNL     1       1.540   0.412   0.000  0.00  0.00    +0.000 S 
ATOM     26  O   UNL     1       1.952  -0.302   0.000  0.00  0.00    +0.000 OA
ATOM     27  O   UNL     1       1.127   1.127   0.000  0.00  0.00    +0.000 OA
ATOM     28  C   UNL     1       2.254   0.825   0.000  0.00  0.00    +0.000 C 
ENDBRANCH  24  25
ENDBRANCH  17  24
ENDBRANCH   1  17
TORSDOF 13
