REMARK  Name = 
REMARK  8 active torsions:
REMARK  status: ('A' for Active; 'I' for Inactive)
REMARK    1  A    between atoms: C_3  and  C_4
REMARK    2  A    between atoms: C_4  and  N_7
REMARK    3  A    between atoms: N_7  and  C_8
REMARK    4  A    between atoms: C_8  and  C_9
REMARK    5  A    between atoms: C_9  and  C_12
REMARK    6  A    between atoms: C_12  and  N_13
REMARK    7  A    between atoms: N_13  and  C_14
REMARK    8  A    between atoms: C_14  and  C_15
REMARK                            x       y       z     vdW  Elec       q    Type
REMARK                         _______ _______ _______ _____ _____    ______ ____
ROOT
ATOM      1  C   UNL     1      -0.358   0.412   0.000  0.00  0.00    +0.000 C 
ATOM      2  C   UNL     1      -0.775  -0.300   0.000  0.00  0.00    +0.000 C 
ATOM      3  C   UNL     1       0.050  -0.300   0.000  0.00  0.00    +0.000 C 
ENDROOT
BRANCH   1   4
ATOM      4  C   UNL     1      -1.071   0.825   0.000  0.00  0.00    +0.000 C 
BRANCH   4   5
ATOM      5  N   UNL     1      -1.781   0.408   0.000  0.00  0.00    +0.000 NA
BRANCH   5   6
ATOM      6  C   UNL     1      -1.779  -0.417   0.000  0.00  0.00    +0.000 C 
ATOM      7  C   UNL     1      -1.067  -0.829   0.000  0.00  0.00    +0.000 C 
BRANCH   6  10
ATOM      8  O   UNL     1      -3.917  -0.838   0.000  0.00  0.00    +0.000 OA
ATOM      9  N   UNL     1      -3.204  -0.421   0.000  0.00  0.00    +0.000 NA
ATOM     10  C   UNL     1      -2.492  -0.833   0.000  0.00  0.00    +0.000 C 
ATOM     11  C   UNL     1      -2.496  -1.659   0.000  0.00  0.00    +0.000 C 
ENDBRANCH   6  10
ENDBRANCH   5   6
ENDBRANCH   4   5
ENDBRANCH   1   4
BRANCH   1  12
ATOM     12  C   UNL     1       0.354   0.829   0.000  0.00  0.00    +0.000 C 
BRANCH  12  13
ATOM     13  N   UNL     1       1.067   0.417   0.000  0.00  0.00    +0.000 NA
BRANCH  13  14
ATOM     14  C   UNL     1       1.779   0.833   0.000  0.00  0.00    +0.000 C 
ATOM     15  C   UNL     1       1.778   1.659   0.000  0.00  0.00    +0.000 C 
BRANCH  14  16
ATOM     16  C   UNL     1       2.492   0.421   0.000  0.00  0.00    +0.000 C 
ATOM     17  C   UNL     1       2.488  -0.404   0.000  0.00  0.00    +0.000 C 
ATOM     18  N   UNL     1       3.204   0.838   0.000  0.00  0.00    +0.000 NA
ATOM     19  O   UNL     1       3.917   0.425   0.000  0.00  0.00    +0.000 OA
ENDBRANCH  14  16
ENDBRANCH  13  14
ENDBRANCH  12  13
ENDBRANCH   1  12
TORSDOF 8
