REMARK  Name = 
REMARK  4 active torsions:
REMARK  status: ('A' for Active; 'I' for Inactive)
REMARK    1  A    between atoms: C_1  and  C_2
REMARK    2  A    between atoms: C_1  and  C_3
REMARK    3  A    between atoms: C_3  and  C_7
REMARK    4  A    between atoms: C_7  and  S_8
REMARK                            x       y       z     vdW  Elec       q    Type
REMARK                         _______ _______ _______ _____ _____    ______ ____
ROOT
ATOM      1  C   UNL     1       0.721  -0.211   0.000  0.00  0.00    +0.000 C 
ATOM      2  O   UNL     1       0.721  -1.032   0.000  0.00  0.00    +0.000 OA
ENDROOT
BRANCH   1   3
ATOM      3  C   UNL     1       1.429   0.211   0.000  0.00  0.00    +0.000 C 
ATOM      4  O   UNL     1       2.138  -0.211   0.000  0.00  0.00    +0.000 OA
ATOM      5  O   UNL     1       1.429   1.032   0.000  0.00  0.00    +0.000 OA
ENDBRANCH   1   3
BRANCH   1   6
ATOM      6  C   UNL     1       0.005   0.198   0.000  0.00  0.00    +0.000 C 
BRANCH   6   7
ATOM      7  C   UNL     1      -0.706  -0.221   0.000  0.00  0.00    +0.000 C 
BRANCH   7   8
ATOM      8  S   UNL     1      -1.420   0.198   0.000  0.00  0.00    +0.000 S 
ATOM      9  C   UNL     1      -2.138  -0.221   0.000  0.00  0.00    +0.000 C 
ENDBRANCH   7   8
ENDBRANCH   6   7
ENDBRANCH   1   6
TORSDOF 4
