REMARK  Name = 
REMARK  5 active torsions:
REMARK  status: ('A' for Active; 'I' for Inactive)
REMARK    1  A    between atoms: N_2  and  C_3
REMARK    2  A    between atoms: C_3  and  C_4
REMARK    3  A    between atoms: C_6  and  O_7
REMARK    4  A    between atoms: O_7  and  C_8
REMARK    5  A    between atoms: C_24  and  C_26
REMARK                            x       y       z     vdW  Elec       q    Type
REMARK                         _______ _______ _______ _____ _____    ______ ____
ROOT
ATOM      1  C   UNL     1       3.352   1.935   0.000  0.00  0.00    +0.000 A 
ATOM      2  C   UNL     1       3.352   1.110   0.000  0.00  0.00    +0.000 A 
ATOM      3  C   UNL     1       2.638   0.698   0.000  0.00  0.00    +0.000 A 
ATOM      4  C   UNL     1       1.923   1.110   0.000  0.00  0.00    +0.000 A 
ATOM      5  N   UNL     1       1.139   0.856   0.000  0.00  0.00    +0.000 N 
ATOM      6  C   UNL     1       0.654   1.523   0.000  0.00  0.00    +0.000 A 
ATOM      7  C   UNL     1       1.139   2.190   0.000  0.00  0.00    +0.000 A 
ATOM      8  C   UNL     1       1.923   1.935   0.000  0.00  0.00    +0.000 A 
ATOM      9  C   UNL     1       2.638   2.348   0.000  0.00  0.00    +0.000 A 
ATOM     10  C   UNL     1       0.884   0.071   0.000  0.00  0.00    +0.000 C 
ATOM     11  O   UNL     1       1.436  -0.542   0.000  0.00  0.00    +0.000 OA
ATOM     12  N   UNL     1       0.077  -0.101   0.000  0.00  0.00    +0.000 NA
ATOM     13  C   UNL     1      -0.178  -0.885   0.000  0.00  0.00    +0.000 A 
ATOM     14  N   UNL     1       0.307  -1.553   0.000  0.00  0.00    +0.000 NA
ATOM     15  N   UNL     1      -0.178  -2.220   0.000  0.00  0.00    +0.000 N 
ATOM     16  C   UNL     1       0.077  -3.005   0.000  0.00  0.00    +0.000 C 
ATOM     17  C   UNL     1      -0.963  -1.965   0.000  0.00  0.00    +0.000 A 
ATOM     18  C   UNL     1      -0.963  -1.140   0.000  0.00  0.00    +0.000 A 
ENDROOT
BRANCH  17  19
ATOM     19  C   UNL     1      -1.630  -2.450   0.000  0.00  0.00    +0.000 C 
ATOM     20  F   UNL     1      -2.298  -2.935   0.000  0.00  0.00    +0.000 F 
ATOM     21  F   UNL     1      -2.115  -1.783   0.000  0.00  0.00    +0.000 F 
ATOM     22  F   UNL     1      -1.145  -3.118   0.000  0.00  0.00    +0.000 F 
ENDBRANCH  17  19
BRANCH   1  23
ATOM     23  O   UNL     1       4.067   2.348   0.000  0.00  0.00    +0.000 OA
BRANCH  23  26
ATOM     24  C   UNL     1       4.781   4.410   0.000  0.00  0.00    +0.000 A 
ATOM     25  C   UNL     1       4.781   3.585   0.000  0.00  0.00    +0.000 A 
ATOM     26  C   UNL     1       4.067   3.173   0.000  0.00  0.00    +0.000 A 
ATOM     27  N   UNL     1       3.352   3.585   0.000  0.00  0.00    +0.000 NA
ATOM     28  C   UNL     1       3.352   4.410   0.000  0.00  0.00    +0.000 A 
ATOM     29  N   UNL     1       4.067   4.823   0.000  0.00  0.00    +0.000 NA
BRANCH  24  30
ATOM     30  C   UNL     1       5.496   4.823   0.000  0.00  0.00    +0.000 C 
BRANCH  30  32
ATOM     31  C   UNL     1       6.210   6.060   0.000  0.00  0.00    +0.000 C 
ATOM     32  N   UNL     1       5.496   5.648   0.000  0.00  0.00    +0.000 NA
ENDBRANCH  30  32
ENDBRANCH  24  30
ENDBRANCH  23  26
ENDBRANCH   1  23
TORSDOF 5
