REMARK  Name = 
REMARK  0 active torsions:
REMARK  status: ('A' for Active; 'I' for Inactive)
REMARK                            x       y       z     vdW  Elec       q    Type
REMARK                         _______ _______ _______ _____ _____    ______ ____
ROOT
ATOM      1  C   UNL     1       3.708   0.031   0.000  0.00  0.00    +0.000 A 
ATOM      2  C   UNL     1       3.119   0.608   0.000  0.00  0.00    +0.000 A 
ATOM      3  C   UNL     1       2.324   0.386   0.000  0.00  0.00    +0.000 A 
ATOM      4  C   UNL     1       2.119  -0.413   0.000  0.00  0.00    +0.000 A 
ATOM      5  N   UNL     1       2.709  -0.990   0.000  0.00  0.00    +0.000 NA
ATOM      6  C   UNL     1       3.503  -0.768   0.000  0.00  0.00    +0.000 A 
ATOM      7  C   UNL     1       1.323  -0.644   0.000  0.00  0.00    +0.000 C 
ATOM      8  C   UNL     1       0.689  -0.087   0.000  0.00  0.00    +0.000 C 
ATOM      9  C   UNL     1       0.147  -0.800   0.000  0.00  0.00    +0.000 C 
ATOM     10  C   UNL     1      -0.685  -0.549   0.000  0.00  0.00    +0.000 C 
ATOM     11  N   UNL     1      -0.705   0.314   0.000  0.00  0.00    +0.000 NA
ATOM     12  C   UNL     1       0.021   0.167   0.000  0.00  0.00    +0.000 C 
ATOM     13  C   UNL     1      -0.512   1.157   0.000  0.00  0.00    +0.000 C 
ATOM     14  C   UNL     1       0.312   1.406   0.000  0.00  0.00    +0.000 C 
ATOM     15  C   UNL     1       0.919   0.770   0.000  0.00  0.00    +0.000 C 
ATOM     16  O   UNL     1       1.736   0.974   0.000  0.00  0.00    +0.000 OA
ENDROOT
TORSDOF 0
