REMARK  Name = 
REMARK  3 active torsions:
REMARK  status: ('A' for Active; 'I' for Inactive)
REMARK    1  A    between atoms: C_5  and  C_8
REMARK    2  A    between atoms: C_11  and  C_14
REMARK    3  A    between atoms: C_15  and  C_27
REMARK                            x       y       z     vdW  Elec       q    Type
REMARK                         _______ _______ _______ _____ _____    ______ ____
ROOT
ATOM      1  C   UNL     1       2.115  -1.195   0.000  0.00  0.00    +0.000 A 
ATOM      2  C   UNL     1       2.175  -0.372   0.000  0.00  0.00    +0.000 A 
ATOM      3  N   UNL     1       2.977  -0.175   0.000  0.00  0.00    +0.000 N 
ATOM      4  C   UNL     1       3.366   0.552   0.000  0.00  0.00    +0.000 C 
ATOM      5  O   UNL     1       4.191   0.578   0.000  0.00  0.00    +0.000 OA
ATOM      6  C   UNL     1       4.626  -0.124   0.000  0.00  0.00    +0.000 A 
ATOM      7  C   UNL     1       5.450  -0.098   0.000  0.00  0.00    +0.000 A 
ATOM      8  C   UNL     1       5.885  -0.799   0.000  0.00  0.00    +0.000 A 
ATOM      9  N   UNL     1       5.495  -1.526   0.000  0.00  0.00    +0.000 NA
ATOM     10  C   UNL     1       4.670  -1.552   0.000  0.00  0.00    +0.000 A 
ATOM     11  C   UNL     1       4.236  -0.851   0.000  0.00  0.00    +0.000 A 
ATOM     12  C   UNL     1       3.411  -0.876   0.000  0.00  0.00    +0.000 A 
ATOM     13  N   UNL     1       2.878  -1.507   0.000  0.00  0.00    +0.000 NA
ENDROOT
BRANCH   1  17
ATOM     14  C   UNL     1       0.011  -2.498   0.000  0.00  0.00    +0.000 A 
ATOM     15  C   UNL     1      -0.015  -1.674   0.000  0.00  0.00    +0.000 A 
ATOM     16  C   UNL     1       0.686  -1.239   0.000  0.00  0.00    +0.000 A 
ATOM     17  C   UNL     1       1.413  -1.629   0.000  0.00  0.00    +0.000 A 
ATOM     18  C   UNL     1       1.439  -2.454   0.000  0.00  0.00    +0.000 A 
ATOM     19  C   UNL     1       0.738  -2.889   0.000  0.00  0.00    +0.000 A 
BRANCH  14  24
ATOM     20  C   UNL     1      -1.658  -4.504   0.000  0.00  0.00    +0.000 C 
ATOM     21  C   UNL     1      -0.957  -4.069   0.000  0.00  0.00    +0.000 C 
ATOM     22  O   UNL     1      -0.522  -4.770   0.000  0.00  0.00    +0.000 OA
ATOM     23  C   UNL     1      -1.391  -3.368   0.000  0.00  0.00    +0.000 C 
ATOM     24  C   UNL     1      -0.690  -2.933   0.000  0.00  0.00    +0.000 C 
ATOM     25  N   UNL     1      -1.125  -2.232   0.000  0.00  0.00    +0.000 NA
ATOM     26  C   UNL     1      -0.256  -3.634   0.000  0.00  0.00    +0.000 C 
ENDBRANCH  14  24
ENDBRANCH   1  17
BRANCH   2  27
ATOM     27  C   UNL     1       1.545   0.161   0.000  0.00  0.00    +0.000 A 
ATOM     28  C   UNL     1       0.769  -0.119   0.000  0.00  0.00    +0.000 A 
ATOM     29  C   UNL     1       0.139   0.414   0.000  0.00  0.00    +0.000 A 
ATOM     30  C   UNL     1       0.285   1.226   0.000  0.00  0.00    +0.000 A 
ATOM     31  C   UNL     1       1.061   1.505   0.000  0.00  0.00    +0.000 A 
ATOM     32  C   UNL     1       1.691   0.973   0.000  0.00  0.00    +0.000 A 
ENDBRANCH   2  27
TORSDOF 3
