REMARK  Name = 
REMARK  10 active torsions:
REMARK  status: ('A' for Active; 'I' for Inactive)
REMARK    1  A    between atoms: C_2  and  C_3
REMARK    2  A    between atoms: C_2  and  C_4
REMARK    3  A    between atoms: C_4  and  C_5
REMARK    4  A    between atoms: C_5  and  C_6
REMARK    5  A    between atoms: C_6  and  N_7
REMARK    6  A    between atoms: N_10  and  N_11
REMARK    7  A    between atoms: N_15  and  C_16
REMARK    8  A    between atoms: C_16  and  C_17
REMARK    9  A    between atoms: C_16  and  C_20
REMARK   10  A    between atoms: C_20  and  C_21
REMARK                            x       y       z     vdW  Elec       q    Type
REMARK                         _______ _______ _______ _____ _____    ______ ____
ROOT
ATOM      1  N   UNL     1      -2.143  -1.652   0.000  0.00  0.00    +0.000 NA
ATOM      2  C   UNL     1      -1.429  -1.240   0.000  0.00  0.00    +0.000 C 
ENDROOT
BRANCH   2   3
ATOM      3  C   UNL     1      -0.715  -1.652   0.000  0.00  0.00    +0.000 C 
ATOM      4  O   UNL     1      -0.715  -2.477   0.000  0.00  0.00    +0.000 OA
ATOM      5  N   UNL     1       0.000  -1.240   0.000  0.00  0.00    +0.000 NA
BRANCH   5   6
ATOM      6  C   UNL     1       0.715  -1.652   0.000  0.00  0.00    +0.000 C 
BRANCH   6   7
ATOM      7  C   UNL     1       1.429  -1.240   0.000  0.00  0.00    +0.000 C 
ATOM      8  N   UNL     1       2.143  -1.652   0.000  0.00  0.00    +0.000 NA
ATOM      9  O   UNL     1       1.429  -0.415   0.000  0.00  0.00    +0.000 OA
ENDBRANCH   6   7
BRANCH   6  10
ATOM     10  C   UNL     1       0.715  -2.477   0.000  0.00  0.00    +0.000 C 
BRANCH  10  11
ATOM     11  C   UNL     1       1.429  -2.890   0.000  0.00  0.00    +0.000 C 
ATOM     12  N   UNL     1       1.429  -3.715   0.000  0.00  0.00    +0.000 NA
ENDBRANCH  10  11
ENDBRANCH   6  10
ENDBRANCH   5   6
ENDBRANCH   2   3
BRANCH   2  13
ATOM     13  C   UNL     1      -1.429  -0.415   0.000  0.00  0.00    +0.000 C 
BRANCH  13  14
ATOM     14  C   UNL     1      -0.715  -0.002   0.000  0.00  0.00    +0.000 C 
BRANCH  14  15
ATOM     15  C   UNL     1      -0.715   0.823   0.000  0.00  0.00    +0.000 C 
BRANCH  15  16
ATOM     16  N   UNL     1       0.000   1.235   0.000  0.00  0.00    +0.000 NA
ATOM     17  C   UNL     1       0.000   2.060   0.000  0.00  0.00    +0.000 C 
ATOM     18  N   UNL     1       0.714   2.473   0.000  0.00  0.00    +0.000 NA
ATOM     19  N   UNL     1      -0.715   2.473   0.000  0.00  0.00    +0.000 NA
BRANCH  19  20
ATOM     20  N   UNL     1      -0.715   3.298   0.000  0.00  0.00    +0.000 N 
ATOM     21  O   UNL     1      -0.004   3.715   0.000  0.00  0.00    +0.000 OA
ATOM     22  O   UNL     1      -1.433   3.715   0.000  0.00  0.00    +0.000 OA
ENDBRANCH  19  20
ENDBRANCH  15  16
ENDBRANCH  14  15
ENDBRANCH  13  14
ENDBRANCH   2  13
TORSDOF 10
