REMARK  Name = 
REMARK  6 active torsions:
REMARK  status: ('A' for Active; 'I' for Inactive)
REMARK    1  A    between atoms: C_1  and  C_12
REMARK    2  A    between atoms: CA_7  and  N_14
REMARK    3  A    between atoms: CA_13  and  C_28
REMARK    4  A    between atoms: C_15  and  C_16
REMARK    5  A    between atoms: C_16  and  C_17
REMARK    6  A    between atoms: N_23  and  O_24
REMARK                            x       y       z     vdW  Elec       q    Type
REMARK                         _______ _______ _______ _____ _____    ______ ____
ROOT
ATOM      1  C   UNL     1       0.409  -0.298   0.000  0.00  0.00    +0.000 C 
ATOM      2  CA  UNL     1       0.414   0.527   0.000  0.00  0.00    +0.000 C 
ATOM      3  N   UNL     1       1.234  -0.303   0.000  0.00  0.00    +0.000 N 
ATOM      4  C   UNL     1       1.235   0.522   0.000  0.00  0.00    +0.000 C 
ATOM      5  S   UNL     1       1.946   0.931   0.000  0.00  0.00    +0.000 S 
ATOM      6  C   UNL     1       2.661   0.520   0.000  0.00  0.00    +0.000 C 
ATOM      7  C   UNL     1       2.660  -0.305   0.000  0.00  0.00    +0.000 C 
ATOM      8  CA  UNL     1       1.944  -0.719   0.000  0.00  0.00    +0.000 C 
ATOM      9  O   UNL     1      -0.178  -0.877   0.000  0.00  0.00    +0.000 OA
ENDROOT
BRANCH   7  10
ATOM     10  C   UNL     1       3.374  -0.718   0.000  0.00  0.00    +0.000 C 
ATOM     11  O   UNL     1       4.127  -0.382   0.000  0.00  0.00    +0.000 OA
ATOM     12  C   UNL     1       4.679  -0.995   0.000  0.00  0.00    +0.000 C 
ATOM     13  C   UNL     1       4.266  -1.710   0.000  0.00  0.00    +0.000 C 
ATOM     14  C   UNL     1       3.460  -1.538   0.000  0.00  0.00    +0.000 C 
ENDBRANCH   7  10
BRANCH   2  15
ATOM     15  N   UNL     1      -0.414   0.530   0.000  0.00  0.00    +0.000 NA
ATOM     16  C   UNL     1      -1.125   0.949   0.000  0.00  0.00    +0.000 C 
ATOM     17  O   UNL     1      -1.118   1.774   0.000  0.00  0.00    +0.000 OA
BRANCH  16  18
ATOM     18  C   UNL     1      -1.842   0.543   0.000  0.00  0.00    +0.000 C 
ATOM     19  N   UNL     1      -1.848  -0.282   0.000  0.00  0.00    +0.000 NA
BRANCH  18  20
ATOM     20  C   UNL     1      -2.554   0.959   0.000  0.00  0.00    +0.000 A 
ATOM     21  N   UNL     1      -3.310   0.632   0.000  0.00  0.00    +0.000 NA
ATOM     22  C   UNL     1      -3.858   1.247   0.000  0.00  0.00    +0.000 A 
ATOM     23  S   UNL     1      -3.442   1.959   0.000  0.00  0.00    +0.000 S 
ATOM     24  C   UNL     1      -2.637   1.783   0.000  0.00  0.00    +0.000 A 
ATOM     25  N   UNL     1      -4.679   1.165   0.000  0.00  0.00    +0.000 NA
ENDBRANCH  18  20
BRANCH  19  26
ATOM     26  O   UNL     1      -1.136  -0.700   0.000  0.00  0.00    +0.000 OA
ATOM     27  C   UNL     1      -1.142  -1.525   0.000  0.00  0.00    +0.000 C 
ENDBRANCH  19  26
ENDBRANCH  16  18
ENDBRANCH   2  15
BRANCH   8  28
ATOM     28  C   UNL     1       1.942  -1.544   0.000  0.00  0.00    +0.000 C 
ATOM     29  O   UNL     1       2.655  -1.959   0.000  0.00  0.00    +0.000 OA
ATOM     30  OXT UNL     1       1.226  -1.955   0.000  0.00  0.00    +0.000 OA
ENDBRANCH   8  28
TORSDOF 6
