REMARK  Name = 
REMARK  0 active torsions:
REMARK  status: ('A' for Active; 'I' for Inactive)
REMARK                            x       y       z     vdW  Elec       q    Type
REMARK                         _______ _______ _______ _____ _____    ______ ____
ROOT
ATOM      1  O   UNL     1       2.598   1.753   0.000  0.00  0.00    +0.000 OA
ATOM      2  O   UNL     1      -2.787  -1.731   0.000  0.00  0.00    +0.000 OA
ATOM      3  C   UNL     1       1.522  -0.120   0.000  0.00  0.00    +0.000 C 
ATOM      4  C   UNL     1       0.814  -0.527   0.000  0.00  0.00    +0.000 C 
ATOM      5  C   UNL     1       1.522   0.705   0.000  0.00  0.00    +0.000 C 
ATOM      6  C   UNL     1       0.100  -0.103   0.000  0.00  0.00    +0.000 C 
ATOM      7  C   UNL     1       2.319   0.967   0.000  0.00  0.00    +0.000 C 
ATOM      8  C   UNL     1       2.319  -0.382   0.000  0.00  0.00    +0.000 C 
ATOM      9  C   UNL     1      -0.619  -0.521   0.000  0.00  0.00    +0.000 C 
ATOM     10  C   UNL     1       0.814   1.112   0.000  0.00  0.00    +0.000 C 
ATOM     11  C   UNL     1       0.814  -1.335   0.000  0.00  0.00    +0.000 C 
ATOM     12  C   UNL     1       0.100   0.705   0.000  0.00  0.00    +0.000 C 
ATOM     13  C   UNL     1       2.787   0.309   0.000  0.00  0.00    +0.000 C 
ATOM     14  C   UNL     1      -0.619  -1.346   0.000  0.00  0.00    +0.000 C 
ATOM     15  C   UNL     1       1.522   1.530   0.000  0.00  0.00    +0.000 C 
ATOM     16  C   UNL     1       0.100  -1.753   0.000  0.00  0.00    +0.000 C 
ATOM     17  C   UNL     1      -1.343  -0.103   0.000  0.00  0.00    +0.000 C 
ATOM     18  C   UNL     1      -1.343  -1.753   0.000  0.00  0.00    +0.000 C 
ATOM     19  C   UNL     1      -2.051  -1.335   0.000  0.00  0.00    +0.000 C 
ATOM     20  C   UNL     1      -2.051  -0.527   0.000  0.00  0.00    +0.000 C 
ENDROOT
TORSDOF 0
