REMARK  Name = 
REMARK  2 active torsions:
REMARK  status: ('A' for Active; 'I' for Inactive)
REMARK    1  A    between atoms: N_1  and  C_4
REMARK    2  A    between atoms: C_4  and  C_8
REMARK                            x       y       z     vdW  Elec       q    Type
REMARK                         _______ _______ _______ _____ _____    ______ ____
ROOT
ATOM      1  N   UNL     1       0.011  -0.063   0.000  0.00  0.00    +0.000 N 
ATOM      2  C   UNL     1       0.679  -0.548   0.000  0.00  0.00    +0.000 C 
ATOM      3  C   UNL     1      -0.656  -0.548   0.000  0.00  0.00    +0.000 C 
ATOM      4  C   UNL     1       0.424  -1.332   0.000  0.00  0.00    +0.000 C 
ATOM      5  C   UNL     1      -0.401  -1.332   0.000  0.00  0.00    +0.000 C 
ATOM      6  O   UNL     1      -1.440  -0.293   0.000  0.00  0.00    +0.000 OA
ATOM      7  O   UNL     1       0.909  -2.000   0.000  0.00  0.00    +0.000 OA
ENDROOT
BRANCH   1   8
ATOM      8  C   UNL     1       0.011   0.762   0.000  0.00  0.00    +0.000 C 
BRANCH   8   9
ATOM      9  C   UNL     1       0.726   1.175   0.000  0.00  0.00    +0.000 C 
ATOM     10  O   UNL     1       0.726   2.000   0.000  0.00  0.00    +0.000 OA
ATOM     11  N   UNL     1       1.440   0.762   0.000  0.00  0.00    +0.000 NA
ENDBRANCH   8   9
ENDBRANCH   1   8
TORSDOF 2
