REMARK  Name = 
REMARK  19 active torsions:
REMARK  status: ('A' for Active; 'I' for Inactive)
REMARK    1  A    between atoms: N_4  and  C_7
REMARK    2  A    between atoms: C_7  and  C_8
REMARK    3  A    between atoms: C_8  and  C_9
REMARK    4  A    between atoms: C_9  and  C_10
REMARK    5  A    between atoms: C_10  and  C_11
REMARK    6  A    between atoms: C_14  and  C_17
REMARK    7  A    between atoms: C_17  and  C_18
REMARK    8  A    between atoms: N_20  and  CA_21
REMARK    9  A    between atoms: CA_21  and  C_22
REMARK   10  A    between atoms: CA_21  and  C_24
REMARK   11  A    between atoms: N_26  and  C_27
REMARK   12  A    between atoms: C_27  and  C_28
REMARK   13  A    between atoms: C_27  and  C_30
REMARK   14  A    between atoms: C_30  and  C_31
REMARK   15  A    between atoms: C_31  and  C_32
REMARK   16  A    between atoms: C_32  and  C_33
REMARK   17  A    between atoms: N_35  and  C_36
REMARK   18  A    between atoms: C_36  and  C_37
REMARK   19  A    between atoms: C_37  and  C_38
REMARK                            x       y       z     vdW  Elec       q    Type
REMARK                         _______ _______ _______ _____ _____    ______ ____
ROOT
ATOM      1  CA  UNL     1       1.010  -0.551   0.000  0.00  0.00    +0.000 C 
ENDROOT
BRANCH   1   2
ATOM      2  C   UNL     1       1.724  -0.139   0.000  0.00  0.00    +0.000 C 
ATOM      3  O   UNL     1       1.724   0.686   0.000  0.00  0.00    +0.000 OA
ATOM      4  N   UNL     1       2.439  -0.551   0.000  0.00  0.00    +0.000 NA
BRANCH   4   5
ATOM      5  C   UNL     1       3.153  -0.139   0.000  0.00  0.00    +0.000 C 
BRANCH   5   6
ATOM      6  C   UNL     1       3.868  -0.551   0.000  0.00  0.00    +0.000 C 
ATOM      7  O   UNL     1       3.868  -1.376   0.000  0.00  0.00    +0.000 OA
ATOM      8  N   UNL     1       4.582  -0.139   0.000  0.00  0.00    +0.000 NA
BRANCH   8   9
ATOM      9  C   UNL     1       5.297  -0.551   0.000  0.00  0.00    +0.000 C 
BRANCH   9  10
ATOM     10  C   UNL     1       6.011  -0.139   0.000  0.00  0.00    +0.000 C 
BRANCH  10  11
ATOM     11  C   UNL     1       6.726  -0.551   0.000  0.00  0.00    +0.000 C 
ATOM     12  C   UNL     1       7.440  -0.139   0.000  0.00  0.00    +0.000 C 
ATOM     13  C   UNL     1       8.155  -0.551   0.000  0.00  0.00    +0.000 C 
ATOM     14  C   UNL     1       8.155  -1.376   0.000  0.00  0.00    +0.000 C 
ATOM     15  C   UNL     1       7.440  -1.789   0.000  0.00  0.00    +0.000 C 
ATOM     16  C   UNL     1       6.726  -1.376   0.000  0.00  0.00    +0.000 C 
ENDBRANCH  10  11
ENDBRANCH   9  10
ENDBRANCH   8   9
ENDBRANCH   5   6
BRANCH   5  17
ATOM     17  C   UNL     1       3.153   0.686   0.000  0.00  0.00    +0.000 C 
BRANCH  17  18
ATOM     18  C   UNL     1       2.439   1.099   0.000  0.00  0.00    +0.000 C 
BRANCH  18  19
ATOM     19  C   UNL     1       2.439   1.924   0.000  0.00  0.00    +0.000 C 
BRANCH  19  20
ATOM     20  C   UNL     1       1.724   2.336   0.000  0.00  0.00    +0.000 C 
ATOM     21  N   UNL     1       1.724   3.161   0.000  0.00  0.00    +0.000 NA
ENDBRANCH  19  20
ENDBRANCH  18  19
ENDBRANCH  17  18
ENDBRANCH   5  17
ENDBRANCH   4   5
ENDBRANCH   1   2
BRANCH   1  24
ATOM     22  C   UNL     1      -0.419  -0.551   0.000  0.00  0.00    +0.000 C 
ATOM     23  O   UNL     1      -0.419  -1.376   0.000  0.00  0.00    +0.000 OA
ATOM     24  N   UNL     1       0.295  -0.139   0.000  0.00  0.00    +0.000 NA
BRANCH  22  25
ATOM     25  C   UNL     1      -1.133  -0.139   0.000  0.00  0.00    +0.000 C 
BRANCH  25  29
ATOM     26  C   UNL     1      -3.277  -1.376   0.000  0.00  0.00    +0.000 A 
ATOM     27  C   UNL     1      -2.562  -1.789   0.000  0.00  0.00    +0.000 A 
ATOM     28  C   UNL     1      -1.848  -1.376   0.000  0.00  0.00    +0.000 A 
ATOM     29  C   UNL     1      -1.848  -0.551   0.000  0.00  0.00    +0.000 A 
ATOM     30  C   UNL     1      -2.562  -0.139   0.000  0.00  0.00    +0.000 A 
ATOM     31  C   UNL     1      -3.277  -0.551   0.000  0.00  0.00    +0.000 A 
BRANCH  26  32
ATOM     32  C   UNL     1      -3.991  -1.789   0.000  0.00  0.00    +0.000 C 
BRANCH  32  33
ATOM     33  C   UNL     1      -4.706  -1.376   0.000  0.00  0.00    +0.000 C 
BRANCH  33  34
ATOM     34  C   UNL     1      -5.420  -1.789   0.000  0.00  0.00    +0.000 C 
BRANCH  34  35
ATOM     35  C   UNL     1      -6.135  -1.376   0.000  0.00  0.00    +0.000 C 
BRANCH  35  39
ATOM     36  C   UNL     1      -6.322  -3.161   0.000  0.00  0.00    +0.000 C 
ATOM     37  N   UNL     1      -7.742  -2.781   0.000  0.00  0.00    +0.000 NA
ATOM     38  C   UNL     1      -6.935  -2.609   0.000  0.00  0.00    +0.000 A 
ATOM     39  N   UNL     1      -6.849  -1.789   0.000  0.00  0.00    +0.000 N 
ATOM     40  C   UNL     1      -7.603  -1.453   0.000  0.00  0.00    +0.000 A 
ATOM     41  C   UNL     1      -8.155  -2.066   0.000  0.00  0.00    +0.000 A 
ENDBRANCH  35  39
ENDBRANCH  34  35
ENDBRANCH  33  34
ENDBRANCH  32  33
ENDBRANCH  26  32
ENDBRANCH  25  29
ENDBRANCH  22  25
ENDBRANCH   1  24
BRANCH   1  42
ATOM     42  C   UNL     1       1.010  -1.376   0.000  0.00  0.00    +0.000 C 
ATOM     43  O   UNL     1       1.724  -1.789   0.000  0.00  0.00    +0.000 OA
ENDBRANCH   1  42
TORSDOF 19
