REMARK  Name = 
REMARK  15 active torsions:
REMARK  status: ('A' for Active; 'I' for Inactive)
REMARK    1  A    between atoms: C_1  and  C_6
REMARK    2  A    between atoms: C_1  and  O_23
REMARK    3  A    between atoms: C_6  and  N_11
REMARK    4  A    between atoms: N_11  and  P_15
REMARK    5  A    between atoms: C_13  and  C_29
REMARK    6  A    between atoms: C_14  and  O_26
REMARK    7  A    between atoms: P_15  and  O_26
REMARK    8  A    between atoms: P_15  and  O_35
REMARK    9  A    between atoms: C_16  and  O_23
REMARK   10  A    between atoms: C_24  and  O_43
REMARK   11  A    between atoms: C_25  and  C_39
REMARK   12  A    between atoms: C_29  and  C_31
REMARK   13  A    between atoms: C_30  and  C_36
REMARK   14  A    between atoms: O_35  and  C_39
REMARK   15  A    between atoms: C_36  and  O_43
REMARK                            x       y       z     vdW  Elec       q    Type
REMARK                         _______ _______ _______ _____ _____    ______ ____
ROOT
ATOM      1  O   UNL     1       2.072  -1.884   0.000  0.00  0.00    +0.000 OA
ATOM      2  C   UNL     1       1.340  -1.063   0.000  0.00  0.00    +0.000 C 
ATOM      3  C   UNL     1       1.087  -0.279   0.000  0.00  0.00    +0.000 C 
ATOM      4  C   UNL     1       2.828  -1.551   0.000  0.00  0.00    +0.000 C 
ATOM      5  C   UNL     1       2.423  -0.276   0.000  0.00  0.00    +0.000 C 
ATOM      6  C   UNL     1       2.165  -1.064   0.000  0.00  0.00    +0.000 C 
ATOM      7  O   UNL     1       1.752   0.211   0.000  0.00  0.00    +0.000 OA
ENDROOT
BRANCH   5  14
ATOM      8  N   UNL     1       4.815   1.689   0.000  0.00  0.00    +0.000 NA
ATOM      9  C   UNL     1       4.087   2.066   0.000  0.00  0.00    +0.000 A 
ATOM     10  N   UNL     1       4.149   0.420   0.000  0.00  0.00    +0.000 NA
ATOM     11  C   UNL     1       3.393   1.629   0.000  0.00  0.00    +0.000 A 
ATOM     12  C   UNL     1       2.139   1.171   0.000  0.00  0.00    +0.000 A 
ATOM     13  N   UNL     1       4.055   2.891   0.000  0.00  0.00    +0.000 NA
ATOM     14  C   UNL     1       2.646   0.517   0.000  0.00  0.00    +0.000 A 
ATOM     15  C   UNL     1       4.848   0.858   0.000  0.00  0.00    +0.000 A 
ATOM     16  C   UNL     1       2.600   1.860   0.000  0.00  0.00    +0.000 A 
ATOM     17  N   UNL     1       3.422   0.805   0.000  0.00  0.00    +0.000 N 
ENDBRANCH   5  14
BRANCH   5  18
ATOM     18  C   UNL     1       3.101  -0.737   0.000  0.00  0.00    +0.000 C 
ATOM     19  N   UNL     1       3.815  -1.150   0.000  0.00  0.00    +0.000 NA
ENDBRANCH   5  18
BRANCH   3  20
ATOM     20  C   UNL     1       0.302  -0.025   0.000  0.00  0.00    +0.000 C 
BRANCH  20  21
ATOM     21  O   UNL     1       0.130   0.782   0.000  0.00  0.00    +0.000 OA
BRANCH  21  22
ATOM     22  P   UNL     1      -0.654   1.037   0.000  0.00  0.00    +0.000 P 
ATOM     23  O   UNL     1      -1.067   1.751   0.000  0.00  0.00    +0.000 OA
BRANCH  22  24
ATOM     24  N   UNL     1      -1.267   0.480   0.000  0.00  0.00    +0.000 NA
BRANCH  24  25
ATOM     25  C   UNL     1      -2.052   0.739   0.000  0.00  0.00    +0.000 C 
ATOM     26  C   UNL     1      -2.224   1.546   0.000  0.00  0.00    +0.000 C 
BRANCH  25  27
ATOM     27  C   UNL     1      -2.665   0.186   0.000  0.00  0.00    +0.000 C 
ATOM     28  O   UNL     1      -2.493  -0.620   0.000  0.00  0.00    +0.000 OA
BRANCH  27  29
ATOM     29  O   UNL     1      -3.450   0.437   0.000  0.00  0.00    +0.000 OA
BRANCH  29  32
ATOM     30  C   UNL     1      -4.848   0.143   0.000  0.00  0.00    +0.000 C 
ATOM     31  C   UNL     1      -3.891  -0.918   0.000  0.00  0.00    +0.000 C 
ATOM     32  C   UNL     1      -4.063  -0.111   0.000  0.00  0.00    +0.000 C 
ENDBRANCH  29  32
ENDBRANCH  27  29
ENDBRANCH  25  27
ENDBRANCH  24  25
ENDBRANCH  22  24
BRANCH  22  33
ATOM     33  O   UNL     1      -0.242   1.751   0.000  0.00  0.00    +0.000 OA
BRANCH  33  35
ATOM     34  C   UNL     1      -1.474   2.463   0.000  0.00  0.00    +0.000 A 
ATOM     35  C   UNL     1      -0.654   2.466   0.000  0.00  0.00    +0.000 A 
ATOM     36  C   UNL     1      -1.888   3.174   0.000  0.00  0.00    +0.000 A 
ATOM     37  C   UNL     1      -0.237   3.179   0.000  0.00  0.00    +0.000 A 
ATOM     38  C   UNL     1      -0.649   3.893   0.000  0.00  0.00    +0.000 A 
ATOM     39  C   UNL     1      -1.475   3.893   0.000  0.00  0.00    +0.000 A 
ENDBRANCH  33  35
ENDBRANCH  22  33
ENDBRANCH  21  22
ENDBRANCH  20  21
ENDBRANCH   3  20
BRANCH   2  40
ATOM     40  O   UNL     1       0.854  -1.730   0.000  0.00  0.00    +0.000 OA
BRANCH  40  42
ATOM     41  O   UNL     1       2.000  -2.569   0.000  0.00  0.00    +0.000 OA
ATOM     42  C   UNL     1       1.183  -2.481   0.000  0.00  0.00    +0.000 C 
BRANCH  42  45
ATOM     43  C   UNL     1       1.031  -3.893   0.000  0.00  0.00    +0.000 C 
ATOM     44  C   UNL     1      -0.115  -3.055   0.000  0.00  0.00    +0.000 C 
ATOM     45  C   UNL     1       0.701  -3.143   0.000  0.00  0.00    +0.000 C 
ENDBRANCH  42  45
ENDBRANCH  40  42
ENDBRANCH   2  40
TORSDOF 15
