REMARK  Name = 
REMARK  3 active torsions:
REMARK  status: ('A' for Active; 'I' for Inactive)
REMARK    1  A    between atoms: C_4  and  C_5
REMARK    2  A    between atoms: C_5  and  C_6
REMARK    3  A    between atoms: N_17  and  C_18
REMARK                            x       y       z     vdW  Elec       q    Type
REMARK                         _______ _______ _______ _____ _____    ______ ____
ROOT
ATOM      1  O   UNL     1       3.279   2.062   0.000  0.00  0.00    +0.000 OA
ATOM      2  C   UNL     1       3.279   1.238   0.000  0.00  0.00    +0.000 A 
ATOM      3  N   UNL     1       3.993   0.825   0.000  0.00  0.00    +0.000 NA
ATOM      4  C   UNL     1       3.993   0.000   0.000  0.00  0.00    +0.000 A 
ATOM      5  N   UNL     1       3.279  -0.412   0.000  0.00  0.00    +0.000 NA
ATOM      6  C   UNL     1       2.564   0.000   0.000  0.00  0.00    +0.000 A 
ATOM      7  C   UNL     1       2.564   0.825   0.000  0.00  0.00    +0.000 A 
ATOM      8  C   UNL     1       1.780   1.080   0.000  0.00  0.00    +0.000 A 
ATOM      9  N   UNL     1       1.295   0.412   0.000  0.00  0.00    +0.000 NA
ATOM     10  N   UNL     1       1.780  -0.255   0.000  0.00  0.00    +0.000 N 
ENDROOT
BRANCH  10  11
ATOM     11  C   UNL     1       1.525  -1.040   0.000  0.00  0.00    +0.000 C 
ATOM     12  C   UNL     1       2.077  -1.653   0.000  0.00  0.00    +0.000 C 
ATOM     13  C   UNL     1       1.822  -2.437   0.000  0.00  0.00    +0.000 C 
ATOM     14  O   UNL     1       1.015  -2.609   0.000  0.00  0.00    +0.000 OA
ATOM     15  C   UNL     1       0.463  -1.996   0.000  0.00  0.00    +0.000 C 
ATOM     16  C   UNL     1       0.718  -1.211   0.000  0.00  0.00    +0.000 C 
ENDBRANCH  10  11
BRANCH   4  17
ATOM     17  C   UNL     1       4.708  -0.412   0.000  0.00  0.00    +0.000 C 
BRANCH  17  18
ATOM     18  C   UNL     1       5.422   0.000   0.000  0.00  0.00    +0.000 A 
ATOM     19  N   UNL     1       5.422   0.825   0.000  0.00  0.00    +0.000 NA
ATOM     20  C   UNL     1       6.137   1.238   0.000  0.00  0.00    +0.000 A 
ATOM     21  C   UNL     1       6.851   0.825   0.000  0.00  0.00    +0.000 A 
ATOM     22  C   UNL     1       6.851   0.000   0.000  0.00  0.00    +0.000 A 
ATOM     23  C   UNL     1       6.137  -0.412   0.000  0.00  0.00    +0.000 A 
ENDBRANCH  17  18
ENDBRANCH   4  17
TORSDOF 3
