REMARK  Name = 
REMARK  2 active torsions:
REMARK  status: ('A' for Active; 'I' for Inactive)
REMARK    1  A    between atoms: C_1  and  C_4
REMARK    2  A    between atoms: C_4  and  C_7
REMARK                            x       y       z     vdW  Elec       q    Type
REMARK                         _______ _______ _______ _____ _____    ______ ____
ROOT
ATOM      1  C   UNL     1      -0.343   0.616   0.000  0.00  0.00    +0.000 A 
ATOM      2  C   UNL     1       0.374   0.196   0.000  0.00  0.00    +0.000 A 
ATOM      3  C   UNL     1      -1.060   0.196   0.000  0.00  0.00    +0.000 A 
ATOM      4  C   UNL     1       0.374  -0.629   0.000  0.00  0.00    +0.000 A 
ATOM      5  C   UNL     1      -1.060  -0.629   0.000  0.00  0.00    +0.000 A 
ATOM      6  C   UNL     1      -0.343  -1.045   0.000  0.00  0.00    +0.000 A 
ATOM      7  O   UNL     1      -0.343  -1.815   0.000  0.00  0.00    +0.000 OA
ENDROOT
BRANCH   1   8
ATOM      8  C   UNL     1      -0.343   1.419   0.000  0.00  0.00    +0.000 C 
BRANCH   8   9
ATOM      9  C   UNL     1       0.356   1.815   0.000  0.00  0.00    +0.000 C 
ATOM     10  O   UNL     1       1.060   1.419   0.000  0.00  0.00    +0.000 OA
ENDBRANCH   8   9
ENDBRANCH   1   8
TORSDOF 2
