REMARK  Name = 
REMARK  3 active torsions:
REMARK  status: ('A' for Active; 'I' for Inactive)
REMARK    1  A    between atoms: C_11  and  C_12
REMARK    2  A    between atoms: C_12  and  O_13
REMARK    3  A    between atoms: O_13  and  P_14
REMARK                            x       y       z     vdW  Elec       q    Type
REMARK                         _______ _______ _______ _____ _____    ______ ____
ROOT
ATOM      1  N   UNL     1       2.221  -0.880   0.000  0.00  0.00    +0.000 NA
ATOM      2  C   UNL     1       1.506  -0.468   0.000  0.00  0.00    +0.000 A 
ATOM      3  N   UNL     1       0.792  -0.880   0.000  0.00  0.00    +0.000 NA
ATOM      4  C   UNL     1       0.077  -0.468   0.000  0.00  0.00    +0.000 A 
ATOM      5  C   UNL     1       0.077   0.357   0.000  0.00  0.00    +0.000 A 
ATOM      6  N   UNL     1      -0.637   0.770   0.000  0.00  0.00    +0.000 NA
ATOM      7  C   UNL     1      -1.352   0.357   0.000  0.00  0.00    +0.000 C 
ATOM      8  C   UNL     1      -1.352  -0.468   0.000  0.00  0.00    +0.000 C 
ATOM      9  N   UNL     1      -0.637  -0.880   0.000  0.00  0.00    +0.000 NA
ATOM     10  O   UNL     1      -2.066  -0.880   0.000  0.00  0.00    +0.000 OA
ATOM     11  C   UNL     1      -2.781  -0.468   0.000  0.00  0.00    +0.000 C 
ATOM     12  C   UNL     1      -2.781   0.357   0.000  0.00  0.00    +0.000 C 
ATOM     13  C   UNL     1      -2.066   0.770   0.000  0.00  0.00    +0.000 C 
ATOM     14  S   UNL     1      -2.066   1.595   0.000  0.00  0.00    +0.000 SA
ATOM     15  S   UNL     1      -3.495   0.770   0.000  0.00  0.00    +0.000 SA
ATOM     16  C   UNL     1       0.792   0.770   0.000  0.00  0.00    +0.000 A 
ATOM     17  O   UNL     1       0.792   1.595   0.000  0.00  0.00    +0.000 OA
ATOM     18  N   UNL     1       1.506   0.357   0.000  0.00  0.00    +0.000 NA
ENDROOT
BRANCH  11  19
ATOM     19  C   UNL     1      -3.495  -0.880   0.000  0.00  0.00    +0.000 C 
BRANCH  19  20
ATOM     20  O   UNL     1      -4.210  -0.468   0.000  0.00  0.00    +0.000 OA
BRANCH  20  21
ATOM     21  P   UNL     1      -4.924  -0.880   0.000  0.00  0.00    +0.000 P 
ATOM     22  O   UNL     1      -5.638  -1.293   0.000  0.00  0.00    +0.000 OA
ATOM     23  O   UNL     1      -5.337  -0.166   0.000  0.00  0.00    +0.000 OA
ATOM     24  O   UNL     1      -4.511  -1.595   0.000  0.00  0.00    +0.000 OA
ENDBRANCH  20  21
ENDBRANCH  19  20
ENDBRANCH  11  19
TORSDOF 3
REMARK  Name = 
REMARK  3 active torsions:
REMARK  status: ('A' for Active; 'I' for Inactive)
REMARK    1  A    between atoms: C_11  and  C_12
REMARK    2  A    between atoms: C_12  and  O_13
REMARK    3  A    between atoms: O_13  and  P_14
REMARK                            x       y       z     vdW  Elec       q    Type
REMARK                         _______ _______ _______ _____ _____    ______ ____
ROOT
ATOM      1  O   UNL     1       3.989  -0.124   0.000  0.00  0.00    +0.000 OA
ATOM      2 MO   UNL     1       4.814  -0.124   0.000  0.00  0.00    +0.000 Mo
ATOM      3  O   UNL     1       5.638  -0.124   0.000  0.00  0.00    +0.000 OA
ENDROOT
TORSDOF 0
