REMARK  Name = 
REMARK  5 active torsions:
REMARK  status: ('A' for Active; 'I' for Inactive)
REMARK    1  A    between atoms: C_2  and  C_9
REMARK    2  A    between atoms: C_7  and  C_12
REMARK    3  A    between atoms: C_14  and  O_21
REMARK    4  A    between atoms: C_19  and  O_21
REMARK    5  A    between atoms: C_19  and  C_22
REMARK                            x       y       z     vdW  Elec       q    Type
REMARK                         _______ _______ _______ _____ _____    ______ ____
ROOT
ATOM      1  C   UNL     1      -1.479  -0.529   0.000  0.00  0.00    +0.000 A 
ATOM      2  C   UNL     1      -2.196  -0.942   0.000  0.00  0.00    +0.000 A 
ATOM      3  C   UNL     1      -2.196  -1.769   0.000  0.00  0.00    +0.000 A 
ATOM      4  C   UNL     1      -1.479  -2.182   0.000  0.00  0.00    +0.000 A 
ATOM      5  C   UNL     1      -0.768  -0.942   0.000  0.00  0.00    +0.000 A 
ATOM      6  C   UNL     1      -0.768  -1.769   0.000  0.00  0.00    +0.000 A 
ATOM      7  C   UNL     1       0.500  -1.355   0.000  0.00  0.00    +0.000 A 
ATOM      8  N   UNL     1       0.015  -2.022   0.000  0.00  0.00    +0.000 NA
ATOM      9  N   UNL     1       0.015  -0.689   0.000  0.00  0.00    +0.000 NA
ENDROOT
BRANCH   7  10
ATOM     10  C   UNL     1       1.327  -1.355   0.000  0.00  0.00    +0.000 A 
ATOM     11  C   UNL     1       2.972  -1.355   0.000  0.00  0.00    +0.000 A 
ATOM     12  C   UNL     1       2.566  -0.645   0.000  0.00  0.00    +0.000 A 
ATOM     13  C   UNL     1       1.740  -0.645   0.000  0.00  0.00    +0.000 A 
ATOM     14  C   UNL     1       1.740  -2.073   0.000  0.00  0.00    +0.000 A 
ATOM     15  C   UNL     1       2.566  -2.073   0.000  0.00  0.00    +0.000 A 
ATOM     16  O   UNL     1       1.327   0.072   0.000  0.00  0.00    +0.000 OA
BRANCH  12  17
ATOM     17  O   UNL     1       2.972   0.072   0.000  0.00  0.00    +0.000 OA
BRANCH  17  18
ATOM     18  C   UNL     1       2.566   0.783   0.000  0.00  0.00    +0.000 C 
BRANCH  18  19
ATOM     19  C   UNL     1       2.820   1.573   0.000  0.00  0.00    +0.000 C 
ATOM     20  C   UNL     1       2.269   2.182   0.000  0.00  0.00    +0.000 C 
ATOM     21  C   UNL     1       3.624   1.740   0.000  0.00  0.00    +0.000 C 
ENDBRANCH  18  19
ENDBRANCH  17  18
ENDBRANCH  12  17
ENDBRANCH   7  10
BRANCH   2  22
ATOM     22  C   UNL     1      -2.907  -0.529   0.000  0.00  0.00    +0.000 C 
ATOM     23  N   UNL     1      -2.907   0.290   0.000  0.00  0.00    +0.000 NA
ATOM     24  N   UNL     1      -3.624  -0.942   0.000  0.00  0.00    +0.000 NA
ENDBRANCH   2  22
TORSDOF 5
