REMARK  Name = 
REMARK  0 active torsions:
REMARK  status: ('A' for Active; 'I' for Inactive)
REMARK                            x       y       z     vdW  Elec       q    Type
REMARK                         _______ _______ _______ _____ _____    ______ ____
ROOT
ATOM      1 ZN   UNL     1       0.068  -0.672   0.000  0.00  0.00    +0.000 Zn
ENDROOT
TORSDOF 0
REMARK  Name = 
REMARK  0 active torsions:
REMARK  status: ('A' for Active; 'I' for Inactive)
REMARK                            x       y       z     vdW  Elec       q    Type
REMARK                         _______ _______ _______ _____ _____    ______ ____
ROOT
ATOM      1  O   UNL     1      -1.203  -0.683   0.000  0.00  0.00    +0.000 OA
ATOM      2  O   UNL     1      -1.913   0.557   0.000  0.00  0.00    +0.000 OA
ATOM      3  C   UNL     1      -1.913  -0.273   0.000  0.00  0.00    +0.000 C 
ATOM      4  C   UNL     1      -2.627  -0.683   0.000  0.00  0.00    +0.000 C 
ENDROOT
TORSDOF 0
REMARK  Name = 
REMARK  0 active torsions:
REMARK  status: ('A' for Active; 'I' for Inactive)
REMARK                            x       y       z     vdW  Elec       q    Type
REMARK                         _______ _______ _______ _____ _____    ______ ____
ROOT
ATOM      1  O   UNL     1       1.203  -0.562   0.000  0.00  0.00    +0.000 OA
ATOM      2  O   UNL     1       1.913   0.683   0.000  0.00  0.00    +0.000 OA
ATOM      3  C   UNL     1       1.913  -0.147   0.000  0.00  0.00    +0.000 C 
ATOM      4  C   UNL     1       2.627  -0.562   0.000  0.00  0.00    +0.000 C 
ENDROOT
TORSDOF 0
