REMARK  Name = 
REMARK  8 active torsions:
REMARK  status: ('A' for Active; 'I' for Inactive)
REMARK    1  A    between atoms: C_4  and  C_5
REMARK    2  A    between atoms: C_4  and  N_9
REMARK    3  A    between atoms: C_5  and  O_14
REMARK    4  A    between atoms: C_6  and  C_8
REMARK    5  A    between atoms: C_7  and  C_8
REMARK    6  A    between atoms: C_7  and  O_15
REMARK    7  A    between atoms: O_14  and  P_16
REMARK    8  A    between atoms: O_15  and  P_16
REMARK                            x       y       z     vdW  Elec       q    Type
REMARK                         _______ _______ _______ _____ _____    ______ ____
ROOT
ATOM      1  O   UNL     1      -0.055  -1.182   0.000  0.00  0.00    +0.000 OA
ATOM      2  O   UNL     1      -0.055   0.468   0.000  0.00  0.00    +0.000 OA
ATOM      3  P   UNL     1      -0.055  -0.357   0.000  0.00  0.00    +0.000 P 
ENDROOT
BRANCH   3   4
ATOM      4  O   UNL     1      -0.880  -0.357   0.000  0.00  0.00    +0.000 OA
BRANCH   4   5
ATOM      5  C   UNL     1      -1.293   0.357   0.000  0.00  0.00    +0.000 C 
BRANCH   5   6
ATOM      6  C   UNL     1      -2.118   0.357   0.000  0.00  0.00    +0.000 C 
BRANCH   6  10
ATOM      7  C   UNL     1      -2.943   1.786   0.000  0.00  0.00    +0.000 C 
ATOM      8  C   UNL     1      -3.245   0.659   0.000  0.00  0.00    +0.000 C 
ATOM      9  C   UNL     1      -1.816   1.484   0.000  0.00  0.00    +0.000 C 
ATOM     10  N   UNL     1      -2.530   1.072   0.000  0.00  0.00    +0.000 N 
ENDBRANCH   6  10
ENDBRANCH   5   6
ENDBRANCH   4   5
ENDBRANCH   3   4
BRANCH   3  11
ATOM     11  O   UNL     1       0.770  -0.357   0.000  0.00  0.00    +0.000 OA
BRANCH  11  12
ATOM     12  C   UNL     1       1.182  -1.072   0.000  0.00  0.00    +0.000 C 
BRANCH  12  13
ATOM     13  C   UNL     1       2.007  -1.072   0.000  0.00  0.00    +0.000 C 
ATOM     14  O   UNL     1       2.420  -0.357   0.000  0.00  0.00    +0.000 OA
BRANCH  13  15
ATOM     15  C   UNL     1       2.420  -1.786   0.000  0.00  0.00    +0.000 C 
ATOM     16  O   UNL     1       3.245  -1.786   0.000  0.00  0.00    +0.000 OA
ENDBRANCH  13  15
ENDBRANCH  12  13
ENDBRANCH  11  12
ENDBRANCH   3  11
TORSDOF 8
