REMARK  Name = 
REMARK  6 active torsions:
REMARK  status: ('A' for Active; 'I' for Inactive)
REMARK    1  A    between atoms: O_2  and  C_3
REMARK    2  A    between atoms: C_9  and  N_10
REMARK    3  A    between atoms: N_10  and  C_11
REMARK    4  A    between atoms: C_15  and  C_16
REMARK    5  A    between atoms: C_22  and  O_23
REMARK    6  A    between atoms: O_23  and  C_24
REMARK                            x       y       z     vdW  Elec       q    Type
REMARK                         _______ _______ _______ _____ _____    ______ ____
ROOT
ATOM      1  C   UNL     1       0.715  -0.412   0.000  0.00  0.00    +0.000 A 
ATOM      2  C   UNL     1       1.429   0.000   0.000  0.00  0.00    +0.000 A 
ATOM      3  C   UNL     1       2.143  -0.412   0.000  0.00  0.00    +0.000 A 
ATOM      4  N   UNL     1       2.858   0.000   0.000  0.00  0.00    +0.000 NA
ATOM      5  C   UNL     1       3.572  -0.412   0.000  0.00  0.00    +0.000 A 
ATOM      6  N   UNL     1       3.572  -1.238   0.000  0.00  0.00    +0.000 NA
ATOM      7  C   UNL     1       2.858  -1.650   0.000  0.00  0.00    +0.000 A 
ATOM      8  C   UNL     1       2.143  -1.238   0.000  0.00  0.00    +0.000 A 
ATOM      9  C   UNL     1       1.429  -1.650   0.000  0.00  0.00    +0.000 A 
ATOM     10  C   UNL     1       0.715  -1.238   0.000  0.00  0.00    +0.000 A 
ENDROOT
BRANCH   1  12
ATOM     11  C   UNL     1       0.000   0.825   0.000  0.00  0.00    +0.000 C 
ATOM     12  O   UNL     1       0.000   0.000   0.000  0.00  0.00    +0.000 OA
ENDBRANCH   1  12
BRANCH   7  13
ATOM     13  N   UNL     1       2.858  -2.475   0.000  0.00  0.00    +0.000 NA
BRANCH  13  14
ATOM     14  C   UNL     1       3.572  -2.888   0.000  0.00  0.00    +0.000 A 
ATOM     15  C   UNL     1       4.287  -2.475   0.000  0.00  0.00    +0.000 A 
ATOM     16  C   UNL     1       5.001  -2.888   0.000  0.00  0.00    +0.000 A 
ATOM     17  C   UNL     1       5.001  -3.712   0.000  0.00  0.00    +0.000 A 
ATOM     18  C   UNL     1       4.287  -4.125   0.000  0.00  0.00    +0.000 A 
ATOM     19  C   UNL     1       3.572  -3.712   0.000  0.00  0.00    +0.000 A 
ATOM     20  F   UNL     1       2.858  -4.125   0.000  0.00  0.00    +0.000 F 
BRANCH  18  21
ATOM     21  C   UNL     1       4.287  -4.950   0.000  0.00  0.00    +0.000 C 
ATOM     22  C   UNL     1       4.287  -5.775   0.000  0.00  0.00    +0.000 C 
ENDBRANCH  18  21
ENDBRANCH  13  14
ENDBRANCH   7  13
BRANCH  10  23
ATOM     23  O   UNL     1       0.000  -1.650   0.000  0.00  0.00    +0.000 OA
BRANCH  23  24
ATOM     24  C   UNL     1      -0.715  -1.238   0.000  0.00  0.00    +0.000 C 
ATOM     25  C   UNL     1      -0.715  -0.412   0.000  0.00  0.00    +0.000 C 
ATOM     26  C   UNL     1      -1.429   0.000   0.000  0.00  0.00    +0.000 C 
ATOM     27  N   UNL     1      -2.143  -0.412   0.000  0.00  0.00    +0.000 NA
ATOM     28  C   UNL     1      -2.858   0.000   0.000  0.00  0.00    +0.000 C 
ATOM     29  C   UNL     1      -2.143  -1.238   0.000  0.00  0.00    +0.000 C 
ATOM     30  C   UNL     1      -1.429  -1.650   0.000  0.00  0.00    +0.000 C 
ATOM     31  F   UNL     1      -1.816  -2.378   0.000  0.00  0.00    +0.000 F 
ATOM     32  F   UNL     1      -1.042  -2.378   0.000  0.00  0.00    +0.000 F 
ENDBRANCH  23  24
ENDBRANCH  10  23
TORSDOF 6
