REMARK  Name = 
REMARK  4 active torsions:
REMARK  status: ('A' for Active; 'I' for Inactive)
REMARK    1  A    between atoms: O_1  and  C_7
REMARK    2  A    between atoms: C_3  and  C_6
REMARK    3  A    between atoms: C_6  and  C_9
REMARK    4  A    between atoms: C_9  and  C_11
REMARK                            x       y       z     vdW  Elec       q    Type
REMARK                         _______ _______ _______ _____ _____    ______ ____
ROOT
ATOM      1  C   UNL     1      -0.353  -0.002   0.000  0.00  0.00    +0.000 A 
ATOM      2  C   UNL     1      -1.063   0.411   0.000  0.00  0.00    +0.000 A 
ATOM      3  C   UNL     1      -0.353  -0.819   0.000  0.00  0.00    +0.000 A 
ATOM      4  C   UNL     1      -1.782  -0.002   0.000  0.00  0.00    +0.000 A 
ATOM      5  C   UNL     1      -1.063  -1.238   0.000  0.00  0.00    +0.000 A 
ATOM      6  C   UNL     1      -1.782  -0.819   0.000  0.00  0.00    +0.000 A 
ATOM      7  O   UNL     1      -2.503  -1.238   0.000  0.00  0.00    +0.000 OA
ENDROOT
BRANCH   4   8
ATOM      8  O   UNL     1      -2.503   0.411   0.000  0.00  0.00    +0.000 OA
ATOM      9  C   UNL     1      -2.505   1.238   0.000  0.00  0.00    +0.000 C 
ENDBRANCH   4   8
BRANCH   1  10
ATOM     10  C   UNL     1       0.362   0.409   0.000  0.00  0.00    +0.000 C 
BRANCH  10  11
ATOM     11  C   UNL     1       1.076  -0.004   0.000  0.00  0.00    +0.000 C 
BRANCH  11  12
ATOM     12  C   UNL     1       1.792   0.406   0.000  0.00  0.00    +0.000 C 
ATOM     13  O   UNL     1       1.793   1.232   0.000  0.00  0.00    +0.000 OA
ATOM     14  C   UNL     1       2.505  -0.007   0.000  0.00  0.00    +0.000 C 
ENDBRANCH  11  12
ENDBRANCH  10  11
ENDBRANCH   1  10
TORSDOF 4
