REMARK  Name = 
REMARK  12 active torsions:
REMARK  status: ('A' for Active; 'I' for Inactive)
REMARK    1  A    between atoms: C_6  and  C_9
REMARK    2  A    between atoms: C_7  and  C_8
REMARK    3  A    between atoms: C_7  and  C_10
REMARK    4  A    between atoms: C_8  and  C_13
REMARK    5  A    between atoms: C_9  and  C_15
REMARK    6  A    between atoms: C_10  and  C_16
REMARK    7  A    between atoms: C_11  and  C_12
REMARK    8  A    between atoms: C_16  and  C_19
REMARK    9  A    between atoms: C_17  and  C_21
REMARK   10  A    between atoms: C_20  and  C_21
REMARK   11  A    between atoms: C_23  and  N_24
REMARK   12  A    between atoms: C_23  and  O_29
REMARK                            x       y       z     vdW  Elec       q    Type
REMARK                         _______ _______ _______ _____ _____    ______ ____
ROOT
ATOM      1  C   UNL     1       1.786  -2.681   0.000  0.00  0.00    +0.000 C 
ATOM      2  C   UNL     1       2.501  -2.269   0.000  0.00  0.00    +0.000 C 
ATOM      3  C   UNL     1       1.072  -2.269   0.000  0.00  0.00    +0.000 C 
ATOM      4  C   UNL     1       2.501  -1.444   0.000  0.00  0.00    +0.000 C 
ATOM      5  C   UNL     1       1.786  -1.031   0.000  0.00  0.00    +0.000 C 
ATOM      6  O   UNL     1       3.215  -2.681   0.000  0.00  0.00    +0.000 OA
ATOM      7  O   UNL     1       1.786  -0.206   0.000  0.00  0.00    +0.000 OA
ATOM      8  O   UNL     1       1.072  -1.444   0.000  0.00  0.00    +0.000 OA
ENDROOT
BRANCH   3  10
ATOM      9  C   UNL     1       0.357  -3.506   0.000  0.00  0.00    +0.000 C 
ATOM     10  C   UNL     1       0.357  -2.681   0.000  0.00  0.00    +0.000 C 
BRANCH  10  11
ATOM     11  C   UNL     1      -0.357  -2.269   0.000  0.00  0.00    +0.000 C 
BRANCH  11  12
ATOM     12  C   UNL     1      -1.072  -2.681   0.000  0.00  0.00    +0.000 C 
BRANCH  12  13
ATOM     13  C   UNL     1      -1.786  -2.269   0.000  0.00  0.00    +0.000 C 
BRANCH  13  14
ATOM     14  C   UNL     1      -2.501  -2.681   0.000  0.00  0.00    +0.000 C 
ATOM     15  N   UNL     1      -3.215  -2.269   0.000  0.00  0.00    +0.000 NA
BRANCH  15  16
ATOM     16  C   UNL     1      -3.929  -2.681   0.000  0.00  0.00    +0.000 C 
ATOM     17  O   UNL     1      -3.929  -3.506   0.000  0.00  0.00    +0.000 OA
BRANCH  16  19
ATOM     18  C   UNL     1      -5.359  -2.681   0.000  0.00  0.00    +0.000 C 
ATOM     19  O   UNL     1      -4.644  -2.269   0.000  0.00  0.00    +0.000 OA
ENDBRANCH  16  19
ENDBRANCH  15  16
ENDBRANCH  13  14
ENDBRANCH  12  13
ENDBRANCH  11  12
ENDBRANCH  10  11
ENDBRANCH   3  10
BRANCH   4  20
ATOM     20  C   UNL     1       3.215  -1.031   0.000  0.00  0.00    +0.000 C 
ATOM     21  O   UNL     1       3.929  -1.444   0.000  0.00  0.00    +0.000 OA
BRANCH  20  24
ATOM     22  C   UNL     1       2.501   0.206   0.000  0.00  0.00    +0.000 C 
ATOM     23  C   UNL     1       3.929   0.206   0.000  0.00  0.00    +0.000 C 
ATOM     24  C   UNL     1       3.215  -0.206   0.000  0.00  0.00    +0.000 C 
BRANCH  23  26
ATOM     25  C   UNL     1       5.359   1.031   0.000  0.00  0.00    +0.000 C 
ATOM     26  C   UNL     1       3.929   1.031   0.000  0.00  0.00    +0.000 C 
ATOM     27  C   UNL     1       4.644   1.444   0.000  0.00  0.00    +0.000 C 
BRANCH  27  28
ATOM     28  C   UNL     1       4.644   2.269   0.000  0.00  0.00    +0.000 C 
BRANCH  28  30
ATOM     29  C   UNL     1       5.359   3.506   0.000  0.00  0.00    +0.000 C 
ATOM     30  C   UNL     1       5.359   2.681   0.000  0.00  0.00    +0.000 C 
ENDBRANCH  28  30
ENDBRANCH  27  28
ENDBRANCH  23  26
ENDBRANCH  20  24
ENDBRANCH   4  20
TORSDOF 12
