REMARK  Name = 
REMARK  5 active torsions:
REMARK  status: ('A' for Active; 'I' for Inactive)
REMARK    1  A    between atoms: C_1  and  C_2
REMARK    2  A    between atoms: C_1  and  O_7
REMARK    3  A    between atoms: O_7  and  C_11
REMARK    4  A    between atoms: C_11  and  C_12
REMARK    5  A    between atoms: C_12  and  C_13
REMARK                            x       y       z     vdW  Elec       q    Type
REMARK                         _______ _______ _______ _____ _____    ______ ____
ROOT
ATOM      1  C   UNL     1      -0.356   0.414   0.000  0.00  0.00    +0.000 C 
ATOM      2  O   UNL     1      -0.361   1.243   0.000  0.00  0.00    +0.000 OA
ENDROOT
BRANCH   1   3
ATOM      3  C   UNL     1      -1.068  -0.002   0.000  0.00  0.00    +0.000 A 
ATOM      4  C   UNL     1      -1.068  -0.831   0.000  0.00  0.00    +0.000 A 
ATOM      5  C   UNL     1      -1.780   0.414   0.000  0.00  0.00    +0.000 A 
ATOM      6  C   UNL     1      -2.493  -0.831   0.000  0.00  0.00    +0.000 A 
ATOM      7  N   UNL     1      -3.205  -1.243   0.000  0.00  0.00    +0.000 NA
ATOM      8  C   UNL     1      -1.780  -1.243   0.000  0.00  0.00    +0.000 A 
ATOM      9  C   UNL     1      -2.493  -0.002   0.000  0.00  0.00    +0.000 A 
ENDBRANCH   1   3
BRANCH   1  10
ATOM     10  O   UNL     1       0.356   0.007   0.000  0.00  0.00    +0.000 OA
BRANCH  10  11
ATOM     11  C   UNL     1       1.068   0.419   0.000  0.00  0.00    +0.000 C 
BRANCH  11  12
ATOM     12  C   UNL     1       1.780   0.007   0.000  0.00  0.00    +0.000 C 
BRANCH  12  13
ATOM     13  C   UNL     1       2.493   0.429   0.000  0.00  0.00    +0.000 C 
ATOM     14  C   UNL     1       3.205   0.012   0.000  0.00  0.00    +0.000 C 
ENDBRANCH  12  13
ENDBRANCH  11  12
ENDBRANCH  10  11
ENDBRANCH   1  10
TORSDOF 5
