REMARK  Name = 
REMARK  9 active torsions:
REMARK  status: ('A' for Active; 'I' for Inactive)
REMARK    1  A    between atoms: C_2  and  C_3
REMARK    2  A    between atoms: C_2  and  N_7
REMARK    3  A    between atoms: N_7  and  C_8
REMARK    4  A    between atoms: C_9  and  C_18
REMARK    5  A    between atoms: C_21  and  O_25
REMARK    6  A    between atoms: O_25  and  C_26
REMARK    7  A    between atoms: C_26  and  C_27
REMARK    8  A    between atoms: C_27  and  C_28
REMARK    9  A    between atoms: C_28  and  N_29
REMARK                            x       y       z     vdW  Elec       q    Type
REMARK                         _______ _______ _______ _____ _____    ______ ____
ROOT
ATOM      1  C   UNL     1      -5.716   0.825   0.000  0.00  0.00    +0.000 A 
ATOM      2  C   UNL     1      -5.716   0.000   0.000  0.00  0.00    +0.000 A 
ATOM      3  C   UNL     1      -6.430  -0.412   0.000  0.00  0.00    +0.000 A 
ATOM      4  N   UNL     1      -7.145   0.000   0.000  0.00  0.00    +0.000 NA
ATOM      5  C   UNL     1      -7.145   0.825   0.000  0.00  0.00    +0.000 A 
ATOM      6  N   UNL     1      -6.430   1.238   0.000  0.00  0.00    +0.000 N 
ATOM      7  N   UNL     1      -6.602   2.045   0.000  0.00  0.00    +0.000 NA
ATOM      8  C   UNL     1      -7.422   2.131   0.000  0.00  0.00    +0.000 A 
ATOM      9  N   UNL     1      -7.758   1.377   0.000  0.00  0.00    +0.000 NA
ATOM     10 CL   UNL     1      -6.430  -1.238   0.000  0.00  0.00    +0.000 Cl
ENDROOT
BRANCH   2  11
ATOM     11  C   UNL     1      -5.001  -0.412   0.000  0.00  0.00    +0.000 A 
ATOM     12  C   UNL     1      -4.287   0.000   0.000  0.00  0.00    +0.000 A 
ATOM     13  C   UNL     1      -3.572  -0.412   0.000  0.00  0.00    +0.000 A 
ATOM     14  C   UNL     1      -3.572  -1.238   0.000  0.00  0.00    +0.000 A 
ATOM     15  C   UNL     1      -4.287  -1.650   0.000  0.00  0.00    +0.000 A 
ATOM     16  C   UNL     1      -5.001  -1.238   0.000  0.00  0.00    +0.000 A 
ATOM     17  F   UNL     1      -5.716  -1.650   0.000  0.00  0.00    +0.000 F 
ATOM     18  F   UNL     1      -4.287   0.825   0.000  0.00  0.00    +0.000 F 
BRANCH  14  19
ATOM     19  O   UNL     1      -2.858  -1.650   0.000  0.00  0.00    +0.000 OA
BRANCH  19  20
ATOM     20  C   UNL     1      -2.143  -1.238   0.000  0.00  0.00    +0.000 C 
BRANCH  20  21
ATOM     21  C   UNL     1      -1.429  -1.650   0.000  0.00  0.00    +0.000 C 
BRANCH  21  22
ATOM     22  C   UNL     1      -0.715  -1.238   0.000  0.00  0.00    +0.000 C 
BRANCH  22  23
ATOM     23  N   UNL     1       0.000  -1.650   0.000  0.00  0.00    +0.000 NA
ATOM     24  C   UNL     1       0.715  -1.238   0.000  0.00  0.00    +0.000 C 
ENDBRANCH  22  23
ENDBRANCH  21  22
ENDBRANCH  20  21
ENDBRANCH  19  20
ENDBRANCH  14  19
ENDBRANCH   2  11
BRANCH   1  25
ATOM     25  N   UNL     1      -5.001   1.238   0.000  0.00  0.00    +0.000 NA
BRANCH  25  27
ATOM     26  C   UNL     1      -5.716   2.475   0.000  0.00  0.00    +0.000 C 
ATOM     27  C   UNL     1      -5.001   2.062   0.000  0.00  0.00    +0.000 C 
BRANCH  27  28
ATOM     28  C   UNL     1      -4.287   2.475   0.000  0.00  0.00    +0.000 C 
ATOM     29  F   UNL     1      -3.572   2.888   0.000  0.00  0.00    +0.000 F 
ATOM     30  F   UNL     1      -4.699   3.189   0.000  0.00  0.00    +0.000 F 
ATOM     31  F   UNL     1      -3.874   1.760   0.000  0.00  0.00    +0.000 F 
ENDBRANCH  27  28
ENDBRANCH  25  27
ENDBRANCH   1  25
TORSDOF 9
