REMARK  Name = 
REMARK  93 active torsions:
REMARK  status: ('A' for Active; 'I' for Inactive)
REMARK    1  A    between atoms: C_1  and  CA_3
REMARK    2  A    between atoms: N_2  and  CA_3
REMARK    3  A    between atoms: CA_3  and  CB_4
REMARK    4  A    between atoms: CB_4  and  CG_5
REMARK    5  A    between atoms: CG_5  and  CD_6
REMARK    6  A    between atoms: CD_6  and  CE_7
REMARK    7  A    between atoms: C_11  and  CA_13
REMARK    8  A    between atoms: N_12  and  CA_13
REMARK    9  A    between atoms: CA_13  and  CB_14
REMARK   10  A    between atoms: CB_14  and  CG_15
REMARK   11  A    between atoms: C_19  and  CA_21
REMARK   12  A    between atoms: N_20  and  CA_21
REMARK   13  A    between atoms: CA_21  and  CB_22
REMARK   14  A    between atoms: CB_22  and  CG_23
REMARK   15  A    between atoms: C_27  and  CA_29
REMARK   16  A    between atoms: N_28  and  CA_29
REMARK   17  A    between atoms: CA_29  and  CB_30
REMARK   18  A    between atoms: CB_30  and  CG_31
REMARK   19  A    between atoms: C_35  and  CA_37
REMARK   20  A    between atoms: N_36  and  CA_37
REMARK   21  A    between atoms: CA_37  and  CB_38
REMARK   22  A    between atoms: CB_38  and  CG_39
REMARK   23  A    between atoms: C_43  and  CA_45
REMARK   24  A    between atoms: N_44  and  CA_45
REMARK   25  A    between atoms: CA_45  and  CB_46
REMARK   26  A    between atoms: CB_46  and  CG_47
REMARK   27  A    between atoms: CG_47  and  CD_48
REMARK   28  A    between atoms: CD_48  and  CE_49
REMARK   29  A    between atoms: C_52  and  CA_54
REMARK   30  A    between atoms: N_53  and  CA_54
REMARK   31  A    between atoms: CA_54  and  CB_55
REMARK   32  A    between atoms: CB_55  and  CG_56
REMARK   33  A    between atoms: C_60  and  CA_62
REMARK   34  A    between atoms: N_61  and  CA_62
REMARK   35  A    between atoms: CA_62  and  CB_63
REMARK   36  A    between atoms: CB_63  and  CG_64
REMARK   37  A    between atoms: C_68  and  CA_70
REMARK   38  A    between atoms: N_69  and  CA_70
REMARK   39  A    between atoms: CA_70  and  CB_71
REMARK   40  A    between atoms: CB_71  and  CG_72
REMARK   41  A    between atoms: C_76  and  CA_78
REMARK   42  A    between atoms: N_77  and  CA_78
REMARK   43  A    between atoms: CA_78  and  CB_79
REMARK   44  A    between atoms: CB_79  and  CG_80
REMARK   45  A    between atoms: C_84  and  CA_86
REMARK   46  A    between atoms: N_85  and  CA_86
REMARK   47  A    between atoms: CA_86  and  CB_87
REMARK   48  A    between atoms: CB_87  and  CG_88
REMARK   49  A    between atoms: CG_88  and  CD_89
REMARK   50  A    between atoms: CD_89  and  CE_90
REMARK   51  A    between atoms: C_93  and  CA_95
REMARK   52  A    between atoms: N_94  and  CA_95
REMARK   53  A    between atoms: CA_95  and  CB_96
REMARK   54  A    between atoms: CB_96  and  CG_97
REMARK   55  A    between atoms: C_101  and  CA_103
REMARK   56  A    between atoms: N_102  and  CA_103
REMARK   57  A    between atoms: CA_103  and  CB_104
REMARK   58  A    between atoms: CB_104  and  CG_105
REMARK   59  A    between atoms: C_109  and  CA_111
REMARK   60  A    between atoms: N_110  and  CA_111
REMARK   61  A    between atoms: CA_111  and  CB_112
REMARK   62  A    between atoms: CB_112  and  CG_113
REMARK   63  A    between atoms: C_117  and  CA_119
REMARK   64  A    between atoms: N_118  and  CA_119
REMARK   65  A    between atoms: CA_119  and  CB_120
REMARK   66  A    between atoms: CB_120  and  CG_121
REMARK   67  A    between atoms: C_125  and  CA_127
REMARK   68  A    between atoms: N_126  and  CA_127
REMARK   69  A    between atoms: CA_127  and  CB_128
REMARK   70  A    between atoms: CB_128  and  CG_129
REMARK   71  A    between atoms: CG_129  and  CD_130
REMARK   72  A    between atoms: CD_130  and  CE_131
REMARK   73  A    between atoms: C_134  and  CA_136
REMARK   74  A    between atoms: N_135  and  CA_136
REMARK   75  A    between atoms: CA_136  and  CB_137
REMARK   76  A    between atoms: CB_137  and  CG_138
REMARK   77  A    between atoms: C_142  and  CA_144
REMARK   78  A    between atoms: N_143  and  CA_144
REMARK   79  A    between atoms: CA_144  and  CB_145
REMARK   80  A    between atoms: CB_145  and  CG_146
REMARK   81  A    between atoms: C_150  and  CA_152
REMARK   82  A    between atoms: N_151  and  CA_152
REMARK   83  A    between atoms: CA_152  and  CB_153
REMARK   84  A    between atoms: CB_153  and  CG_154
REMARK   85  A    between atoms: C_158  and  CA_160
REMARK   86  A    between atoms: N_159  and  CA_160
REMARK   87  A    between atoms: CA_160  and  CB_161
REMARK   88  A    between atoms: CB_161  and  CG_162
REMARK   89  A    between atoms: C_165  and  CA_167
REMARK   90  A    between atoms: CA_167  and  CB_168
REMARK   91  A    between atoms: CB_168  and  CG_169
REMARK   92  A    between atoms: CG_169  and  CD_170
REMARK   93  A    between atoms: CD_170  and  CE_171
REMARK                            x       y       z     vdW  Elec       q    Type
REMARK                         _______ _______ _______ _____ _____    ______ ____
ROOT
ATOM      1  CA  LYS A  11       6.186  -0.733   0.000  0.00  0.00    +0.000 C 
ENDROOT
BRANCH   1   2
ATOM      2  N   LYS A  11       5.774  -0.017   0.000  0.00  0.00    +0.000 NA
ATOM      3  C   LEU A  10       4.949  -0.017   0.000  0.00  0.00    +0.000 C 
ATOM      4  O   LEU A  10       4.537  -0.733   0.000  0.00  0.00    +0.000 OA
BRANCH   3   5
ATOM      5  CA  LEU A  10       4.537   0.699   0.000  0.00  0.00    +0.000 C 
BRANCH   5   6
ATOM      6  N   LEU A  10       4.949   1.409   0.000  0.00  0.00    +0.000 NA
ATOM      7  C   LEU A   9       5.774   1.409   0.000  0.00  0.00    +0.000 C 
ATOM      8  O   LEU A   9       6.186   0.699   0.000  0.00  0.00    +0.000 OA
BRANCH   7   9
ATOM      9  CA  LEU A   9       6.186   2.124   0.000  0.00  0.00    +0.000 C 
BRANCH   9  10
ATOM     10  N   LEU A   9       5.774   2.840   0.000  0.00  0.00    +0.000 NA
ATOM     11  C   LEU A   8       6.186   3.552   0.000  0.00  0.00    +0.000 C 
ATOM     12  O   LEU A   8       7.011   3.552   0.000  0.00  0.00    +0.000 OA
BRANCH  11  13
ATOM     13  CA  LEU A   8       5.774   4.266   0.000  0.00  0.00    +0.000 C 
BRANCH  13  14
ATOM     14  N   LEU A   8       4.949   4.266   0.000  0.00  0.00    +0.000 NA
ATOM     15  C   LEU A   7       4.537   4.981   0.000  0.00  0.00    +0.000 C 
ATOM     16  O   LEU A   7       4.949   5.695   0.000  0.00  0.00    +0.000 OA
BRANCH  15  17
ATOM     17  CA  LEU A   7       3.712   4.981   0.000  0.00  0.00    +0.000 C 
BRANCH  17  18
ATOM     18  N   LEU A   7       3.299   4.266   0.000  0.00  0.00    +0.000 NA
ATOM     19  C   LYS A   6       2.474   4.266   0.000  0.00  0.00    +0.000 C 
ATOM     20  O   LYS A   6       2.061   4.981   0.000  0.00  0.00    +0.000 OA
BRANCH  19  21
ATOM     21  CA  LYS A   6       2.061   3.552   0.000  0.00  0.00    +0.000 C 
BRANCH  21  22
ATOM     22  N   LYS A   6       1.005   3.366   0.000  0.00  0.00    +0.000 NA
ATOM     23  C   LEU A   5       0.184   4.055   0.000  0.00  0.00    +0.000 C 
ATOM     24  O   LEU A   5      -0.564   3.706   0.000  0.00  0.00    +0.000 OA
BRANCH  23  25
ATOM     25  CA  LEU A   5       0.184   4.880   0.000  0.00  0.00    +0.000 C 
BRANCH  25  26
ATOM     26  N   LEU A   5       0.898   5.293   0.000  0.00  0.00    +0.000 NA
ATOM     27  C   LEU A   4       0.898   6.118   0.000  0.00  0.00    +0.000 C 
ATOM     28  O   LEU A   4       1.613   6.530   0.000  0.00  0.00    +0.000 OA
BRANCH  27  29
ATOM     29  CA  LEU A   4       0.184   6.530   0.000  0.00  0.00    +0.000 C 
BRANCH  29  30
ATOM     30  N   LEU A   4      -0.531   6.118   0.000  0.00  0.00    +0.000 NA
ATOM     31  C   LEU A   3      -1.245   6.530   0.000  0.00  0.00    +0.000 C 
ATOM     32  O   LEU A   3      -1.960   6.118   0.000  0.00  0.00    +0.000 OA
BRANCH  31  33
ATOM     33  CA  LEU A   3      -1.245   7.355   0.000  0.00  0.00    +0.000 C 
BRANCH  33  34
ATOM     34  N   LEU A   3      -0.360   7.867   0.000  0.00  0.00    +0.000 NA
ATOM     35  C   LEU A   2      -0.371   9.687   0.000  0.00  0.00    +0.000 C 
ATOM     36  O   LEU A   2       0.343  10.100   0.000  0.00  0.00    +0.000 OA
BRANCH  35  37
ATOM     37  CA  LEU A   2      -1.086  10.100   0.000  0.00  0.00    +0.000 C 
BRANCH  37  38
ATOM     38  N   LEU A   2      -1.899   9.630   0.000  0.00  0.00    +0.000 NA
ATOM     39  C   LYS A   1      -2.713  10.100   0.000  0.00  0.00    +0.000 C 
ATOM     40  O   LYS A   1      -2.713  10.925   0.000  0.00  0.00    +0.000 OA
BRANCH  39  42
ATOM     41  N   LYS A   1      -4.241  10.042   0.000  0.00  0.00    +0.000 NA
ATOM     42  CA  LYS A   1      -3.526   9.630   0.000  0.00  0.00    +0.000 C 
BRANCH  42  43
ATOM     43  CB  LYS A   1      -3.526   8.804   0.000  0.00  0.00    +0.000 C 
BRANCH  43  44
ATOM     44  CG  LYS A   1      -4.241   8.392   0.000  0.00  0.00    +0.000 C 
BRANCH  44  45
ATOM     45  CD  LYS A   1      -4.955   8.804   0.000  0.00  0.00    +0.000 C 
BRANCH  45  46
ATOM     46  CE  LYS A   1      -5.670   8.392   0.000  0.00  0.00    +0.000 C 
ATOM     47  NZ  LYS A   1      -6.384   8.804   0.000  0.00  0.00    +0.000 NA
ENDBRANCH  45  46
ENDBRANCH  44  45
ENDBRANCH  43  44
ENDBRANCH  42  43
ENDBRANCH  39  42
ENDBRANCH  37  38
BRANCH  37  48
ATOM     48  CB  LEU A   2      -1.087  10.929   0.000  0.00  0.00    +0.000 C 
BRANCH  48  49
ATOM     49  CG  LEU A   2      -0.373  11.342   0.000  0.00  0.00    +0.000 C 
ATOM     50  CD1 LEU A   2       0.342  10.924   0.000  0.00  0.00    +0.000 C 
ATOM     51  CD2 LEU A   2      -0.373  12.167   0.000  0.00  0.00    +0.000 C 
ENDBRANCH  48  49
ENDBRANCH  37  48
ENDBRANCH  35  37
ENDBRANCH  33  34
BRANCH  33  52
ATOM     52  CB  LEU A   3      -1.960   7.768   0.000  0.00  0.00    +0.000 C 
BRANCH  52  53
ATOM     53  CG  LEU A   3      -1.960   8.593   0.000  0.00  0.00    +0.000 C 
ATOM     54  CD1 LEU A   3      -2.674   9.005   0.000  0.00  0.00    +0.000 C 
ATOM     55  CD2 LEU A   3      -1.245   9.005   0.000  0.00  0.00    +0.000 C 
ENDBRANCH  52  53
ENDBRANCH  33  52
ENDBRANCH  31  33
ENDBRANCH  29  30
BRANCH  29  56
ATOM     56  CB  LEU A   4       0.184   7.355   0.000  0.00  0.00    +0.000 C 
BRANCH  56  57
ATOM     57  CG  LEU A   4       0.898   7.768   0.000  0.00  0.00    +0.000 C 
ATOM     58  CD1 LEU A   4       1.613   7.355   0.000  0.00  0.00    +0.000 C 
ATOM     59  CD2 LEU A   4       0.898   8.593   0.000  0.00  0.00    +0.000 C 
ENDBRANCH  56  57
ENDBRANCH  29  56
ENDBRANCH  27  29
ENDBRANCH  25  26
BRANCH  25  60
ATOM     60  CB  LEU A   5      -0.531   5.293   0.000  0.00  0.00    +0.000 C 
BRANCH  60  61
ATOM     61  CG  LEU A   5      -1.245   4.880   0.000  0.00  0.00    +0.000 C 
ATOM     62  CD1 LEU A   5      -1.960   5.293   0.000  0.00  0.00    +0.000 C 
ATOM     63  CD2 LEU A   5      -1.245   4.055   0.000  0.00  0.00    +0.000 C 
ENDBRANCH  60  61
ENDBRANCH  25  60
ENDBRANCH  23  25
ENDBRANCH  21  22
BRANCH  21  64
ATOM     64  CB  LYS A   6       2.562   2.442   0.000  0.00  0.00    +0.000 C 
BRANCH  64  65
ATOM     65  CG  LYS A   6       3.387   2.423   0.000  0.00  0.00    +0.000 C 
BRANCH  65  66
ATOM     66  CD  LYS A   6       3.815   3.124   0.000  0.00  0.00    +0.000 C 
BRANCH  66  67
ATOM     67  CE  LYS A   6       4.640   3.100   0.000  0.00  0.00    +0.000 C 
ATOM     68  NZ  LYS A   6       5.036   2.384   0.000  0.00  0.00    +0.000 NA
ENDBRANCH  66  67
ENDBRANCH  65  66
ENDBRANCH  64  65
ENDBRANCH  21  64
ENDBRANCH  19  21
ENDBRANCH  17  18
BRANCH  17  69
ATOM     69  CB  LEU A   7       3.299   5.695   0.000  0.00  0.00    +0.000 C 
BRANCH  69  70
ATOM     70  CG  LEU A   7       3.712   6.410   0.000  0.00  0.00    +0.000 C 
ATOM     71  CD1 LEU A   7       3.299   7.124   0.000  0.00  0.00    +0.000 C 
ATOM     72  CD2 LEU A   7       4.537   6.410   0.000  0.00  0.00    +0.000 C 
ENDBRANCH  69  70
ENDBRANCH  17  69
ENDBRANCH  15  17
ENDBRANCH  13  14
BRANCH  13  73
ATOM     73  CB  LEU A   8       6.186   4.981   0.000  0.00  0.00    +0.000 C 
BRANCH  73  74
ATOM     74  CG  LEU A   8       7.011   4.981   0.000  0.00  0.00    +0.000 C 
ATOM     75  CD1 LEU A   8       7.424   4.266   0.000  0.00  0.00    +0.000 C 
ATOM     76  CD2 LEU A   8       7.424   5.695   0.000  0.00  0.00    +0.000 C 
ENDBRANCH  73  74
ENDBRANCH  13  73
ENDBRANCH  11  13
ENDBRANCH   9  10
BRANCH   9  77
ATOM     77  CB  LEU A   9       7.011   2.124   0.000  0.00  0.00    +0.000 C 
BRANCH  77  78
ATOM     78  CG  LEU A   9       7.424   1.409   0.000  0.00  0.00    +0.000 C 
ATOM     79  CD1 LEU A   9       7.011   0.699   0.000  0.00  0.00    +0.000 C 
ATOM     80  CD2 LEU A   9       8.249   1.409   0.000  0.00  0.00    +0.000 C 
ENDBRANCH  77  78
ENDBRANCH   9  77
ENDBRANCH   7   9
ENDBRANCH   5   6
BRANCH   5  81
ATOM     81  CB  LEU A  10       3.712   0.699   0.000  0.00  0.00    +0.000 C 
BRANCH  81  82
ATOM     82  CG  LEU A  10       3.299  -0.017   0.000  0.00  0.00    +0.000 C 
ATOM     83  CD1 LEU A  10       3.712  -0.733   0.000  0.00  0.00    +0.000 C 
ATOM     84  CD2 LEU A  10       2.474  -0.017   0.000  0.00  0.00    +0.000 C 
ENDBRANCH  81  82
ENDBRANCH   5  81
ENDBRANCH   3   5
ENDBRANCH   1   2
BRANCH   1  86
ATOM     85  N   LEU A  12       4.949  -1.448   0.000  0.00  0.00    +0.000 NA
ATOM     86  C   LYS A  11       5.774  -1.448   0.000  0.00  0.00    +0.000 C 
ATOM     87  O   LYS A  11       6.186  -2.164   0.000  0.00  0.00    +0.000 OA
BRANCH  85  88
ATOM     88  CA  LEU A  12       4.537  -2.164   0.000  0.00  0.00    +0.000 C 
BRANCH  88  90
ATOM     89  N   LEU A  13       3.299  -1.448   0.000  0.00  0.00    +0.000 NA
ATOM     90  C   LEU A  12       3.712  -2.164   0.000  0.00  0.00    +0.000 C 
ATOM     91  O   LEU A  12       3.299  -2.874   0.000  0.00  0.00    +0.000 OA
BRANCH  89  92
ATOM     92  CA  LEU A  13       2.474  -1.448   0.000  0.00  0.00    +0.000 C 
BRANCH  92  94
ATOM     93  N   LEU A  14       1.236  -2.164   0.000  0.00  0.00    +0.000 NA
ATOM     94  C   LEU A  13       2.061  -2.164   0.000  0.00  0.00    +0.000 C 
ATOM     95  O   LEU A  13       2.474  -2.874   0.000  0.00  0.00    +0.000 OA
BRANCH  93  96
ATOM     96  CA  LEU A  14       0.824  -2.874   0.000  0.00  0.00    +0.000 C 
BRANCH  96  98
ATOM     97  N   LEU A  15      -0.413  -3.593   0.000  0.00  0.00    +0.000 NA
ATOM     98  C   LEU A  14      -0.001  -2.874   0.000  0.00  0.00    +0.000 C 
ATOM     99  O   LEU A  14      -0.413  -2.164   0.000  0.00  0.00    +0.000 OA
BRANCH  97 100
ATOM    100  CA  LEU A  15      -1.238  -3.593   0.000  0.00  0.00    +0.000 C 
BRANCH 100 102
ATOM    101  N   LYS A  16      -2.476  -4.307   0.000  0.00  0.00    +0.000 NA
ATOM    102  C   LEU A  15      -1.651  -4.307   0.000  0.00  0.00    +0.000 C 
ATOM    103  O   LEU A  15      -1.238  -5.022   0.000  0.00  0.00    +0.000 OA
BRANCH 101 104
ATOM    104  CA  LYS A  16      -2.889  -3.593   0.000  0.00  0.00    +0.000 C 
BRANCH 104 106
ATOM    105  N   LEU A  17      -4.126  -4.307   0.000  0.00  0.00    +0.000 NA
ATOM    106  C   LYS A  16      -3.714  -3.593   0.000  0.00  0.00    +0.000 C 
ATOM    107  O   LYS A  16      -4.126  -2.874   0.000  0.00  0.00    +0.000 OA
BRANCH 105 108
ATOM    108  CA  LEU A  17      -3.714  -5.022   0.000  0.00  0.00    +0.000 C 
BRANCH 108 110
ATOM    109  N   LEU A  18      -4.951  -5.736   0.000  0.00  0.00    +0.000 NA
ATOM    110  C   LEU A  17      -4.126  -5.736   0.000  0.00  0.00    +0.000 C 
ATOM    111  O   LEU A  17      -3.714  -6.451   0.000  0.00  0.00    +0.000 OA
BRANCH 109 112
ATOM    112  CA  LEU A  18      -5.364  -5.022   0.000  0.00  0.00    +0.000 C 
BRANCH 112 114
ATOM    113  N   LEU A  19      -6.601  -5.736   0.000  0.00  0.00    +0.000 NA
ATOM    114  C   LEU A  18      -6.189  -5.022   0.000  0.00  0.00    +0.000 C 
ATOM    115  O   LEU A  18      -6.601  -4.307   0.000  0.00  0.00    +0.000 OA
BRANCH 113 116
ATOM    116  CA  LEU A  19      -6.189  -6.451   0.000  0.00  0.00    +0.000 C 
BRANCH 116 118
ATOM    117  N   LEU A  20      -6.189  -7.880   0.000  0.00  0.00    +0.000 NA
ATOM    118  C   LEU A  19      -6.601  -7.165   0.000  0.00  0.00    +0.000 C 
ATOM    119  O   LEU A  19      -7.424  -7.165   0.000  0.00  0.00    +0.000 OA
BRANCH 117 120
ATOM    120  CA  LEU A  20      -6.601  -8.594   0.000  0.00  0.00    +0.000 C 
BRANCH 120 122
ATOM    121  N   LYS A  21      -5.364  -9.309   0.000  0.00  0.00    +0.000 NA
ATOM    122  C   LEU A  20      -6.189  -9.309   0.000  0.00  0.00    +0.000 C 
ATOM    123  O   LEU A  20      -6.601 -10.023   0.000  0.00  0.00    +0.000 OA
BRANCH 121 124
ATOM    124  CA  LYS A  21      -4.951 -10.023   0.000  0.00  0.00    +0.000 C 
BRANCH 124 125
ATOM    125  C   LYS A  21      -4.126 -10.023   0.000  0.00  0.00    +0.000 C 
ATOM    126  O   LYS A  21      -3.714  -9.309   0.000  0.00  0.00    +0.000 OA
ATOM    127  OXT LYS A  21      -3.714 -10.738   0.000  0.00  0.00    +0.000 OA
ENDBRANCH 124 125
BRANCH 124 128
ATOM    128  CB  LYS A  21      -5.364 -10.738   0.000  0.00  0.00    +0.000 C 
BRANCH 128 129
ATOM    129  CG  LYS A  21      -4.951 -11.452   0.000  0.00  0.00    +0.000 C 
BRANCH 129 130
ATOM    130  CD  LYS A  21      -4.126 -11.452   0.000  0.00  0.00    +0.000 C 
BRANCH 130 131
ATOM    131  CE  LYS A  21      -3.714 -12.167   0.000  0.00  0.00    +0.000 C 
ATOM    132  NZ  LYS A  21      -2.889 -12.167   0.000  0.00  0.00    +0.000 NA
ENDBRANCH 130 131
ENDBRANCH 129 130
ENDBRANCH 128 129
ENDBRANCH 124 128
ENDBRANCH 121 124
ENDBRANCH 120 122
BRANCH 120 133
ATOM    133  CB  LEU A  20      -7.424  -8.594   0.000  0.00  0.00    +0.000 C 
BRANCH 133 134
ATOM    134  CG  LEU A  20      -7.837  -9.309   0.000  0.00  0.00    +0.000 C 
ATOM    135  CD1 LEU A  20      -7.424 -10.023   0.000  0.00  0.00    +0.000 C 
ATOM    136  CD2 LEU A  20      -8.662  -9.309   0.000  0.00  0.00    +0.000 C 
ENDBRANCH 133 134
ENDBRANCH 120 133
ENDBRANCH 117 120
ENDBRANCH 116 118
BRANCH 116 137
ATOM    137  CB  LEU A  19      -5.014  -6.451   0.000  0.00  0.00    +0.000 C 
BRANCH 137 138
ATOM    138  CG  LEU A  19      -4.602  -7.165   0.000  0.00  0.00    +0.000 C 
ATOM    139  CD1 LEU A  19      -3.777  -7.165   0.000  0.00  0.00    +0.000 C 
ATOM    140  CD2 LEU A  19      -5.014  -7.880   0.000  0.00  0.00    +0.000 C 
ENDBRANCH 137 138
ENDBRANCH 116 137
ENDBRANCH 113 116
ENDBRANCH 112 114
BRANCH 112 141
ATOM    141  CB  LEU A  18      -4.951  -4.307   0.000  0.00  0.00    +0.000 C 
BRANCH 141 142
ATOM    142  CG  LEU A  18      -5.364  -3.593   0.000  0.00  0.00    +0.000 C 
ATOM    143  CD1 LEU A  18      -6.189  -3.593   0.000  0.00  0.00    +0.000 C 
ATOM    144  CD2 LEU A  18      -4.951  -2.874   0.000  0.00  0.00    +0.000 C 
ENDBRANCH 141 142
ENDBRANCH 112 141
ENDBRANCH 109 112
ENDBRANCH 108 110
BRANCH 108 145
ATOM    145  CB  LEU A  17      -2.889  -5.022   0.000  0.00  0.00    +0.000 C 
BRANCH 145 146
ATOM    146  CG  LEU A  17      -2.292  -6.006   0.000  0.00  0.00    +0.000 C 
ATOM    147  CD1 LEU A  17      -2.704  -6.720   0.000  0.00  0.00    +0.000 C 
ATOM    148  CD2 LEU A  17      -1.467  -6.006   0.000  0.00  0.00    +0.000 C 
ENDBRANCH 145 146
ENDBRANCH 108 145
ENDBRANCH 105 108
ENDBRANCH 104 106
BRANCH 104 149
ATOM    149  CB  LYS A  16      -2.476  -2.874   0.000  0.00  0.00    +0.000 C 
BRANCH 149 150
ATOM    150  CG  LYS A  16      -2.889  -2.164   0.000  0.00  0.00    +0.000 C 
BRANCH 150 151
ATOM    151  CD  LYS A  16      -3.714  -2.164   0.000  0.00  0.00    +0.000 C 
BRANCH 151 152
ATOM    152  CE  LYS A  16      -4.126  -1.448   0.000  0.00  0.00    +0.000 C 
ATOM    153  NZ  LYS A  16      -4.951  -1.448   0.000  0.00  0.00    +0.000 NA
ENDBRANCH 151 152
ENDBRANCH 150 151
ENDBRANCH 149 150
ENDBRANCH 104 149
ENDBRANCH 101 104
ENDBRANCH 100 102
BRANCH 100 154
ATOM    154  CB  LEU A  15      -2.102  -1.884   0.000  0.00  0.00    +0.000 C 
BRANCH 154 155
ATOM    155  CG  LEU A  15      -1.690  -1.174   0.000  0.00  0.00    +0.000 C 
ATOM    156  CD1 LEU A  15      -0.865  -1.174   0.000  0.00  0.00    +0.000 C 
ATOM    157  CD2 LEU A  15      -2.102  -0.458   0.000  0.00  0.00    +0.000 C 
ENDBRANCH 154 155
ENDBRANCH 100 154
ENDBRANCH  97 100
ENDBRANCH  96  98
BRANCH  96 158
ATOM    158  CB  LEU A  14       1.236  -3.593   0.000  0.00  0.00    +0.000 C 
BRANCH 158 159
ATOM    159  CG  LEU A  14       0.824  -4.307   0.000  0.00  0.00    +0.000 C 
ATOM    160  CD1 LEU A  14      -0.001  -4.307   0.000  0.00  0.00    +0.000 C 
ATOM    161  CD2 LEU A  14       1.236  -5.022   0.000  0.00  0.00    +0.000 C 
ENDBRANCH 158 159
ENDBRANCH  96 158
ENDBRANCH  93  96
ENDBRANCH  92  94
BRANCH  92 162
ATOM    162  CB  LEU A  13       2.061  -0.733   0.000  0.00  0.00    +0.000 C 
BRANCH 162 163
ATOM    163  CG  LEU A  13       1.236  -0.733   0.000  0.00  0.00    +0.000 C 
ATOM    164  CD1 LEU A  13       0.824  -1.448   0.000  0.00  0.00    +0.000 C 
ATOM    165  CD2 LEU A  13       0.824  -0.017   0.000  0.00  0.00    +0.000 C 
ENDBRANCH 162 163
ENDBRANCH  92 162
ENDBRANCH  89  92
ENDBRANCH  88  90
BRANCH  88 166
ATOM    166  CB  LEU A  12       4.949  -2.874   0.000  0.00  0.00    +0.000 C 
BRANCH 166 167
ATOM    167  CG  LEU A  12       4.537  -3.593   0.000  0.00  0.00    +0.000 C 
ATOM    168  CD1 LEU A  12       3.712  -3.593   0.000  0.00  0.00    +0.000 C 
ATOM    169  CD2 LEU A  12       4.949  -4.307   0.000  0.00  0.00    +0.000 C 
ENDBRANCH 166 167
ENDBRANCH  88 166
ENDBRANCH  85  88
ENDBRANCH   1  86
BRANCH   1 170
ATOM    170  CB  LYS A  11       7.011  -0.733   0.000  0.00  0.00    +0.000 C 
BRANCH 170 171
ATOM    171  CG  LYS A  11       7.424  -1.448   0.000  0.00  0.00    +0.000 C 
BRANCH 171 172
ATOM    172  CD  LYS A  11       8.249  -1.448   0.000  0.00  0.00    +0.000 C 
BRANCH 172 173
ATOM    173  CE  LYS A  11       8.662  -2.164   0.000  0.00  0.00    +0.000 C 
ATOM    174  NZ  LYS A  11       8.249  -2.874   0.000  0.00  0.00    +0.000 NA
ENDBRANCH 172 173
ENDBRANCH 171 172
ENDBRANCH 170 171
ENDBRANCH   1 170
TORSDOF 93
