REMARK  Name = 
REMARK  16 active torsions:
REMARK  status: ('A' for Active; 'I' for Inactive)
REMARK    1  A    between atoms: C_17  and  C_29
REMARK    2  A    between atoms: C_17  and  O_38
REMARK    3  A    between atoms: C_18  and  C_29
REMARK    4  A    between atoms: C_18  and  O_39
REMARK    5  A    between atoms: C_19  and  C_29
REMARK    6  A    between atoms: C_19  and  O_40
REMARK    7  A    between atoms: C_20  and  C_29
REMARK    8  A    between atoms: C_20  and  O_41
REMARK    9  A    between atoms: C_21  and  C_25
REMARK   10  A    between atoms: C_22  and  C_26
REMARK   11  A    between atoms: C_23  and  C_27
REMARK   12  A    between atoms: C_24  and  C_28
REMARK   13  A    between atoms: C_25  and  O_38
REMARK   14  A    between atoms: C_26  and  O_39
REMARK   15  A    between atoms: C_27  and  O_40
REMARK   16  A    between atoms: C_28  and  O_41
REMARK                            x       y       z     vdW  Elec       q    Type
REMARK                         _______ _______ _______ _____ _____    ______ ____
ROOT
ATOM      1  C   UNL     1       2.888  -1.318   0.000  0.00  0.00    +0.000 C 
ENDROOT
BRANCH   1   2
ATOM      2  C   UNL     1       2.173  -0.906   0.000  0.00  0.00    +0.000 C 
BRANCH   2   3
ATOM      3  O   UNL     1       2.173  -0.081   0.000  0.00  0.00    +0.000 OA
BRANCH   3   4
ATOM      4  C   UNL     1       1.459   0.332   0.000  0.00  0.00    +0.000 C 
ATOM      5  O   UNL     1       0.744  -0.081   0.000  0.00  0.00    +0.000 OA
BRANCH   4  10
ATOM      6  C   UNL     1       0.744   2.394   0.000  0.00  0.00    +0.000 A 
ATOM      7  C   UNL     1       0.744   1.569   0.000  0.00  0.00    +0.000 A 
ATOM      8  C   UNL     1       1.459   2.807   0.000  0.00  0.00    +0.000 A 
ATOM      9  C   UNL     1       2.173   1.569   0.000  0.00  0.00    +0.000 A 
ATOM     10  C   UNL     1       1.459   1.157   0.000  0.00  0.00    +0.000 A 
ATOM     11  N   UNL     1       2.173   2.394   0.000  0.00  0.00    +0.000 NA
ENDBRANCH   4  10
ENDBRANCH   3   4
ENDBRANCH   2   3
ENDBRANCH   1   2
BRANCH   1  12
ATOM     12  C   UNL     1       3.300  -0.604   0.000  0.00  0.00    +0.000 C 
BRANCH  12  13
ATOM     13  O   UNL     1       4.125  -0.604   0.000  0.00  0.00    +0.000 OA
BRANCH  13  14
ATOM     14  C   UNL     1       4.537   0.111   0.000  0.00  0.00    +0.000 C 
ATOM     15  O   UNL     1       5.362   0.111   0.000  0.00  0.00    +0.000 OA
BRANCH  14  20
ATOM     16  C   UNL     1       2.888   1.540   0.000  0.00  0.00    +0.000 A 
ATOM     17  C   UNL     1       3.300   0.825   0.000  0.00  0.00    +0.000 A 
ATOM     18  C   UNL     1       3.300   2.254   0.000  0.00  0.00    +0.000 A 
ATOM     19  C   UNL     1       4.537   1.540   0.000  0.00  0.00    +0.000 A 
ATOM     20  C   UNL     1       4.125   0.825   0.000  0.00  0.00    +0.000 A 
ATOM     21  N   UNL     1       4.125   2.254   0.000  0.00  0.00    +0.000 NA
ENDBRANCH  14  20
ENDBRANCH  13  14
ENDBRANCH  12  13
ENDBRANCH   1  12
BRANCH   1  22
ATOM     22  C   UNL     1       2.475  -2.033   0.000  0.00  0.00    +0.000 C 
BRANCH  22  23
ATOM     23  O   UNL     1       1.650  -2.033   0.000  0.00  0.00    +0.000 OA
BRANCH  23  24
ATOM     24  C   UNL     1       1.238  -2.747   0.000  0.00  0.00    +0.000 C 
ATOM     25  O   UNL     1       0.412  -2.747   0.000  0.00  0.00    +0.000 OA
BRANCH  24  30
ATOM     26  C   UNL     1       2.888  -4.176   0.000  0.00  0.00    +0.000 A 
ATOM     27  C   UNL     1       2.475  -3.462   0.000  0.00  0.00    +0.000 A 
ATOM     28  C   UNL     1       2.475  -4.891   0.000  0.00  0.00    +0.000 A 
ATOM     29  C   UNL     1       1.238  -4.176   0.000  0.00  0.00    +0.000 A 
ATOM     30  C   UNL     1       1.650  -3.462   0.000  0.00  0.00    +0.000 A 
ATOM     31  N   UNL     1       1.650  -4.891   0.000  0.00  0.00    +0.000 NA
ENDBRANCH  24  30
ENDBRANCH  23  24
ENDBRANCH  22  23
ENDBRANCH   1  22
BRANCH   1  32
ATOM     32  C   UNL     1       3.602  -1.731   0.000  0.00  0.00    +0.000 C 
BRANCH  32  33
ATOM     33  O   UNL     1       3.602  -2.556   0.000  0.00  0.00    +0.000 OA
BRANCH  33  34
ATOM     34  C   UNL     1       4.316  -2.968   0.000  0.00  0.00    +0.000 C 
ATOM     35  O   UNL     1       5.031  -2.556   0.000  0.00  0.00    +0.000 OA
BRANCH  34  40
ATOM     36  C   UNL     1       5.031  -5.031   0.000  0.00  0.00    +0.000 A 
ATOM     37  C   UNL     1       5.031  -4.206   0.000  0.00  0.00    +0.000 A 
ATOM     38  C   UNL     1       4.316  -5.443   0.000  0.00  0.00    +0.000 A 
ATOM     39  C   UNL     1       3.602  -4.206   0.000  0.00  0.00    +0.000 A 
ATOM     40  C   UNL     1       4.316  -3.793   0.000  0.00  0.00    +0.000 A 
ATOM     41  N   UNL     1       3.602  -5.031   0.000  0.00  0.00    +0.000 NA
ENDBRANCH  34  40
ENDBRANCH  33  34
ENDBRANCH  32  33
ENDBRANCH   1  32
TORSDOF 16
