REMARK  Name = 
REMARK  4 active torsions:
REMARK  status: ('A' for Active; 'I' for Inactive)
REMARK    1  A    between atoms: C_6  and  C_7
REMARK    2  A    between atoms: C_7  and  C_8
REMARK    3  A    between atoms: N_10  and  C_11
REMARK    4  A    between atoms: C_19  and  C_28
REMARK                            x       y       z     vdW  Elec       q    Type
REMARK                         _______ _______ _______ _____ _____    ______ ____
ROOT
ATOM      1  C   UNL     1       1.710  -2.405   0.000  0.00  0.00    +0.000 C 
ATOM      2  C   UNL     1       1.420  -1.633   0.000  0.00  0.00    +0.000 A 
ATOM      3  N   UNL     1       0.625  -1.414   0.000  0.00  0.00    +0.000 NA
ATOM      4  N   UNL     1       0.588  -0.590   0.000  0.00  0.00    +0.000 NA
ATOM      5  C   UNL     1       1.360  -0.300   0.000  0.00  0.00    +0.000 A 
ATOM      6  C   UNL     1       1.544   0.505   0.000  0.00  0.00    +0.000 C 
ATOM      7  N   UNL     1       2.287   0.863   0.000  0.00  0.00    +0.000 NA
ATOM      8  C   UNL     1       3.030   0.505   0.000  0.00  0.00    +0.000 C 
ATOM      9  C   UNL     1       3.214  -0.300   0.000  0.00  0.00    +0.000 A 
ATOM     10  C   UNL     1       2.700  -0.945   0.000  0.00  0.00    +0.000 A 
ATOM     11  S   UNL     1       3.154  -1.633   0.000  0.00  0.00    +0.000 S 
ATOM     12  C   UNL     1       3.949  -1.414   0.000  0.00  0.00    +0.000 A 
ATOM     13  C   UNL     1       4.594  -1.928   0.000  0.00  0.00    +0.000 C 
ATOM     14  C   UNL     1       3.986  -0.590   0.000  0.00  0.00    +0.000 A 
ATOM     15  C   UNL     1       4.675  -0.135   0.000  0.00  0.00    +0.000 C 
ATOM     16  N   UNL     1       1.875  -0.945   0.000  0.00  0.00    +0.000 N 
ENDROOT
BRANCH   8  17
ATOM     17  C   UNL     1       3.675   1.019   0.000  0.00  0.00    +0.000 A 
ATOM     18  C   UNL     1       3.552   1.835   0.000  0.00  0.00    +0.000 A 
ATOM     19  C   UNL     1       4.197   2.349   0.000  0.00  0.00    +0.000 A 
ATOM     20  C   UNL     1       4.965   2.048   0.000  0.00  0.00    +0.000 A 
ATOM     21 CL   UNL     1       5.610   2.562   0.000  0.00  0.00    +0.000 Cl
ATOM     22  C   UNL     1       5.088   1.232   0.000  0.00  0.00    +0.000 A 
ATOM     23  C   UNL     1       4.443   0.718   0.000  0.00  0.00    +0.000 A 
ENDBRANCH   8  17
BRANCH   6  24
ATOM     24  C   UNL     1       0.899   1.019   0.000  0.00  0.00    +0.000 C 
BRANCH  24  25
ATOM     25  C   UNL     1       0.131   0.718   0.000  0.00  0.00    +0.000 C 
ATOM     26  O   UNL     1       0.008  -0.098   0.000  0.00  0.00    +0.000 OA
ATOM     27  N   UNL     1      -0.514   1.232   0.000  0.00  0.00    +0.000 NA
BRANCH  27  28
ATOM     28  C   UNL     1      -1.282   0.931   0.000  0.00  0.00    +0.000 A 
ATOM     29  C   UNL     1      -1.405   0.115   0.000  0.00  0.00    +0.000 A 
ATOM     30  C   UNL     1      -2.173  -0.186   0.000  0.00  0.00    +0.000 A 
ATOM     31  C   UNL     1      -2.818   0.328   0.000  0.00  0.00    +0.000 A 
ATOM     32  O   UNL     1      -3.586   0.026   0.000  0.00  0.00    +0.000 OA
ATOM     33  C   UNL     1      -2.695   1.144   0.000  0.00  0.00    +0.000 A 
ATOM     34  C   UNL     1      -1.927   1.445   0.000  0.00  0.00    +0.000 A 
ENDBRANCH  27  28
ENDBRANCH  24  25
ENDBRANCH   6  24
TORSDOF 4
