REMARK  Name = 
REMARK  5 active torsions:
REMARK  status: ('A' for Active; 'I' for Inactive)
REMARK    1  A    between atoms: C_2  and  C_3
REMARK    2  A    between atoms: C_2  and  N_6
REMARK    3  A    between atoms: N_6  and  C_7
REMARK    4  A    between atoms: C_7  and  C_8
REMARK    5  A    between atoms: C_8  and  C_10
REMARK                            x       y       z     vdW  Elec       q    Type
REMARK                         _______ _______ _______ _____ _____    ______ ____
ROOT
ATOM      1  C   UNL     1      -0.690   0.412   0.000  0.00  0.00    +0.000 C 
ATOM      2  O   UNL     1      -0.690   1.238   0.000  0.00  0.00    +0.000 OA
ENDROOT
BRANCH   1   3
ATOM      3  C   UNL     1      -1.405   0.000   0.000  0.00  0.00    +0.000 A 
ATOM      4  C   UNL     1      -2.119   0.412   0.000  0.00  0.00    +0.000 A 
ATOM      5  C   UNL     1      -2.833  -0.000   0.000  0.00  0.00    +0.000 A 
ATOM      6  C   UNL     1      -2.833  -0.825   0.000  0.00  0.00    +0.000 A 
ATOM      7  C   UNL     1      -2.119  -1.238   0.000  0.00  0.00    +0.000 A 
ATOM      8  C   UNL     1      -1.405  -0.825   0.000  0.00  0.00    +0.000 A 
ENDBRANCH   1   3
BRANCH   1   9
ATOM      9  C   UNL     1       0.024   0.000   0.000  0.00  0.00    +0.000 C 
BRANCH   9  10
ATOM     10  N   UNL     1       0.739   0.413   0.000  0.00  0.00    +0.000 NA
BRANCH  10  12
ATOM     11  C   UNL     1       2.085  -0.530   0.000  0.00  0.00    +0.000 C 
ATOM     12  C   UNL     1       1.453   0.000   0.000  0.00  0.00    +0.000 C 
ATOM     13  C   UNL     1       0.980  -0.675   0.000  0.00  0.00    +0.000 C 
BRANCH  12  14
ATOM     14  C   UNL     1       2.037   0.584   0.000  0.00  0.00    +0.000 C 
ATOM     15  O   UNL     1       2.833   0.370   0.000  0.00  0.00    +0.000 OA
ENDBRANCH  12  14
ENDBRANCH  10  12
ENDBRANCH   9  10
ENDBRANCH   1   9
TORSDOF 5
