REMARK  Name = 
REMARK  7 active torsions:
REMARK  status: ('A' for Active; 'I' for Inactive)
REMARK    1  A    between atoms: C_5  and  C_6
REMARK    2  A    between atoms: C_6  and  C_7
REMARK    3  A    between atoms: N_8  and  CA_10
REMARK    4  A    between atoms: CA_13  and  C_21
REMARK    5  A    between atoms: C_16  and  C_17
REMARK    6  A    between atoms: C_17  and  O_18
REMARK    7  A    between atoms: O_18  and  C_19
REMARK                            x       y       z     vdW  Elec       q    Type
REMARK                         _______ _______ _______ _____ _____    ______ ____
ROOT
ATOM      1  C   UNL     1      -0.418  -0.099   0.000  0.00  0.00    +0.000 C 
ATOM      2  CA  UNL     1      -0.418   0.726   0.000  0.00  0.00    +0.000 C 
ATOM      3  N   UNL     1       0.407  -0.099   0.000  0.00  0.00    +0.000 N 
ATOM      4  C   UNL     1       0.407   0.726   0.000  0.00  0.00    +0.000 C 
ATOM      5  CA  UNL     1       1.121  -0.512   0.000  0.00  0.00    +0.000 C 
ATOM      6  S   UNL     1       1.121   1.138   0.000  0.00  0.00    +0.000 S 
ATOM      7  C   UNL     1       1.835   0.726   0.000  0.00  0.00    +0.000 C 
ATOM      8  C   UNL     1       1.835  -0.099   0.000  0.00  0.00    +0.000 C 
ATOM      9  O   UNL     1      -1.002  -0.683   0.000  0.00  0.00    +0.000 OA
ENDROOT
BRANCH   2  11
ATOM     10  C   UNL     1      -1.930   0.924   0.000  0.00  0.00    +0.000 C 
ATOM     11  N   UNL     1      -1.215   0.512   0.000  0.00  0.00    +0.000 NA
ATOM     12  O   UNL     1      -1.930   1.749   0.000  0.00  0.00    +0.000 OA
BRANCH  10  13
ATOM     13  C   UNL     1      -2.644   0.512   0.000  0.00  0.00    +0.000 C 
BRANCH  13  18
ATOM     14  S   UNL     1      -4.026   0.440   0.000  0.00  0.00    +0.000 S 
ATOM     15  C   UNL     1      -4.694   0.924   0.000  0.00  0.00    +0.000 A 
ATOM     16  C   UNL     1      -4.439   1.709   0.000  0.00  0.00    +0.000 A 
ATOM     17  C   UNL     1      -3.614   1.709   0.000  0.00  0.00    +0.000 A 
ATOM     18  C   UNL     1      -3.359   0.924   0.000  0.00  0.00    +0.000 A 
ENDBRANCH  13  18
ENDBRANCH  10  13
ENDBRANCH   2  11
BRANCH   5  19
ATOM     19  C   UNL     1       1.121  -1.337   0.000  0.00  0.00    +0.000 C 
ATOM     20  O   UNL     1       0.407  -1.749   0.000  0.00  0.00    +0.000 OA
ATOM     21  OXT UNL     1       1.835  -1.749   0.000  0.00  0.00    +0.000 OA
ENDBRANCH   5  19
BRANCH   8  22
ATOM     22  C   UNL     1       2.550  -0.512   0.000  0.00  0.00    +0.000 C 
BRANCH  22  23
ATOM     23  O   UNL     1       3.264  -0.099   0.000  0.00  0.00    +0.000 OA
BRANCH  23  24
ATOM     24  C   UNL     1       3.979  -0.512   0.000  0.00  0.00    +0.000 C 
ATOM     25  C   UNL     1       4.693  -0.099   0.000  0.00  0.00    +0.000 C 
ATOM     26  O   UNL     1       3.979  -1.337   0.000  0.00  0.00    +0.000 OA
ENDBRANCH  23  24
ENDBRANCH  22  23
ENDBRANCH   8  22
TORSDOF 7
