REMARK  Name = 
REMARK  4 active torsions:
REMARK  status: ('A' for Active; 'I' for Inactive)
REMARK    1  A    between atoms: C_2  and  S_15
REMARK    2  A    between atoms: C_11  and  O_12
REMARK    3  A    between atoms: S_15  and  C_16
REMARK    4  A    between atoms: C_16  and  C_18
REMARK                            x       y       z     vdW  Elec       q    Type
REMARK                         _______ _______ _______ _____ _____    ______ ____
ROOT
ATOM      1  C   UNL     1      -1.158   0.523   0.000  0.00  0.00    +0.000 A 
ATOM      2  C   UNL     1      -1.158  -0.302   0.000  0.00  0.00    +0.000 A 
ATOM      3  C   UNL     1      -0.443  -0.715   0.000  0.00  0.00    +0.000 A 
ATOM      4  C   UNL     1      -0.443   0.936   0.000  0.00  0.00    +0.000 A 
ATOM      5  C   UNL     1       0.271   0.523   0.000  0.00  0.00    +0.000 A 
ATOM      6  C   UNL     1       0.271  -0.302   0.000  0.00  0.00    +0.000 A 
ATOM      7  N   UNL     1       1.056  -0.557   0.000  0.00  0.00    +0.000 NA
ATOM      8  C   UNL     1       1.541   0.111   0.000  0.00  0.00    +0.000 A 
ATOM      9  N   UNL     1       1.056   0.778   0.000  0.00  0.00    +0.000 NA
ATOM     10  N   UNL     1       2.366   0.111   0.000  0.00  0.00    +0.000 NA
ATOM     11  C   UNL     1       2.778   0.825   0.000  0.00  0.00    +0.000 C 
ATOM     12  O   UNL     1       2.366   1.540   0.000  0.00  0.00    +0.000 OA
ENDROOT
BRANCH  11  13
ATOM     13  O   UNL     1       3.603   0.825   0.000  0.00  0.00    +0.000 OA
ATOM     14  C   UNL     1       4.016   1.540   0.000  0.00  0.00    +0.000 C 
ENDBRANCH  11  13
BRANCH   2  15
ATOM     15  S   UNL     1      -1.872  -0.715   0.000  0.00  0.00    +0.000 S 
ATOM     16  O   UNL     1      -1.872  -1.540   0.000  0.00  0.00    +0.000 OA
BRANCH  15  17
ATOM     17  C   UNL     1      -2.587  -0.302   0.000  0.00  0.00    +0.000 C 
BRANCH  17  18
ATOM     18  C   UNL     1      -3.301  -0.715   0.000  0.00  0.00    +0.000 C 
ATOM     19  C   UNL     1      -4.016  -0.302   0.000  0.00  0.00    +0.000 C 
ENDBRANCH  17  18
ENDBRANCH  15  17
ENDBRANCH   2  15
TORSDOF 4
