REMARK  Name = 
REMARK  8 active torsions:
REMARK  status: ('A' for Active; 'I' for Inactive)
REMARK    1  A    between atoms: S_1  and  C_11
REMARK    2  A    between atoms: N_7  and  C_13
REMARK    3  A    between atoms: N_8  and  CA_12
REMARK    4  A    between atoms: N_8  and  C_17
REMARK    5  A    between atoms: C_11  and  CA_12
REMARK    6  A    between atoms: C_11  and  C_13
REMARK    7  A    between atoms: CA_12  and  C_15
REMARK    8  A    between atoms: C_19  and  C_20
REMARK                            x       y       z     vdW  Elec       q    Type
REMARK                         _______ _______ _______ _____ _____    ______ ____
ROOT
ATOM      1  C   UNL     1       0.579   0.396   0.000  0.00  0.00    +0.000 C 
ATOM      2  C   UNL     1       0.166   1.110   0.000  0.00  0.00    +0.000 C 
ENDROOT
BRANCH   1   3
ATOM      3  S   UNL     1       1.293  -0.017   0.000  0.00  0.00    +0.000 S 
ATOM      4  O   UNL     1       2.008   0.396   0.000  0.00  0.00    +0.000 OA
ATOM      5  O   UNL     1       1.293  -0.842   0.000  0.00  0.00    +0.000 OA
ENDBRANCH   1   3
BRANCH   1   6
ATOM      6  CA  UNL     1      -0.136  -0.017   0.000  0.00  0.00    +0.000 C 
BRANCH   6   9
ATOM      7  O   UNL     1      -1.565  -0.017   0.000  0.00  0.00    +0.000 OA
ATOM      8  OXT UNL     1      -0.850   1.221   0.000  0.00  0.00    +0.000 OA
ATOM      9  C   UNL     1      -0.850   0.396   0.000  0.00  0.00    +0.000 C 
ENDBRANCH   6   9
BRANCH   6  10
ATOM     10  N   UNL     1      -0.136  -0.842   0.000  0.00  0.00    +0.000 NA
BRANCH  10  11
ATOM     11  C   UNL     1      -0.850  -1.254   0.000  0.00  0.00    +0.000 C 
ATOM     12  C   UNL     1      -0.850  -2.079   0.000  0.00  0.00    +0.000 C 
BRANCH  12  14
ATOM     13  O   UNL     1      -0.136  -3.317   0.000  0.00  0.00    +0.000 OA
ATOM     14  C   UNL     1      -0.136  -2.492   0.000  0.00  0.00    +0.000 C 
ENDBRANCH  12  14
ENDBRANCH  10  11
ENDBRANCH   6  10
ENDBRANCH   1   6
BRANCH   1  15
ATOM     15  C   UNL     1       1.293   0.808   0.000  0.00  0.00    +0.000 C 
BRANCH  15  16
ATOM     16  N   UNL     1       1.293   1.633   0.000  0.00  0.00    +0.000 N 
ATOM     17  N   UNL     1       1.961   2.118   0.000  0.00  0.00    +0.000 NA
ATOM     18  N   UNL     1       1.706   2.903   0.000  0.00  0.00    +0.000 NA
ATOM     19  C   UNL     1       0.626   2.118   0.000  0.00  0.00    +0.000 A 
ATOM     20  C   UNL     1       0.881   2.903   0.000  0.00  0.00    +0.000 A 
ENDBRANCH  15  16
ENDBRANCH   1  15
TORSDOF 8
