REMARK  Name = 
REMARK  7 active torsions:
REMARK  status: ('A' for Active; 'I' for Inactive)
REMARK    1  A    between atoms: C_2  and  C_3
REMARK    2  A    between atoms: C_4  and  N_5
REMARK    3  A    between atoms: C_9  and  C_14
REMARK    4  A    between atoms: C_10  and  C_12
REMARK    5  A    between atoms: C_23  and  N_29
REMARK    6  A    between atoms: N_32  and  C_33
REMARK    7  A    between atoms: C_33  and  C_34
REMARK                            x       y       z     vdW  Elec       q    Type
REMARK                         _______ _______ _______ _____ _____    ______ ____
ROOT
ATOM      1  C   UNL     1       0.654  -0.698   0.000  0.00  0.00    +0.000 A 
ATOM      2  C   UNL     1       1.139  -0.030   0.000  0.00  0.00    +0.000 A 
ATOM      3  N   UNL     1       1.923  -0.285   0.000  0.00  0.00    +0.000 N 
ATOM      4  C   UNL     1       2.638   0.127   0.000  0.00  0.00    +0.000 A 
ATOM      5  C   UNL     1       3.352  -0.285   0.000  0.00  0.00    +0.000 A 
ATOM      6  C   UNL     1       3.352  -1.110   0.000  0.00  0.00    +0.000 A 
ATOM      7  C   UNL     1       2.638  -1.523   0.000  0.00  0.00    +0.000 A 
ATOM      8  C   UNL     1       2.638  -2.348   0.000  0.00  0.00    +0.000 C 
ATOM      9  C   UNL     1       1.923  -1.110   0.000  0.00  0.00    +0.000 A 
ATOM     10  N   UNL     1       1.139  -1.365   0.000  0.00  0.00    +0.000 NA
ENDROOT
BRANCH   2  11
ATOM     11  N   UNL     1       0.884   0.754   0.000  0.00  0.00    +0.000 N 
ATOM     12  C   UNL     1       1.436   1.367   0.000  0.00  0.00    +0.000 C 
ATOM     13  C   UNL     1       0.077   0.926   0.000  0.00  0.00    +0.000 A 
ATOM     14  N   UNL     1      -0.536   0.374   0.000  0.00  0.00    +0.000 NA
ATOM     15  C   UNL     1      -1.251   0.786   0.000  0.00  0.00    +0.000 A 
ATOM     16  C   UNL     1      -1.079   1.593   0.000  0.00  0.00    +0.000 A 
ATOM     17  S   UNL     1      -0.259   1.679   0.000  0.00  0.00    +0.000 S 
BRANCH  15  18
ATOM     18  C   UNL     1      -2.004   0.451   0.000  0.00  0.00    +0.000 A 
ATOM     19  C   UNL     1      -2.091  -0.370   0.000  0.00  0.00    +0.000 A 
ATOM     20  C   UNL     1      -2.844  -0.706   0.000  0.00  0.00    +0.000 A 
ATOM     21  C   UNL     1      -3.512  -0.221   0.000  0.00  0.00    +0.000 A 
ATOM     22  F   UNL     1      -4.266  -0.556   0.000  0.00  0.00    +0.000 F 
ATOM     23  C   UNL     1      -3.425   0.600   0.000  0.00  0.00    +0.000 A 
ATOM     24  C   UNL     1      -2.672   0.935   0.000  0.00  0.00    +0.000 A 
ENDBRANCH  15  18
BRANCH  16  25
ATOM     25  C   UNL     1      -1.631   2.206   0.000  0.00  0.00    +0.000 C 
ATOM     26  N   UNL     1      -2.183   2.819   0.000  0.00  0.00    +0.000 NA
ENDBRANCH  16  25
ENDBRANCH   2  11
BRANCH   5  27
ATOM     27  N   UNL     1       4.067   0.127   0.000  0.00  0.00    +0.000 N 
ATOM     28  C   UNL     1       4.067   0.952   0.000  0.00  0.00    +0.000 C 
ATOM     29  C   UNL     1       4.781   1.365   0.000  0.00  0.00    +0.000 C 
ATOM     30  N   UNL     1       5.496   0.952   0.000  0.00  0.00    +0.000 NA
ATOM     31  C   UNL     1       5.496   0.127   0.000  0.00  0.00    +0.000 C 
ATOM     32  C   UNL     1       4.781  -0.285   0.000  0.00  0.00    +0.000 C 
BRANCH  30  33
ATOM     33  C   UNL     1       6.210   1.365   0.000  0.00  0.00    +0.000 C 
BRANCH  33  34
ATOM     34  C   UNL     1       6.210   2.190   0.000  0.00  0.00    +0.000 C 
ATOM     35  O   UNL     1       5.496   2.602   0.000  0.00  0.00    +0.000 OA
ATOM     36  N   UNL     1       6.925   2.602   0.000  0.00  0.00    +0.000 N 
ATOM     37  C   UNL     1       7.138   3.399   0.000  0.00  0.00    +0.000 C 
ATOM     38  C   UNL     1       7.935   3.185   0.000  0.00  0.00    +0.000 C 
ATOM     39  O   UNL     1       8.649   3.598   0.000  0.00  0.00    +0.000 OA
ATOM     40  C   UNL     1       7.721   2.389   0.000  0.00  0.00    +0.000 C 
ENDBRANCH  33  34
ENDBRANCH  30  33
ENDBRANCH   5  27
BRANCH   1  42
ATOM     41  C   UNL     1      -0.584  -1.412   0.000  0.00  0.00    +0.000 C 
ATOM     42  C   UNL     1      -0.171  -0.698   0.000  0.00  0.00    +0.000 C 
ENDBRANCH   1  42
TORSDOF 7
