REMARK  Name = 
REMARK  2 active torsions:
REMARK  status: ('A' for Active; 'I' for Inactive)
REMARK    1  A    between atoms: C_5  and  N_10
REMARK    2  A    between atoms: C_7  and  C_8
REMARK                            x       y       z     vdW  Elec       q    Type
REMARK                         _______ _______ _______ _____ _____    ______ ____
ROOT
ATOM      1  O   UNL     1       1.256  -0.180   0.000  0.00  0.00    +0.000 OA
ATOM      2  C   UNL     1       1.256  -1.005   0.000  0.00  0.00    +0.000 C 
ATOM      3  C   UNL     1       1.924  -1.490   0.000  0.00  0.00    +0.000 C 
ATOM      4  O   UNL     1       2.708  -1.235   0.000  0.00  0.00    +0.000 OA
ATOM      5  C   UNL     1       1.669  -2.275   0.000  0.00  0.00    +0.000 C 
ATOM      6  O   UNL     1       0.844  -2.275   0.000  0.00  0.00    +0.000 OA
ATOM      7  C   UNL     1       0.589  -1.490   0.000  0.00  0.00    +0.000 C 
ENDROOT
BRANCH   5   8
ATOM      8  N   UNL     1       2.154  -2.942   0.000  0.00  0.00    +0.000 N 
ATOM      9  C   UNL     1       2.979  -2.942   0.000  0.00  0.00    +0.000 A 
ATOM     10  C   UNL     1       3.234  -3.727   0.000  0.00  0.00    +0.000 A 
ATOM     11  N   UNL     1       2.566  -4.212   0.000  0.00  0.00    +0.000 NA
ATOM     12  C   UNL     1       1.899  -3.727   0.000  0.00  0.00    +0.000 A 
ATOM     13  N   UNL     1       1.114  -3.982   0.000  0.00  0.00    +0.000 N 
ATOM     14  O   UNL     1       0.943  -4.789   0.000  0.00  0.00    +0.000 OA
ATOM     15  O   UNL     1       0.501  -3.430   0.000  0.00  0.00    +0.000 OA
ENDBRANCH   5   8
BRANCH   7  16
ATOM     16  C   UNL     1      -0.196  -1.235   0.000  0.00  0.00    +0.000 C 
ATOM     17  F   UNL     1      -0.367  -0.428   0.000  0.00  0.00    +0.000 F 
ENDBRANCH   7  16
TORSDOF 2
