REMARK  Name = 
REMARK  12 active torsions:
REMARK  status: ('A' for Active; 'I' for Inactive)
REMARK    1  A    between atoms: O_2  and  C_3
REMARK    2  A    between atoms: C_4  and  N_5
REMARK    3  A    between atoms: C_9  and  C_10
REMARK    4  A    between atoms: C_10  and  O_12
REMARK    5  A    between atoms: O_12  and  C_13
REMARK    6  A    between atoms: C_16  and  C_18
REMARK    7  A    between atoms: C_29  and  N_30
REMARK    8  A    between atoms: C_31  and  C_33
REMARK    9  A    between atoms: C_35  and  N_37
REMARK   10  A    between atoms: N_37  and  C_39
REMARK   11  A    between atoms: C_39  and  C_40
REMARK   12  A    between atoms: C_40  and  N_41
REMARK                            x       y       z     vdW  Elec       q    Type
REMARK                         _______ _______ _______ _____ _____    ______ ____
ROOT
ATOM      1  N   UNL     1       0.451   2.765   0.000  0.00  0.00    +0.000 NA
ATOM      2  C   UNL     1      -0.101   2.152   0.000  0.00  0.00    +0.000 A 
ATOM      3  N   UNL     1      -0.908   2.323   0.000  0.00  0.00    +0.000 NA
ATOM      4  C   UNL     1      -1.460   1.710   0.000  0.00  0.00    +0.000 A 
ATOM      5  C   UNL     1      -1.205   0.926   0.000  0.00  0.00    +0.000 A 
ATOM      6  C   UNL     1      -0.398   0.754   0.000  0.00  0.00    +0.000 A 
ATOM      7  N   UNL     1       0.154   1.367   0.000  0.00  0.00    +0.000 NA
ENDROOT
BRANCH   6   8
ATOM      8  C   UNL     1      -0.143  -0.030   0.000  0.00  0.00    +0.000 A 
ATOM      9  C   UNL     1      -0.628  -0.698   0.000  0.00  0.00    +0.000 A 
ATOM     10  N   UNL     1      -0.143  -1.365   0.000  0.00  0.00    +0.000 N 
ATOM     11  C   UNL     1      -0.398  -2.150   0.000  0.00  0.00    +0.000 C 
ATOM     12  C   UNL     1       0.641  -1.110   0.000  0.00  0.00    +0.000 A 
ATOM     13  C   UNL     1       0.641  -0.285   0.000  0.00  0.00    +0.000 A 
ATOM     14  C   UNL     1       1.356   0.127   0.000  0.00  0.00    +0.000 A 
ATOM     15  C   UNL     1       2.070  -0.285   0.000  0.00  0.00    +0.000 A 
ATOM     16  C   UNL     1       2.070  -1.110   0.000  0.00  0.00    +0.000 A 
ATOM     17  C   UNL     1       1.356  -1.523   0.000  0.00  0.00    +0.000 A 
ENDBRANCH   6   8
BRANCH   1  19
ATOM     18  C   UNL     1       0.748   4.163   0.000  0.00  0.00    +0.000 A 
ATOM     19  C   UNL     1       0.196   3.550   0.000  0.00  0.00    +0.000 A 
ATOM     20  C   UNL     1      -0.611   3.721   0.000  0.00  0.00    +0.000 A 
ATOM     21  C   UNL     1      -0.866   4.506   0.000  0.00  0.00    +0.000 A 
ATOM     22  C   UNL     1      -0.314   5.119   0.000  0.00  0.00    +0.000 A 
ATOM     23  C   UNL     1       0.493   4.947   0.000  0.00  0.00    +0.000 A 
BRANCH  21  24
ATOM     24  N   UNL     1      -1.673   4.677   0.000  0.00  0.00    +0.000 NA
ATOM     25  C   UNL     1      -2.225   4.064   0.000  0.00  0.00    +0.000 C 
ATOM     26  O   UNL     1      -3.032   4.236   0.000  0.00  0.00    +0.000 OA
BRANCH  25  27
ATOM     27  C   UNL     1      -1.970   3.280   0.000  0.00  0.00    +0.000 C 
ATOM     28  C   UNL     1      -2.522   2.666   0.000  0.00  0.00    +0.000 C 
ENDBRANCH  25  27
ENDBRANCH  21  24
BRANCH  18  30
ATOM     29  C   UNL     1       1.810   3.207   0.000  0.00  0.00    +0.000 C 
ATOM     30  O   UNL     1       1.555   3.991   0.000  0.00  0.00    +0.000 OA
ENDBRANCH  18  30
BRANCH  22  31
ATOM     31  N   UNL     1      -0.569   5.903   0.000  0.00  0.00    +0.000 N 
ATOM     32  C   UNL     1      -1.376   6.075   0.000  0.00  0.00    +0.000 C 
BRANCH  31  33
ATOM     33  C   UNL     1      -0.017   6.516   0.000  0.00  0.00    +0.000 C 
BRANCH  33  34
ATOM     34  C   UNL     1      -0.272   7.301   0.000  0.00  0.00    +0.000 C 
BRANCH  34  35
ATOM     35  N   UNL     1       0.280   7.914   0.000  0.00  0.00    +0.000 NA
ATOM     36  C   UNL     1       0.025   8.699   0.000  0.00  0.00    +0.000 C 
ATOM     37  C   UNL     1       1.087   7.743   0.000  0.00  0.00    +0.000 C 
ENDBRANCH  34  35
ENDBRANCH  33  34
ENDBRANCH  31  33
ENDBRANCH  22  31
ENDBRANCH   1  19
BRANCH   5  38
ATOM     38  C   UNL     1      -1.758   0.313   0.000  0.00  0.00    +0.000 C 
ATOM     39  O   UNL     1      -2.564   0.484   0.000  0.00  0.00    +0.000 OA
BRANCH  38  40
ATOM     40  O   UNL     1      -1.502  -0.472   0.000  0.00  0.00    +0.000 OA
BRANCH  40  41
ATOM     41  C   UNL     1      -2.054  -1.085   0.000  0.00  0.00    +0.000 C 
ATOM     42  C   UNL     1      -2.861  -0.914   0.000  0.00  0.00    +0.000 C 
ATOM     43  C   UNL     1      -1.800  -1.870   0.000  0.00  0.00    +0.000 C 
ENDBRANCH  40  41
ENDBRANCH  38  40
ENDBRANCH   5  38
TORSDOF 12
