REMARK  Name = 
REMARK  3 active torsions:
REMARK  status: ('A' for Active; 'I' for Inactive)
REMARK    1  A    between atoms: C_6  and  C_16
REMARK    2  A    between atoms: N_10  and  C_16
REMARK    3  A    between atoms: N_12  and  C_13
REMARK                            x       y       z     vdW  Elec       q    Type
REMARK                         _______ _______ _______ _____ _____    ______ ____
ROOT
ATOM      1  S   UNL     1       2.073  -0.449   0.000  0.00  0.00    +0.000 S 
ATOM      2  C   UNL     1       1.405   0.036   0.000  0.00  0.00    +0.000 C 
ATOM      3  N   UNL     1       0.738  -0.449   0.000  0.00  0.00    +0.000 N 
ATOM      4  C   UNL     1       1.818  -1.233   0.000  0.00  0.00    +0.000 C 
ATOM      5  N   UNL     1       1.405   0.861   0.000  0.00  0.00    +0.000 NA
ATOM      6  C   UNL     1       0.993  -1.233   0.000  0.00  0.00    +0.000 C 
ENDROOT
BRANCH   5   7
ATOM      7  C   UNL     1       2.120   1.274   0.000  0.00  0.00    +0.000 C 
ATOM      8  N   UNL     1       2.834   1.686   0.000  0.00  0.00    +0.000 NA
ENDBRANCH   5   7
BRANCH   3   9
ATOM      9  C   UNL     1       0.023  -0.036   0.000  0.00  0.00    +0.000 C 
BRANCH   9  15
ATOM     10  C   UNL     1      -1.405  -0.036   0.000  0.00  0.00    +0.000 A 
ATOM     11  C   UNL     1      -2.120  -0.449   0.000  0.00  0.00    +0.000 A 
ATOM     12  N   UNL     1      -1.405  -1.686   0.000  0.00  0.00    +0.000 NA
ATOM     13  C   UNL     1      -2.120  -1.274   0.000  0.00  0.00    +0.000 A 
ATOM     14  C   UNL     1      -0.691  -1.274   0.000  0.00  0.00    +0.000 A 
ATOM     15  C   UNL     1      -0.691  -0.449   0.000  0.00  0.00    +0.000 A 
ATOM     16 CL   UNL     1      -2.834  -1.686   0.000  0.00  0.00    +0.000 Cl
ENDBRANCH   9  15
ENDBRANCH   3   9
TORSDOF 3
