REMARK  Name = 
REMARK  12 active torsions:
REMARK  status: ('A' for Active; 'I' for Inactive)
REMARK    1  A    between atoms: C_2  and  C_3
REMARK    2  A    between atoms: C_3  and  O_4
REMARK    3  A    between atoms: O_4  and  C_5
REMARK    4  A    between atoms: C_5  and  C_7
REMARK    5  A    between atoms: C_7  and  O_9
REMARK    6  A    between atoms: O_9  and  N_10
REMARK    7  A    between atoms: C_17  and  N_23
REMARK    8  A    between atoms: C_19  and  N_20
REMARK    9  A    between atoms: C_26  and  N_33
REMARK   10  A    between atoms: C_28  and  N_30
REMARK   11  A    between atoms: C_54  and  C_55
REMARK   12  A    between atoms: C_55  and  N_56
REMARK                            x       y       z     vdW  Elec       q    Type
REMARK                         _______ _______ _______ _____ _____    ______ ____
ROOT
ATOM      1  O   UNL     1       5.926  -1.137   0.000  0.00  0.00    +0.000 OA
ENDROOT
BRANCH   1   2
ATOM      2  C   UNL     1       5.617  -0.372   0.000  0.00  0.00    +0.000 C 
ATOM      3  C   UNL     1       6.423  -0.201   0.000  0.00  0.00    +0.000 C 
ATOM      4  O   UNL     1       6.976  -0.814   0.000  0.00  0.00    +0.000 OA
ATOM      5  O   UNL     1       6.678   0.584   0.000  0.00  0.00    +0.000 OA
ATOM      6  C   UNL     1       6.126   1.197   0.000  0.00  0.00    +0.000 C 
ATOM      7  C   UNL     1       5.319   1.026   0.000  0.00  0.00    +0.000 A 
ATOM      8  C   UNL     1       5.064   0.241   0.000  0.00  0.00    +0.000 A 
ATOM      9  C   UNL     1       4.258   0.069   0.000  0.00  0.00    +0.000 A 
ATOM     10  C   UNL     1       3.705   0.682   0.000  0.00  0.00    +0.000 A 
ATOM     11  N   UNL     1       3.960   1.467   0.000  0.00  0.00    +0.000 N 
ATOM     12  C   UNL     1       3.293   1.952   0.000  0.00  0.00    +0.000 C 
ATOM     13  C   UNL     1       2.626   1.467   0.000  0.00  0.00    +0.000 A 
ATOM     14  C   UNL     1       2.880   0.682   0.000  0.00  0.00    +0.000 A 
ATOM     15  N   UNL     1       2.328   0.069   0.000  0.00  0.00    +0.000 NA
ATOM     16  C   UNL     1       1.521   0.241   0.000  0.00  0.00    +0.000 A 
ATOM     17  C   UNL     1       0.969  -0.372   0.000  0.00  0.00    +0.000 A 
ATOM     18  C   UNL     1       0.162  -0.201   0.000  0.00  0.00    +0.000 A 
ATOM     19  C   UNL     1      -0.092   0.584   0.000  0.00  0.00    +0.000 A 
ATOM     20  O   UNL     1      -0.899   0.756   0.000  0.00  0.00    +0.000 OA
ATOM     21  C   UNL     1       0.460   1.197   0.000  0.00  0.00    +0.000 A 
ATOM     22  C   UNL     1       1.266   1.026   0.000  0.00  0.00    +0.000 A 
ATOM     23  C   UNL     1       1.819   1.639   0.000  0.00  0.00    +0.000 A 
ATOM     24  C   UNL     1       4.767   1.639   0.000  0.00  0.00    +0.000 A 
ATOM     25  O   UNL     1       5.022   2.423   0.000  0.00  0.00    +0.000 OA
BRANCH   2  27
ATOM     26  C   UNL     1       4.188  -0.422   0.000  0.00  0.00    +0.000 C 
ATOM     27  C   UNL     1       4.917  -0.809   0.000  0.00  0.00    +0.000 C 
ENDBRANCH   2  27
BRANCH  21  28
ATOM     28  C   UNL     1       0.205   1.982   0.000  0.00  0.00    +0.000 C 
BRANCH  28  29
ATOM     29  N   UNL     1      -0.602   2.153   0.000  0.00  0.00    +0.000 NA
ATOM     30  C   UNL     1      -1.154   1.540   0.000  0.00  0.00    +0.000 C 
ATOM     31  C   UNL     1      -0.857   2.938   0.000  0.00  0.00    +0.000 C 
ENDBRANCH  28  29
ENDBRANCH  21  28
ENDBRANCH   1   2
BRANCH   1  32
ATOM     32  C   UNL     1       5.418  -1.787   0.000  0.00  0.00    +0.000 C 
ATOM     33  O   UNL     1       4.601  -1.672   0.000  0.00  0.00    +0.000 OA
BRANCH  32  34
ATOM     34  C   UNL     1       5.727  -2.552   0.000  0.00  0.00    +0.000 C 
ATOM     35  C   UNL     1       5.219  -3.202   0.000  0.00  0.00    +0.000 C 
BRANCH  34  36
ATOM     36  O   UNL     1       6.544  -2.667   0.000  0.00  0.00    +0.000 OA
BRANCH  36  37
ATOM     37  N   UNL     1       6.853  -3.432   0.000  0.00  0.00    +0.000 NA
ATOM     38  C   UNL     1       7.670  -3.547   0.000  0.00  0.00    +0.000 C 
ATOM     39  C   UNL     1       8.057  -4.275   0.000  0.00  0.00    +0.000 A 
ATOM     40  C   UNL     1       8.869  -4.132   0.000  0.00  0.00    +0.000 A 
ATOM     41  C   UNL     1       8.984  -3.315   0.000  0.00  0.00    +0.000 A 
ATOM     42  C   UNL     1       8.243  -2.953   0.000  0.00  0.00    +0.000 A 
ATOM     43  C   UNL     1       8.185  -2.130   0.000  0.00  0.00    +0.000 A 
ATOM     44  C   UNL     1       8.869  -1.669   0.000  0.00  0.00    +0.000 A 
ATOM     45  C   UNL     1       9.611  -2.030   0.000  0.00  0.00    +0.000 A 
ATOM     46  C   UNL     1       9.668  -2.853   0.000  0.00  0.00    +0.000 A 
ATOM     47  C   UNL     1       9.400  -4.764   0.000  0.00  0.00    +0.000 A 
ATOM     48  C   UNL     1       9.118  -5.539   0.000  0.00  0.00    +0.000 A 
ATOM     49  C   UNL     1       8.305  -5.682   0.000  0.00  0.00    +0.000 A 
ATOM     50  C   UNL     1       7.775  -5.050   0.000  0.00  0.00    +0.000 A 
BRANCH  44  51
ATOM     51  N   UNL     1       8.812  -0.846   0.000  0.00  0.00    +0.000 N 
ATOM     52  O   UNL     1       9.496  -0.385   0.000  0.00  0.00    +0.000 OA
ATOM     53  O   UNL     1       8.070  -0.484   0.000  0.00  0.00    +0.000 OA
ENDBRANCH  44  51
BRANCH  47  54
ATOM     54  N   UNL     1      10.212  -4.620   0.000  0.00  0.00    +0.000 N 
ATOM     55  O   UNL     1      10.742  -5.253   0.000  0.00  0.00    +0.000 OA
ATOM     56  O   UNL     1      10.896  -4.159   0.000  0.00  0.00    +0.000 OA
ENDBRANCH  47  54
BRANCH  49  57
ATOM     57  N   UNL     1       8.023  -6.458   0.000  0.00  0.00    +0.000 N 
ATOM     58  O   UNL     1       7.210  -6.601   0.000  0.00  0.00    +0.000 OA
ATOM     59  O   UNL     1       8.553  -7.090   0.000  0.00  0.00    +0.000 OA
ENDBRANCH  49  57
BRANCH  46  60
ATOM     60  N   UNL     1      10.410  -3.215   0.000  0.00  0.00    +0.000 N 
ATOM     61  O   UNL     1      11.094  -2.754   0.000  0.00  0.00    +0.000 OA
ATOM     62  O   UNL     1      10.467  -4.038   0.000  0.00  0.00    +0.000 OA
ENDBRANCH  46  60
ENDBRANCH  36  37
ENDBRANCH  34  36
ENDBRANCH  32  34
ENDBRANCH   1  32
TORSDOF 12
