REMARK  Name = 
REMARK  8 active torsions:
REMARK  status: ('A' for Active; 'I' for Inactive)
REMARK    1  A    between atoms: C_5  and  S_8
REMARK    2  A    between atoms: C_16  and  S_19
REMARK    3  A    between atoms: C_24  and  C_26
REMARK    4  A    between atoms: C_24  and  N_52
REMARK    5  A    between atoms: C_27  and  C_28
REMARK    6  A    between atoms: C_33  and  N_34
REMARK    7  A    between atoms: C_35  and  C_37
REMARK    8  A    between atoms: N_43  and  C_44
REMARK                            x       y       z     vdW  Elec       q    Type
REMARK                         _______ _______ _______ _____ _____    ______ ____
ROOT
ATOM      1  C   UNL     1       0.000   2.175   0.000  0.00  0.00    +0.000 C 
ATOM      2  C   UNL     1       0.000   1.350   0.000  0.00  0.00    +0.000 A 
ATOM      3  C   UNL     1       0.715   0.938   0.000  0.00  0.00    +0.000 A 
ATOM      4  C   UNL     1       0.715   0.113   0.000  0.00  0.00    +0.000 A 
ATOM      5  C   UNL     1       0.000  -0.300   0.000  0.00  0.00    +0.000 A 
ATOM      6  C   UNL     1      -0.715   0.113   0.000  0.00  0.00    +0.000 A 
ATOM      7  C   UNL     1      -0.715   0.938   0.000  0.00  0.00    +0.000 A 
ENDROOT
BRANCH   5   8
ATOM      8  S   UNL     1       0.000  -1.125   0.000  0.00  0.00    +0.000 S 
ATOM      9  O   UNL     1       0.000  -1.950   0.000  0.00  0.00    +0.000 OA
ATOM     10  O   UNL     1      -0.825  -1.125   0.000  0.00  0.00    +0.000 OA
ATOM     11  O   UNL     1       0.825  -1.125   0.000  0.00  0.00    +0.000 OA
ENDBRANCH   5   8
TORSDOF 1
REMARK  Name = 
REMARK  8 active torsions:
REMARK  status: ('A' for Active; 'I' for Inactive)
REMARK    1  A    between atoms: C_5  and  S_8
REMARK    2  A    between atoms: C_16  and  S_19
REMARK    3  A    between atoms: C_24  and  C_26
REMARK    4  A    between atoms: C_24  and  N_52
REMARK    5  A    between atoms: C_27  and  C_28
REMARK    6  A    between atoms: C_33  and  N_34
REMARK    7  A    between atoms: C_35  and  C_37
REMARK    8  A    between atoms: N_43  and  C_44
REMARK                            x       y       z     vdW  Elec       q    Type
REMARK                         _______ _______ _______ _____ _____    ______ ____
ROOT
ATOM      1  C   UNL     1       3.425   2.175   0.000  0.00  0.00    +0.000 C 
ATOM      2  C   UNL     1       3.425   1.350   0.000  0.00  0.00    +0.000 A 
ATOM      3  C   UNL     1       4.140   0.938   0.000  0.00  0.00    +0.000 A 
ATOM      4  C   UNL     1       4.140   0.113   0.000  0.00  0.00    +0.000 A 
ATOM      5  C   UNL     1       3.425  -0.300   0.000  0.00  0.00    +0.000 A 
ATOM      6  C   UNL     1       2.711   0.113   0.000  0.00  0.00    +0.000 A 
ATOM      7  C   UNL     1       2.711   0.938   0.000  0.00  0.00    +0.000 A 
ENDROOT
BRANCH   5   8
ATOM      8  S   UNL     1       3.425  -1.125   0.000  0.00  0.00    +0.000 S 
ATOM      9  O   UNL     1       3.425  -1.950   0.000  0.00  0.00    +0.000 OA
ATOM     10  O   UNL     1       2.600  -1.125   0.000  0.00  0.00    +0.000 OA
ATOM     11  O   UNL     1       4.250  -1.125   0.000  0.00  0.00    +0.000 OA
ENDBRANCH   5   8
TORSDOF 1
REMARK  Name = 
REMARK  8 active torsions:
REMARK  status: ('A' for Active; 'I' for Inactive)
REMARK    1  A    between atoms: C_5  and  S_8
REMARK    2  A    between atoms: C_16  and  S_19
REMARK    3  A    between atoms: C_24  and  C_26
REMARK    4  A    between atoms: C_24  and  N_52
REMARK    5  A    between atoms: C_27  and  C_28
REMARK    6  A    between atoms: C_33  and  N_34
REMARK    7  A    between atoms: C_35  and  C_37
REMARK    8  A    between atoms: N_43  and  C_44
REMARK                            x       y       z     vdW  Elec       q    Type
REMARK                         _______ _______ _______ _____ _____    ______ ____
ROOT
ATOM      1  C   UNL     1      -0.139  -7.312   0.000  0.00  0.00    +0.000 A 
ATOM      2  C   UNL     1       0.576  -7.725   0.000  0.00  0.00    +0.000 A 
ATOM      3  C   UNL     1       1.290  -7.312   0.000  0.00  0.00    +0.000 A 
ATOM      4  C   UNL     1       1.290  -6.487   0.000  0.00  0.00    +0.000 A 
ATOM      5  C   UNL     1       0.576  -6.075   0.000  0.00  0.00    +0.000 A 
ATOM      6  C   UNL     1      -0.139  -6.487   0.000  0.00  0.00    +0.000 A 
ATOM      7  C   UNL     1       2.005  -6.075   0.000  0.00  0.00    +0.000 A 
ATOM      8  N   UNL     1       2.719  -6.487   0.000  0.00  0.00    +0.000 NA
ATOM      9  C   UNL     1       2.719  -7.312   0.000  0.00  0.00    +0.000 A 
ATOM     10  N   UNL     1       2.005  -7.725   0.000  0.00  0.00    +0.000 NA
ATOM     11  N   UNL     1       2.005  -5.250   0.000  0.00  0.00    +0.000 NA
ENDROOT
BRANCH  11  12
ATOM     12  C   UNL     1       2.719  -4.838   0.000  0.00  0.00    +0.000 A 
ATOM     13  C   UNL     1       2.719  -4.013   0.000  0.00  0.00    +0.000 A 
ATOM     14  C   UNL     1       3.433  -3.600   0.000  0.00  0.00    +0.000 A 
ATOM     15  C   UNL     1       4.148  -4.013   0.000  0.00  0.00    +0.000 A 
ATOM     16  C   UNL     1       4.148  -4.838   0.000  0.00  0.00    +0.000 A 
ATOM     17  C   UNL     1       3.433  -5.250   0.000  0.00  0.00    +0.000 A 
ATOM     18 CL   UNL     1       4.862  -5.250   0.000  0.00  0.00    +0.000 Cl
ATOM     19  F   UNL     1       4.862  -3.600   0.000  0.00  0.00    +0.000 F 
ENDBRANCH  11  12
BRANCH   6  20
ATOM     20  N   UNL     1      -0.853  -6.075   0.000  0.00  0.00    +0.000 NA
ATOM     21  C   UNL     1      -1.568  -6.487   0.000  0.00  0.00    +0.000 C 
ATOM     22  O   UNL     1      -2.282  -6.075   0.000  0.00  0.00    +0.000 OA
BRANCH  21  23
ATOM     23  C   UNL     1      -1.568  -7.312   0.000  0.00  0.00    +0.000 C 
ATOM     24  C   UNL     1      -2.282  -7.725   0.000  0.00  0.00    +0.000 C 
ENDBRANCH  21  23
ENDBRANCH   6  20
BRANCH   1  26
ATOM     25  C   UNL     1      -1.568  -8.137   0.000  0.00  0.00    +0.000 C 
ATOM     26  C   UNL     1      -0.853  -7.725   0.000  0.00  0.00    +0.000 C 
BRANCH  25  28
ATOM     27  C   UNL     1      -2.695  -7.835   0.000  0.00  0.00    +0.000 C 
ATOM     28  C   UNL     1      -2.282  -8.550   0.000  0.00  0.00    +0.000 C 
ATOM     29  C   UNL     1      -1.870  -9.264   0.000  0.00  0.00    +0.000 C 
BRANCH  28  30
ATOM     30  N   UNL     1      -2.997  -8.963   0.000  0.00  0.00    +0.000 NA
ATOM     31  C   UNL     1      -2.997  -9.787   0.000  0.00  0.00    +0.000 C 
ATOM     32  C   UNL     1      -3.711 -10.200   0.000  0.00  0.00    +0.000 C 
ATOM     33  N   UNL     1      -4.426  -9.787   0.000  0.00  0.00    +0.000 NA
ATOM     34  C   UNL     1      -4.426  -8.963   0.000  0.00  0.00    +0.000 C 
ATOM     35  C   UNL     1      -3.711  -8.550   0.000  0.00  0.00    +0.000 C 
ATOM     36  C   UNL     1      -5.140 -10.200   0.000  0.00  0.00    +0.000 C 
ENDBRANCH  28  30
ENDBRANCH  25  28
ENDBRANCH   1  26
TORSDOF 6
