REMARK  Name = 
REMARK  5 active torsions:
REMARK  status: ('A' for Active; 'I' for Inactive)
REMARK    1  A    between atoms: C_13  and  C_20
REMARK    2  A    between atoms: N_14  and  C_15
REMARK    3  A    between atoms: C_15  and  C_17
REMARK    4  A    between atoms: C_20  and  O_21
REMARK    5  A    between atoms: O_21  and  C_22
REMARK                            x       y       z     vdW  Elec       q    Type
REMARK                         _______ _______ _______ _____ _____    ______ ____
ROOT
ATOM      1  C   UNL     1      -2.501  -0.619   0.000  0.00  0.00    +0.000 A 
ATOM      2  C   UNL     1      -3.215  -1.031   0.000  0.00  0.00    +0.000 A 
ATOM      3  C   UNL     1      -3.215  -1.856   0.000  0.00  0.00    +0.000 A 
ATOM      4  C   UNL     1      -2.501  -2.269   0.000  0.00  0.00    +0.000 A 
ATOM      5  C   UNL     1      -1.786  -1.031   0.000  0.00  0.00    +0.000 A 
ATOM      6  C   UNL     1      -1.786  -1.856   0.000  0.00  0.00    +0.000 A 
ATOM      7  N   UNL     1      -1.072  -2.269   0.000  0.00  0.00    +0.000 NA
ATOM      8  C   UNL     1      -0.357  -1.856   0.000  0.00  0.00    +0.000 A 
ATOM      9  N   UNL     1       0.357  -2.269   0.000  0.00  0.00    +0.000 NA
ATOM     10  C   UNL     1      -0.357  -1.031   0.000  0.00  0.00    +0.000 A 
ATOM     11  C   UNL     1      -1.072  -0.619   0.000  0.00  0.00    +0.000 A 
ATOM     12  N   UNL     1       0.357  -0.619   0.000  0.00  0.00    +0.000 NA
ATOM     13  C   UNL     1       0.357   0.206   0.000  0.00  0.00    +0.000 A 
ATOM     14  N   UNL     1      -1.072   0.206   0.000  0.00  0.00    +0.000 N 
ENDROOT
BRANCH  14  15
ATOM     15  C   UNL     1      -1.786   0.619   0.000  0.00  0.00    +0.000 C 
BRANCH  15  17
ATOM     16  C   UNL     1      -2.501   1.856   0.000  0.00  0.00    +0.000 C 
ATOM     17  C   UNL     1      -1.786   1.444   0.000  0.00  0.00    +0.000 C 
ATOM     18  C   UNL     1      -1.072   1.856   0.000  0.00  0.00    +0.000 C 
ATOM     19  O   UNL     1      -1.786   2.269   0.000  0.00  0.00    +0.000 OA
ENDBRANCH  15  17
ENDBRANCH  14  15
BRANCH  13  20
ATOM     20  C   UNL     1       1.072   0.619   0.000  0.00  0.00    +0.000 C 
BRANCH  20  21
ATOM     21  O   UNL     1       1.786   0.206   0.000  0.00  0.00    +0.000 OA
BRANCH  21  22
ATOM     22  C   UNL     1       2.501   0.619   0.000  0.00  0.00    +0.000 C 
ATOM     23  C   UNL     1       3.215   0.206   0.000  0.00  0.00    +0.000 C 
ENDBRANCH  21  22
ENDBRANCH  20  21
ENDBRANCH  13  20
TORSDOF 5
