REMARK  Name = 
REMARK  10 active torsions:
REMARK  status: ('A' for Active; 'I' for Inactive)
REMARK    1  A    between atoms: O_2  and  C_3
REMARK    2  A    between atoms: C_6  and  C_7
REMARK    3  A    between atoms: C_7  and  C_8
REMARK    4  A    between atoms: C_8  and  C_9
REMARK    5  A    between atoms: C_9  and  O_10
REMARK    6  A    between atoms: O_10  and  C_11
REMARK    7  A    between atoms: C_11  and  C_12
REMARK    8  A    between atoms: C_11  and  C_18
REMARK    9  A    between atoms: C_12  and  N_13
REMARK   10  A    between atoms: C_21  and  O_22
REMARK                            x       y       z     vdW  Elec       q    Type
REMARK                         _______ _______ _______ _____ _____    ______ ____
ROOT
ATOM      1  C   UNL     1       4.206  -3.602   0.000  0.00  0.00    +0.000 C 
ENDROOT
BRANCH   1   2
ATOM      2  C   UNL     1       4.618  -4.316   0.000  0.00  0.00    +0.000 A 
ATOM      3  C   UNL     1       5.443  -4.316   0.000  0.00  0.00    +0.000 A 
ATOM      4  C   UNL     1       5.856  -5.031   0.000  0.00  0.00    +0.000 A 
ATOM      5  C   UNL     1       5.443  -5.745   0.000  0.00  0.00    +0.000 A 
ATOM      6  C   UNL     1       4.618  -5.745   0.000  0.00  0.00    +0.000 A 
ATOM      7  C   UNL     1       4.206  -5.031   0.000  0.00  0.00    +0.000 A 
BRANCH   5   8
ATOM      8  O   UNL     1       5.856  -6.460   0.000  0.00  0.00    +0.000 OA
ATOM      9  C   UNL     1       6.681  -6.460   0.000  0.00  0.00    +0.000 C 
ENDBRANCH   5   8
ENDBRANCH   1   2
BRANCH   1  10
ATOM     10  C   UNL     1       4.618  -2.888   0.000  0.00  0.00    +0.000 C 
BRANCH  10  11
ATOM     11  N   UNL     1       5.443  -2.888   0.000  0.00  0.00    +0.000 N 
ATOM     12  C   UNL     1       5.928  -2.220   0.000  0.00  0.00    +0.000 A 
ATOM     13  C   UNL     1       6.713  -2.475   0.000  0.00  0.00    +0.000 A 
ATOM     14  N   UNL     1       6.713  -3.300   0.000  0.00  0.00    +0.000 NA
ATOM     15  C   UNL     1       5.928  -3.555   0.000  0.00  0.00    +0.000 A 
ENDBRANCH  10  11
ENDBRANCH   1  10
BRANCH   1  16
ATOM     16  O   UNL     1       3.381  -3.602   0.000  0.00  0.00    +0.000 OA
BRANCH  16  17
ATOM     17  C   UNL     1       2.968  -2.888   0.000  0.00  0.00    +0.000 C 
BRANCH  17  18
ATOM     18  C   UNL     1       2.143  -2.888   0.000  0.00  0.00    +0.000 C 
BRANCH  18  19
ATOM     19  C   UNL     1       1.731  -2.173   0.000  0.00  0.00    +0.000 C 
BRANCH  19  23
ATOM     20  C   UNL     1      -0.744  -2.173   0.000  0.00  0.00    +0.000 A 
ATOM     21  C   UNL     1      -0.332  -1.459   0.000  0.00  0.00    +0.000 A 
ATOM     22  C   UNL     1       0.493  -1.459   0.000  0.00  0.00    +0.000 A 
ATOM     23  C   UNL     1       0.906  -2.173   0.000  0.00  0.00    +0.000 A 
ATOM     24  C   UNL     1       0.493  -2.888   0.000  0.00  0.00    +0.000 A 
ATOM     25  C   UNL     1      -0.332  -2.888   0.000  0.00  0.00    +0.000 A 
BRANCH  20  27
ATOM     26  C   UNL     1      -1.982  -2.888   0.000  0.00  0.00    +0.000 C 
ATOM     27  O   UNL     1      -1.569  -2.173   0.000  0.00  0.00    +0.000 OA
ENDBRANCH  20  27
ENDBRANCH  19  23
ENDBRANCH  18  19
ENDBRANCH  17  18
ENDBRANCH  16  17
ENDBRANCH   1  16
TORSDOF 10
