REMARK  Name = 
REMARK  9 active torsions:
REMARK  status: ('A' for Active; 'I' for Inactive)
REMARK    1  A    between atoms: C_1  and  CA_3
REMARK    2  A    between atoms: N_2  and  CA_3
REMARK    3  A    between atoms: CA_3  and  CB_4
REMARK    4  A    between atoms: CB_4  and  CG_5
REMARK    5  A    between atoms: CG_5  and  CD_6
REMARK    6  A    between atoms: C_11  and  C_12
REMARK    7  A    between atoms: C_15  and  C_19
REMARK    8  A    between atoms: C_19  and  C_20
REMARK    9  A    between atoms: C_20  and  C_28
REMARK                            x       y       z     vdW  Elec       q    Type
REMARK                         _______ _______ _______ _____ _____    ______ ____
ROOT
ATOM      1  C   UNK A   0       1.435  -0.232   0.000  0.00  0.00    +0.000 A 
ATOM      2  C   UNK A   0       1.423  -1.057   0.000  0.00  0.00    +0.000 A 
ATOM      3  C   UNK A   0       0.702  -1.459   0.000  0.00  0.00    +0.000 A 
ATOM      4  C   UNK A   0      -0.006  -1.036   0.000  0.00  0.00    +0.000 A 
ATOM      5  C   UNK A   0       0.006  -0.211   0.000  0.00  0.00    +0.000 A 
ATOM      6  C   UNK A   0       0.726   0.191   0.000  0.00  0.00    +0.000 A 
ENDROOT
BRANCH   1   8
ATOM      7  N   GLU A   1       2.167   0.994   0.000  0.00  0.00    +0.000 NA
ATOM      8  C   UNK A   0       2.155   0.170   0.000  0.00  0.00    +0.000 C 
ATOM      9  O   UNK A   0       2.864  -0.253   0.000  0.00  0.00    +0.000 OA
BRANCH   7  10
ATOM     10  CA  GLU A   1       2.888   1.396   0.000  0.00  0.00    +0.000 C 
BRANCH  10  11
ATOM     11  C   GLU A   1       2.900   2.221   0.000  0.00  0.00    +0.000 C 
ATOM     12  O   GLU A   1       2.192   2.644   0.000  0.00  0.00    +0.000 OA
ATOM     13  OXT GLU A   1       3.620   2.623   0.000  0.00  0.00    +0.000 OA
ENDBRANCH  10  11
BRANCH  10  14
ATOM     14  CB  GLU A   1       3.596   0.974   0.000  0.00  0.00    +0.000 C 
BRANCH  14  15
ATOM     15  CG  GLU A   1       4.317   1.375   0.000  0.00  0.00    +0.000 C 
BRANCH  15  16
ATOM     16  CD  GLU A   1       5.025   0.953   0.000  0.00  0.00    +0.000 C 
ATOM     17  OE1 GLU A   1       5.745   1.355   0.000  0.00  0.00    +0.000 OA
ATOM     18  OE2 GLU A   1       5.013   0.128   0.000  0.00  0.00    +0.000 OA
ENDBRANCH  15  16
ENDBRANCH  14  15
ENDBRANCH  10  14
ENDBRANCH   7  10
ENDBRANCH   1   8
BRANCH   4  19
ATOM     19  C   UNK A   0      -0.726  -1.438   0.000  0.00  0.00    +0.000 C 
BRANCH  19  20
ATOM     20  C   UNK A   0      -1.435  -1.015   0.000  0.00  0.00    +0.000 C 
BRANCH  20  28
ATOM     21  C   UNK A   0      -5.025  -2.200   0.000  0.00  0.00    +0.000 A 
ATOM     22  N   UNK A   0      -4.317  -2.623   0.000  0.00  0.00    +0.000 NA
ATOM     23  C   UNK A   0      -3.596  -2.221   0.000  0.00  0.00    +0.000 A 
ATOM     24  C   UNK A   0      -3.584  -1.397   0.000  0.00  0.00    +0.000 A 
ATOM     25  C   UNK A   0      -4.292  -0.974   0.000  0.00  0.00    +0.000 A 
ATOM     26  N   UNK A   0      -5.013  -1.376   0.000  0.00  0.00    +0.000 NA
ATOM     27  C   UNK A   0      -2.864  -0.994   0.000  0.00  0.00    +0.000 C 
ATOM     28  C   UNK A   0      -2.155  -1.417   0.000  0.00  0.00    +0.000 C 
ATOM     29  C   UNK A   0      -2.167  -2.242   0.000  0.00  0.00    +0.000 C 
ATOM     30  N   UNK A   0      -2.888  -2.644   0.000  0.00  0.00    +0.000 NA
ATOM     31  O   UNK A   0      -4.280  -0.149   0.000  0.00  0.00    +0.000 OA
ATOM     32  N   UNK A   0      -5.745  -2.602   0.000  0.00  0.00    +0.000 NA
ENDBRANCH  20  28
ENDBRANCH  19  20
ENDBRANCH   4  19
TORSDOF 9
