REMARK  Name = 
REMARK  4 active torsions:
REMARK  status: ('A' for Active; 'I' for Inactive)
REMARK    1  A    between atoms: C_10  and  S_20
REMARK    2  A    between atoms: C_11  and  N_16
REMARK    3  A    between atoms: C_12  and  O_19
REMARK    4  A    between atoms: N_16  and  S_20
REMARK                            x       y       z     vdW  Elec       q    Type
REMARK                         _______ _______ _______ _____ _____    ______ ____
ROOT
ATOM      1  N   UNL     1      -1.429   0.000   0.000  0.00  0.00    +0.000 NA
ENDROOT
BRANCH   1   5
ATOM      2  C   UNL     1      -2.858   2.475   0.000  0.00  0.00    +0.000 C 
ATOM      3  C   UNL     1      -2.858   0.000   0.000  0.00  0.00    +0.000 A 
ATOM      4  C   UNL     1      -2.858   1.650   0.000  0.00  0.00    +0.000 A 
ATOM      5  C   UNL     1      -2.143   0.412   0.000  0.00  0.00    +0.000 A 
ATOM      6  C   UNL     1      -3.572   0.412   0.000  0.00  0.00    +0.000 A 
ATOM      7  N   UNL     1      -2.143   1.238   0.000  0.00  0.00    +0.000 NA
ATOM      8  N   UNL     1      -3.572   1.238   0.000  0.00  0.00    +0.000 NA
BRANCH   6  10
ATOM      9  C   UNL     1      -5.001   0.412   0.000  0.00  0.00    +0.000 C 
ATOM     10  O   UNL     1      -4.287   0.000   0.000  0.00  0.00    +0.000 OA
ENDBRANCH   6  10
ENDBRANCH   1   5
BRANCH   1  13
ATOM     11  O   UNL     1      -2.254  -0.825   0.000  0.00  0.00    +0.000 OA
ATOM     12  O   UNL     1      -0.604  -0.825   0.000  0.00  0.00    +0.000 OA
ATOM     13  S   UNL     1      -1.429  -0.825   0.000  0.00  0.00    +0.000 S 
BRANCH  13  19
ATOM     14  C   UNL     1      -0.715  -2.888   0.000  0.00  0.00    +0.000 A 
ATOM     15  C   UNL     1      -2.143  -2.888   0.000  0.00  0.00    +0.000 A 
ATOM     16  C   UNL     1      -0.715  -2.062   0.000  0.00  0.00    +0.000 A 
ATOM     17  C   UNL     1      -2.143  -2.062   0.000  0.00  0.00    +0.000 A 
ATOM     18  C   UNL     1      -1.429  -3.300   0.000  0.00  0.00    +0.000 A 
ATOM     19  C   UNL     1      -1.429  -1.650   0.000  0.00  0.00    +0.000 A 
ATOM     20  N   UNL     1      -1.429  -4.125   0.000  0.00  0.00    +0.000 NA
ENDBRANCH  13  19
ENDBRANCH   1  13
TORSDOF 4
