REMARK  Name = 
REMARK  0 active torsions:
REMARK  status: ('A' for Active; 'I' for Inactive)
REMARK                            x       y       z     vdW  Elec       q    Type
REMARK                         _______ _______ _______ _____ _____    ______ ____
ROOT
ATOM      1  C   UNL     1       7.931  -2.272   0.000  0.00  0.00    +0.000 C 
ATOM      2  C   UNL     1       8.664  -1.893   0.000  0.00  0.00    +0.000 C 
ATOM      3  C   UNL     1       9.251  -2.473   0.000  0.00  0.00    +0.000 C 
ATOM      4  C   UNL     1      10.074  -2.425   0.000  0.00  0.00    +0.000 C 
ATOM      5  C   UNL     1      10.445  -1.688   0.000  0.00  0.00    +0.000 C 
ATOM      6  C   UNL     1      11.268  -1.640   0.000  0.00  0.00    +0.000 C 
ATOM      7  C   UNL     1      11.722  -2.329   0.000  0.00  0.00    +0.000 C 
ATOM      8  C   UNL     1      12.545  -2.281   0.000  0.00  0.00    +0.000 C 
ATOM      9  C   UNL     1      12.998  -2.970   0.000  0.00  0.00    +0.000 C 
ATOM     10  O   UNL     1      13.822  -2.922   0.000  0.00  0.00    +0.000 OA
ATOM     11  C   UNL     1      12.628  -3.708   0.000  0.00  0.00    +0.000 C 
ATOM     12  C   UNL     1      11.805  -3.756   0.000  0.00  0.00    +0.000 C 
ATOM     13  C   UNL     1      11.351  -3.066   0.000  0.00  0.00    +0.000 C 
ATOM     14  C   UNL     1      10.981  -3.804   0.000  0.00  0.00    +0.000 C 
ATOM     15  C   UNL     1      10.528  -3.114   0.000  0.00  0.00    +0.000 C 
ATOM     16  C   UNL     1      10.157  -3.851   0.000  0.00  0.00    +0.000 C 
ATOM     17  C   UNL     1       9.334  -3.899   0.000  0.00  0.00    +0.000 C 
ATOM     18  C   UNL     1       8.880  -3.210   0.000  0.00  0.00    +0.000 C 
ATOM     19  C   UNL     1       8.435  -3.905   0.000  0.00  0.00    +0.000 C 
ATOM     20  C   UNL     1       8.065  -3.086   0.000  0.00  0.00    +0.000 C 
ATOM     21  C   UNL     1       7.332  -3.465   0.000  0.00  0.00    +0.000 C 
ATOM     22  C   UNL     1       7.208  -4.280   0.000  0.00  0.00    +0.000 C 
ATOM     23  C   UNL     1       6.745  -2.885   0.000  0.00  0.00    +0.000 C 
ATOM     24  C   UNL     1       6.454  -3.656   0.000  0.00  0.00    +0.000 C 
ATOM     25  C   UNL     1       5.640  -3.790   0.000  0.00  0.00    +0.000 C 
ATOM     26  C   UNL     1       5.117  -3.152   0.000  0.00  0.00    +0.000 C 
ATOM     27  C   UNL     1       4.303  -3.286   0.000  0.00  0.00    +0.000 C 
ATOM     28  C   UNL     1       5.408  -2.380   0.000  0.00  0.00    +0.000 C 
ATOM     29  O   UNL     1       6.222  -2.246   0.000  0.00  0.00    +0.000 OA
ATOM     30  O   UNL     1       7.115  -2.147   0.000  0.00  0.00    +0.000 OA
ENDROOT
TORSDOF 0
