REMARK  Name = 
REMARK  1 active torsions:
REMARK  status: ('A' for Active; 'I' for Inactive)
REMARK    1  A    between atoms: C_1  and  C_2
REMARK                            x       y       z     vdW  Elec       q    Type
REMARK                         _______ _______ _______ _____ _____    ______ ____
ROOT
ATOM      1  C   UNL     1      -0.357   0.206   0.000  0.00  0.00    +0.000 C 
ATOM      2  N   UNL     1      -1.072  -0.206   0.000  0.00  0.00    +0.000 NA
ENDROOT
BRANCH   1   3
ATOM      3  C   UNL     1       0.357  -0.206   0.000  0.00  0.00    +0.000 C 
ATOM      4  N   UNL     1       1.072   0.206   0.000  0.00  0.00    +0.000 NA
ENDBRANCH   1   3
TORSDOF 1
