REMARK  Name = 
REMARK  12 active torsions:
REMARK  status: ('A' for Active; 'I' for Inactive)
REMARK    1  A    between atoms: C_2  and  O_3
REMARK    2  A    between atoms: O_3  and  C_4
REMARK    3  A    between atoms: C_4  and  O_6
REMARK    4  A    between atoms: O_6  and  C_7
REMARK    5  A    between atoms: C_7  and  C_8
REMARK    6  A    between atoms: C_12  and  O_14
REMARK    7  A    between atoms: O_14  and  C_15
REMARK    8  A    between atoms: C_16  and  C_24
REMARK    9  A    between atoms: N_18  and  C_20
REMARK   10  A    between atoms: C_24  and  C_25
REMARK   11  A    between atoms: C_28  and  O_31
REMARK   12  A    between atoms: O_31  and  C_32
REMARK                            x       y       z     vdW  Elec       q    Type
REMARK                         _______ _______ _______ _____ _____    ______ ____
ROOT
ATOM      1  C   UNL     1      10.442  -8.095   0.000  0.00  0.00    +0.000 A 
ATOM      2  C   UNL     1      11.110  -8.580   0.000  0.00  0.00    +0.000 A 
ATOM      3  C   UNL     1      10.855  -9.365   0.000  0.00  0.00    +0.000 A 
ATOM      4  N   UNL     1      10.030  -9.365   0.000  0.00  0.00    +0.000 N 
ATOM      5  N   UNL     1       9.775  -8.580   0.000  0.00  0.00    +0.000 NA
ATOM      6  C   UNL     1      11.340 -10.032   0.000  0.00  0.00    +0.000 C 
ENDROOT
BRANCH   4   7
ATOM      7  C   UNL     1       9.545 -10.032   0.000  0.00  0.00    +0.000 C 
ATOM      8  C   UNL     1       8.725  -9.946   0.000  0.00  0.00    +0.000 C 
ATOM      9  C   UNL     1       9.881 -10.786   0.000  0.00  0.00    +0.000 C 
ENDBRANCH   4   7
BRANCH   2  10
ATOM     10  C   UNL     1      11.895  -8.325   0.000  0.00  0.00    +0.000 C 
BRANCH  10  11
ATOM     11  C   UNL     1      12.508  -8.877   0.000  0.00  0.00    +0.000 A 
ATOM     12  C   UNL     1      13.292  -8.622   0.000  0.00  0.00    +0.000 A 
ATOM     13  C   UNL     1      13.905  -9.174   0.000  0.00  0.00    +0.000 A 
ATOM     14  C   UNL     1      13.734  -9.981   0.000  0.00  0.00    +0.000 A 
ATOM     15  C   UNL     1      12.949 -10.236   0.000  0.00  0.00    +0.000 A 
ATOM     16  C   UNL     1      12.336  -9.684   0.000  0.00  0.00    +0.000 A 
BRANCH  14  17
ATOM     17  O   UNL     1      14.347 -10.533   0.000  0.00  0.00    +0.000 OA
BRANCH  17  18
ATOM     18  C   UNL     1      14.175 -11.340   0.000  0.00  0.00    +0.000 C 
ATOM     19  C   UNL     1      14.789 -11.892   0.000  0.00  0.00    +0.000 C 
ATOM     20  C   UNL     1      13.391 -11.595   0.000  0.00  0.00    +0.000 C 
ENDBRANCH  17  18
ENDBRANCH  14  17
ENDBRANCH  10  11
ENDBRANCH   2  10
BRANCH   1  21
ATOM     21  O   UNL     1      10.442  -7.270   0.000  0.00  0.00    +0.000 OA
BRANCH  21  26
ATOM     22  C   UNL     1       8.299  -6.858   0.000  0.00  0.00    +0.000 C 
ATOM     23  C   UNL     1       8.299  -6.033   0.000  0.00  0.00    +0.000 C 
ATOM     24  C   UNL     1       9.014  -5.620   0.000  0.00  0.00    +0.000 C 
ATOM     25  C   UNL     1       9.728  -6.033   0.000  0.00  0.00    +0.000 C 
ATOM     26  C   UNL     1       9.728  -6.858   0.000  0.00  0.00    +0.000 C 
ATOM     27  O   UNL     1       9.014  -7.270   0.000  0.00  0.00    +0.000 OA
ATOM     28  O   UNL     1      10.442  -5.620   0.000  0.00  0.00    +0.000 OA
ATOM     29  O   UNL     1       9.014  -4.795   0.000  0.00  0.00    +0.000 OA
ATOM     30  O   UNL     1       7.585  -5.620   0.000  0.00  0.00    +0.000 OA
BRANCH  22  31
ATOM     31  C   UNL     1       7.585  -7.270   0.000  0.00  0.00    +0.000 C 
BRANCH  31  32
ATOM     32  O   UNL     1       6.870  -6.858   0.000  0.00  0.00    +0.000 OA
BRANCH  32  33
ATOM     33  C   UNL     1       6.156  -7.270   0.000  0.00  0.00    +0.000 C 
ATOM     34  O   UNL     1       6.156  -8.095   0.000  0.00  0.00    +0.000 OA
BRANCH  33  35
ATOM     35  O   UNL     1       5.441  -6.858   0.000  0.00  0.00    +0.000 OA
BRANCH  35  37
ATOM     36  C   UNL     1       4.012  -6.858   0.000  0.00  0.00    +0.000 C 
ATOM     37  C   UNL     1       4.727  -7.270   0.000  0.00  0.00    +0.000 C 
ENDBRANCH  35  37
ENDBRANCH  33  35
ENDBRANCH  32  33
ENDBRANCH  31  32
ENDBRANCH  22  31
ENDBRANCH  21  26
ENDBRANCH   1  21
TORSDOF 12
