REMARK  Name = 
REMARK  6 active torsions:
REMARK  status: ('A' for Active; 'I' for Inactive)
REMARK    1  A    between atoms: C_5  and  C_7
REMARK    2  A    between atoms: C_10  and  C_13
REMARK    3  A    between atoms: C_16  and  N_20
REMARK    4  A    between atoms: C_22  and  C_23
REMARK    5  A    between atoms: C_23  and  O_24
REMARK    6  A    between atoms: O_24  and  P_25
REMARK                            x       y       z     vdW  Elec       q    Type
REMARK                         _______ _______ _______ _____ _____    ______ ____
ROOT
ATOM      1  C   UNL     1      -1.638  -7.652   0.000  0.00  0.00    +0.000 A 
ATOM      2  C   UNL     1      -1.302  -8.405   0.000  0.00  0.00    +0.000 A 
ATOM      3  C   UNL     1      -1.787  -9.073   0.000  0.00  0.00    +0.000 A 
ATOM      4  C   UNL     1      -2.607  -8.987   0.000  0.00  0.00    +0.000 A 
ATOM      5  C   UNL     1      -2.943  -8.233   0.000  0.00  0.00    +0.000 A 
ATOM      6  C   UNL     1      -2.458  -7.566   0.000  0.00  0.00    +0.000 A 
ATOM      7  F   UNL     1      -2.794  -6.812   0.000  0.00  0.00    +0.000 F 
ENDROOT
BRANCH   1  11
ATOM      8  C   UNL     1      -0.183  -5.649   0.000  0.00  0.00    +0.000 A 
ATOM      9  C   UNL     1       0.153  -6.403   0.000  0.00  0.00    +0.000 A 
ATOM     10  C   UNL     1      -0.332  -7.071   0.000  0.00  0.00    +0.000 A 
ATOM     11  C   UNL     1      -1.153  -6.984   0.000  0.00  0.00    +0.000 A 
ATOM     12  C   UNL     1      -1.488  -6.231   0.000  0.00  0.00    +0.000 A 
ATOM     13  N   UNL     1      -1.003  -5.563   0.000  0.00  0.00    +0.000 NA
BRANCH   8  18
ATOM     14  C   UNL     1       0.714  -2.888   0.000  0.00  0.00    +0.000 C 
ATOM     15  N   UNL     1       0.714  -3.712   0.000  0.00  0.00    +0.000 N 
ATOM     16  N   UNL     1       1.382  -4.197   0.000  0.00  0.00    +0.000 NA
ATOM     17  N   UNL     1       1.127  -4.982   0.000  0.00  0.00    +0.000 NA
ATOM     18  C   UNL     1       0.302  -4.982   0.000  0.00  0.00    +0.000 A 
ATOM     19  N   UNL     1       0.047  -4.197   0.000  0.00  0.00    +0.000 NA
ENDBRANCH   8  18
ENDBRANCH   1  11
BRANCH   4  20
ATOM     20  N   UNL     1      -3.092  -9.654   0.000  0.00  0.00    +0.000 N 
ATOM     21  C   UNL     1      -2.837 -10.439   0.000  0.00  0.00    +0.000 C 
ATOM     22  C   UNL     1      -3.505 -10.924   0.000  0.00  0.00    +0.000 C 
ATOM     23  O   UNL     1      -4.172 -10.439   0.000  0.00  0.00    +0.000 OA
ATOM     24  C   UNL     1      -3.917  -9.654   0.000  0.00  0.00    +0.000 C 
ATOM     25  O   UNL     1      -4.402  -8.987   0.000  0.00  0.00    +0.000 OA
BRANCH  22  26
ATOM     26  C   UNL     1      -3.505 -11.749   0.000  0.00  0.00    +0.000 C 
BRANCH  26  27
ATOM     27  O   UNL     1      -4.219 -12.161   0.000  0.00  0.00    +0.000 OA
BRANCH  27  28
ATOM     28  P   UNL     1      -4.219 -12.986   0.000  0.00  0.00    +0.000 P 
ATOM     29  O   UNL     1      -4.219 -13.811   0.000  0.00  0.00    +0.000 OA
ATOM     30  O   UNL     1      -5.044 -12.986   0.000  0.00  0.00    +0.000 OA
ATOM     31  O   UNL     1      -3.394 -12.986   0.000  0.00  0.00    +0.000 OA
ENDBRANCH  27  28
ENDBRANCH  26  27
ENDBRANCH  22  26
ENDBRANCH   4  20
TORSDOF 6
