REMARK  Name = 
REMARK  12 active torsions:
REMARK  status: ('A' for Active; 'I' for Inactive)
REMARK    1  A    between atoms: C_3  and  O_28
REMARK    2  A    between atoms: C_4  and  P_40
REMARK    3  A    between atoms: C_6  and  C_9
REMARK    4  A    between atoms: C_7  and  C_8
REMARK    5  A    between atoms: C_7  and  O_28
REMARK    6  A    between atoms: C_9  and  C_10
REMARK    7  A    between atoms: C_10  and  C_11
REMARK    8  A    between atoms: C_10  and  N_13
REMARK    9  A    between atoms: N_12  and  C_18
REMARK   10  A    between atoms: N_23  and  C_25
REMARK   11  A    between atoms: C_25  and  C_26
REMARK   12  A    between atoms: C_31  and  C_34
REMARK                            x       y       z     vdW  Elec       q    Type
REMARK                         _______ _______ _______ _____ _____    ______ ____
ROOT
ATOM      1  C   UNL     1       2.419  -2.037   0.000  0.00  0.00    +0.000 C 
ATOM      2  N   UNL     1       2.007  -2.752   0.000  0.00  0.00    +0.000 NA
ATOM      3  O   UNL     1       2.007  -1.323   0.000  0.00  0.00    +0.000 OA
ENDROOT
BRANCH   2   4
ATOM      4  C   UNL     1       1.182  -2.752   0.000  0.00  0.00    +0.000 C 
ATOM      5  C   UNL     1       0.824  -3.495   0.000  0.00  0.00    +0.000 C 
ATOM      6  C   UNL     1       0.019  -3.679   0.000  0.00  0.00    +0.000 C 
ATOM      7  C   UNL     1      -0.625  -3.164   0.000  0.00  0.00    +0.000 C 
ATOM      8  C   UNL     1      -0.625  -2.339   0.000  0.00  0.00    +0.000 C 
ATOM      9  N   UNL     1       0.019  -1.825   0.000  0.00  0.00    +0.000 N 
ATOM     10  C   UNL     1       0.824  -2.008   0.000  0.00  0.00    +0.000 C 
ATOM     11  O   UNL     1       1.338  -1.363   0.000  0.00  0.00    +0.000 OA
BRANCH   9  12
ATOM     12  C   UNL     1      -0.164  -1.020   0.000  0.00  0.00    +0.000 C 
BRANCH  12  13
ATOM     13  C   UNL     1      -0.952  -0.777   0.000  0.00  0.00    +0.000 A 
ATOM     14  C   UNL     1      -1.557  -1.338   0.000  0.00  0.00    +0.000 A 
ATOM     15  C   UNL     1      -2.345  -1.095   0.000  0.00  0.00    +0.000 A 
ATOM     16  C   UNL     1      -2.529  -0.291   0.000  0.00  0.00    +0.000 A 
ATOM     17  C   UNL     1      -1.924   0.270   0.000  0.00  0.00    +0.000 A 
ATOM     18  C   UNL     1      -1.136   0.027   0.000  0.00  0.00    +0.000 A 
BRANCH  16  19
ATOM     19  C   UNL     1      -3.317  -0.048   0.000  0.00  0.00    +0.000 A 
ATOM     20  C   UNL     1      -3.922  -0.609   0.000  0.00  0.00    +0.000 A 
ATOM     21  C   UNL     1      -4.711  -0.366   0.000  0.00  0.00    +0.000 A 
ATOM     22  C   UNL     1      -4.894   0.439   0.000  0.00  0.00    +0.000 A 
ATOM     23  C   UNL     1      -4.289   1.000   0.000  0.00  0.00    +0.000 A 
ATOM     24  C   UNL     1      -3.501   0.756   0.000  0.00  0.00    +0.000 A 
ENDBRANCH  16  19
ENDBRANCH  12  13
ENDBRANCH   9  12
ENDBRANCH   2   4
BRANCH   1  25
ATOM     25  C   UNL     1       3.244  -2.037   0.000  0.00  0.00    +0.000 C 
BRANCH  25  26
ATOM     26  N   UNL     1       3.657  -2.752   0.000  0.00  0.00    +0.000 NA
ATOM     27  C   UNL     1       4.482  -2.752   0.000  0.00  0.00    +0.000 C 
ATOM     28  C   UNL     1       4.894  -2.037   0.000  0.00  0.00    +0.000 C 
ATOM     29  O   UNL     1       4.894  -3.466   0.000  0.00  0.00    +0.000 OA
ENDBRANCH  25  26
BRANCH  25  30
ATOM     30  C   UNL     1       3.657  -1.323   0.000  0.00  0.00    +0.000 C 
BRANCH  30  36
ATOM     31  C   UNL     1       3.657   0.106   0.000  0.00  0.00    +0.000 A 
ATOM     32  C   UNL     1       3.244   0.821   0.000  0.00  0.00    +0.000 A 
ATOM     33  C   UNL     1       2.419   0.821   0.000  0.00  0.00    +0.000 A 
ATOM     34  C   UNL     1       2.007   0.106   0.000  0.00  0.00    +0.000 A 
ATOM     35  C   UNL     1       2.419  -0.608   0.000  0.00  0.00    +0.000 A 
ATOM     36  C   UNL     1       3.244  -0.608   0.000  0.00  0.00    +0.000 A 
BRANCH  34  37
ATOM     37  P   UNL     1       1.182   0.106   0.000  0.00  0.00    +0.000 P 
ATOM     38  O   UNL     1       0.357   0.106   0.000  0.00  0.00    +0.000 OA
ATOM     39  O   UNL     1       1.182  -0.719   0.000  0.00  0.00    +0.000 OA
ATOM     40  O   UNL     1       1.182   0.931   0.000  0.00  0.00    +0.000 OA
ENDBRANCH  34  37
BRANCH  33  41
ATOM     41  O   UNL     1       2.007   1.535   0.000  0.00  0.00    +0.000 OA
BRANCH  41  42
ATOM     42  C   UNL     1       2.419   2.250   0.000  0.00  0.00    +0.000 C 
BRANCH  42  43
ATOM     43  C   UNL     1       2.007   2.964   0.000  0.00  0.00    +0.000 C 
ATOM     44  O   UNL     1       2.419   3.679   0.000  0.00  0.00    +0.000 OA
ATOM     45  O   UNL     1       1.182   2.964   0.000  0.00  0.00    +0.000 OA
ENDBRANCH  42  43
ENDBRANCH  41  42
ENDBRANCH  33  41
ENDBRANCH  30  36
ENDBRANCH  25  30
ENDBRANCH   1  25
TORSDOF 12
