REMARK  Name = 
REMARK  5 active torsions:
REMARK  status: ('A' for Active; 'I' for Inactive)
REMARK    1  A    between atoms: O_2  and  C_3
REMARK    2  A    between atoms: C_7  and  O_8
REMARK    3  A    between atoms: O_8  and  C_9
REMARK    4  A    between atoms: C_15  and  C_16
REMARK    5  A    between atoms: N_18  and  C_19
REMARK                            x       y       z     vdW  Elec       q    Type
REMARK                         _______ _______ _______ _____ _____    ______ ____
ROOT
ATOM      1  C   UNL     1       4.287  -2.475   0.000  0.00  0.00    +0.000 A 
ATOM      2  C   UNL     1       4.287  -1.650   0.000  0.00  0.00    +0.000 A 
ATOM      3  C   UNL     1       5.001  -1.238   0.000  0.00  0.00    +0.000 A 
ATOM      4  C   UNL     1       5.001  -0.412   0.000  0.00  0.00    +0.000 A 
ATOM      5  C   UNL     1       5.716   0.000   0.000  0.00  0.00    +0.000 A 
ATOM      6  C   UNL     1       6.430  -0.412   0.000  0.00  0.00    +0.000 A 
ATOM      7  C   UNL     1       6.430  -1.238   0.000  0.00  0.00    +0.000 A 
ATOM      8  C   UNL     1       5.716  -1.650   0.000  0.00  0.00    +0.000 A 
ATOM      9  C   UNL     1       5.716  -2.475   0.000  0.00  0.00    +0.000 A 
ATOM     10  C   UNL     1       5.001  -2.888   0.000  0.00  0.00    +0.000 A 
ENDROOT
BRANCH   7  11
ATOM     11  C   UNL     1       7.145  -1.650   0.000  0.00  0.00    +0.000 C 
ATOM     12  O   UNL     1       7.145  -2.475   0.000  0.00  0.00    +0.000 OA
ATOM     13  N   UNL     1       7.859  -1.238   0.000  0.00  0.00    +0.000 NA
BRANCH  13  14
ATOM     14  C   UNL     1       8.574  -1.650   0.000  0.00  0.00    +0.000 A 
ATOM     15  C   UNL     1       9.288  -1.238   0.000  0.00  0.00    +0.000 A 
ATOM     16  C   UNL     1      10.003  -1.650   0.000  0.00  0.00    +0.000 A 
ATOM     17  C   UNL     1      10.003  -2.475   0.000  0.00  0.00    +0.000 A 
ATOM     18  C   UNL     1       9.288  -2.888   0.000  0.00  0.00    +0.000 A 
ATOM     19  C   UNL     1       8.574  -2.475   0.000  0.00  0.00    +0.000 A 
ATOM     20  N   UNL     1       7.859  -2.888   0.000  0.00  0.00    +0.000 NA
ENDBRANCH  13  14
ENDBRANCH   7  11
BRANCH   1  21
ATOM     21  O   UNL     1       3.572  -2.888   0.000  0.00  0.00    +0.000 OA
BRANCH  21  26
ATOM     22  C   UNL     1       1.429  -4.950   0.000  0.00  0.00    +0.000 A 
ATOM     23  C   UNL     1       1.429  -4.125   0.000  0.00  0.00    +0.000 A 
ATOM     24  C   UNL     1       2.143  -3.712   0.000  0.00  0.00    +0.000 A 
ATOM     25  C   UNL     1       2.858  -4.125   0.000  0.00  0.00    +0.000 A 
ATOM     26  C   UNL     1       3.572  -3.712   0.000  0.00  0.00    +0.000 A 
ATOM     27  C   UNL     1       4.287  -4.125   0.000  0.00  0.00    +0.000 A 
ATOM     28  C   UNL     1       4.287  -4.950   0.000  0.00  0.00    +0.000 A 
ATOM     29  N   UNL     1       3.572  -5.362   0.000  0.00  0.00    +0.000 NA
ATOM     30  C   UNL     1       2.858  -4.950   0.000  0.00  0.00    +0.000 A 
ATOM     31  C   UNL     1       2.143  -5.362   0.000  0.00  0.00    +0.000 A 
BRANCH  22  33
ATOM     32  C   UNL     1       0.715  -6.188   0.000  0.00  0.00    +0.000 C 
ATOM     33  O   UNL     1       0.715  -5.362   0.000  0.00  0.00    +0.000 OA
ENDBRANCH  22  33
ENDBRANCH  21  26
ENDBRANCH   1  21
TORSDOF 5
