REMARK  Name = 
REMARK  7 active torsions:
REMARK  status: ('A' for Active; 'I' for Inactive)
REMARK    1  A    between atoms: C_2  and  C_4
REMARK    2  A    between atoms: C_8  and  C_9
REMARK    3  A    between atoms: C_12  and  O_13
REMARK    4  A    between atoms: O_13  and  C_14
REMARK    5  A    between atoms: C_14  and  C_16
REMARK    6  A    between atoms: C_16  and  C_17
REMARK    7  A    between atoms: C_17  and  C_18
REMARK                            x       y       z     vdW  Elec       q    Type
REMARK                         _______ _______ _______ _____ _____    ______ ____
ROOT
ATOM      1  C   UNL     1       0.715  -0.412   0.000  0.00  0.00    +0.000 A 
ATOM      2  C   UNL     1       0.000   0.000   0.000  0.00  0.00    +0.000 A 
ATOM      3  C   UNL     1       0.000   0.825   0.000  0.00  0.00    +0.000 A 
ATOM      4  C   UNL     1       0.715   1.238   0.000  0.00  0.00    +0.000 A 
ATOM      5  C   UNL     1       1.429   0.825   0.000  0.00  0.00    +0.000 A 
ATOM      6  C   UNL     1       1.429   0.000   0.000  0.00  0.00    +0.000 A 
ENDROOT
BRANCH   1   8
ATOM      7  C   UNL     1       0.000  -1.650   0.000  0.00  0.00    +0.000 C 
ATOM      8  C   UNL     1       0.715  -1.238   0.000  0.00  0.00    +0.000 C 
ATOM      9  C   UNL     1       1.429  -1.650   0.000  0.00  0.00    +0.000 C 
ENDBRANCH   1   8
BRANCH   5  10
ATOM     10  C   UNL     1       2.143   1.238   0.000  0.00  0.00    +0.000 C 
ATOM     11  C   UNL     1       2.858   0.825   0.000  0.00  0.00    +0.000 C 
ATOM     12  C   UNL     1       2.143   2.062   0.000  0.00  0.00    +0.000 C 
ENDBRANCH   5  10
BRANCH   6  13
ATOM     13  O   UNL     1       2.143  -0.412   0.000  0.00  0.00    +0.000 OA
BRANCH  13  14
ATOM     14  C   UNL     1       2.858   0.000   0.000  0.00  0.00    +0.000 C 
ATOM     15  O   UNL     1       3.343   0.667   0.000  0.00  0.00    +0.000 OA
BRANCH  14  16
ATOM     16  C   UNL     1       3.572  -0.412   0.000  0.00  0.00    +0.000 C 
BRANCH  16  17
ATOM     17  C   UNL     1       4.287   0.000   0.000  0.00  0.00    +0.000 C 
BRANCH  17  18
ATOM     18  C   UNL     1       5.001  -0.412   0.000  0.00  0.00    +0.000 C 
ATOM     19  O   UNL     1       5.716   0.000   0.000  0.00  0.00    +0.000 OA
ATOM     20  O   UNL     1       5.001  -1.238   0.000  0.00  0.00    +0.000 OA
ENDBRANCH  17  18
ENDBRANCH  16  17
ENDBRANCH  14  16
ENDBRANCH  13  14
ENDBRANCH   6  13
TORSDOF 7
