REMARK  Name = 
REMARK  3 active torsions:
REMARK  status: ('A' for Active; 'I' for Inactive)
REMARK    1  A    between atoms: C_1  and  C_4
REMARK    2  A    between atoms: C_5  and  O_30
REMARK    3  A    between atoms: C_23  and  O_30
REMARK                            x       y       z     vdW  Elec       q    Type
REMARK                         _______ _______ _______ _____ _____    ______ ____
ROOT
ATOM      1  C   UNL     1       1.177   0.996   0.000  0.00  0.00    +0.000 C 
ATOM      2  C   UNL     1       1.177   1.811   0.000  0.00  0.00    +0.000 A 
ATOM      3  C   UNL     1       1.907   0.568   0.000  0.00  0.00    +0.000 C 
ATOM      4  C   UNL     1       0.491   0.610   0.000  0.00  0.00    +0.000 C 
ATOM      5  C   UNL     1       1.907   1.382   0.000  0.00  0.00    +0.000 C 
ATOM      6  C   UNL     1       0.491   2.197   0.000  0.00  0.00    +0.000 A 
ATOM      7  C   UNL     1       1.907   2.197   0.000  0.00  0.00    +0.000 A 
ATOM      8  C   UNL     1       2.593   0.996   0.000  0.00  0.00    +0.000 C 
ATOM      9  C   UNL     1       1.907  -0.204   0.000  0.00  0.00    +0.000 C 
ATOM     10  O   UNL     1      -0.324   1.425   0.000  0.00  0.00    +0.000 OA
ATOM     11  C   UNL     1       0.491  -0.204   0.000  0.00  0.00    +0.000 C 
ATOM     12  C   UNL     1       3.279   1.382   0.000  0.00  0.00    +0.000 C 
ATOM     13  C   UNL     1       0.491   3.012   0.000  0.00  0.00    +0.000 A 
ATOM     14  C   UNL     1       2.593   1.768   0.000  0.00  0.00    +0.000 C 
ATOM     15  C   UNL     1       1.907   3.012   0.000  0.00  0.00    +0.000 A 
ATOM     16  N   UNL     1       3.279   0.568   0.000  0.00  0.00    +0.000 NA
ATOM     17  C   UNL     1       1.177  -0.633   0.000  0.00  0.00    +0.000 C 
ATOM     18  C   UNL     1       1.220   3.398   0.000  0.00  0.00    +0.000 A 
ATOM     19  O   UNL     1      -0.195   3.398   0.000  0.00  0.00    +0.000 OA
ATOM     20  C   UNL     1       4.140   0.568   0.000  0.00  0.00    +0.000 C 
ENDROOT
BRANCH  11  21
ATOM     21  O   UNL     1      -0.195  -0.633   0.000  0.00  0.00    +0.000 OA
BRANCH  21  25
ATOM     22  C   UNL     1      -2.673  -1.245   0.000  0.00  0.00    +0.000 C 
ATOM     23  O   UNL     1      -1.927  -0.813   0.000  0.00  0.00    +0.000 OA
ATOM     24  C   UNL     1      -2.673  -2.102   0.000  0.00  0.00    +0.000 C 
ATOM     25  C   UNL     1      -1.174  -1.241   0.000  0.00  0.00    +0.000 C 
ATOM     26  C   UNL     1      -1.927  -2.538   0.000  0.00  0.00    +0.000 C 
ATOM     27  O   UNL     1      -3.414  -2.538   0.000  0.00  0.00    +0.000 OA
ATOM     28  C   UNL     1      -1.174  -2.102   0.000  0.00  0.00    +0.000 C 
ATOM     29  O   UNL     1      -1.927  -3.398   0.000  0.00  0.00    +0.000 OA
ATOM     30  O   UNL     1      -0.425  -2.538   0.000  0.00  0.00    +0.000 OA
BRANCH  22  31
ATOM     31  C   UNL     1      -3.323  -0.678   0.000  0.00  0.00    +0.000 C 
ATOM     32  O   UNL     1      -3.157   0.171   0.000  0.00  0.00    +0.000 OA
ATOM     33  O   UNL     1      -4.140  -0.960   0.000  0.00  0.00    +0.000 OA
ENDBRANCH  22  31
ENDBRANCH  21  25
ENDBRANCH  11  21
TORSDOF 3
