REMARK  Name = 
REMARK  1 active torsions:
REMARK  status: ('A' for Active; 'I' for Inactive)
REMARK    1  A    between atoms: C_3  and  N_7
REMARK                            x       y       z     vdW  Elec       q    Type
REMARK                         _______ _______ _______ _____ _____    ______ ____
ROOT
ATOM      1  C   UNL     1      -0.357  -0.412   0.000  0.00  0.00    +0.000 C 
ATOM      2  C   UNL     1      -1.072  -0.825   0.000  0.00  0.00    +0.000 C 
ATOM      3  C   UNL     1      -0.357   0.412   0.000  0.00  0.00    +0.000 C 
ATOM      4  C   UNL     1      -1.786  -0.412   0.000  0.00  0.00    +0.000 C 
ATOM      5  C   UNL     1      -1.072   0.825   0.000  0.00  0.00    +0.000 C 
ATOM      6  C   UNL     1      -1.786   0.412   0.000  0.00  0.00    +0.000 C 
ENDROOT
BRANCH   3   7
ATOM      7  N   UNL     1       0.357   0.825   0.000  0.00  0.00    +0.000 NA
ATOM      8  C   UNL     1       1.072   0.412   0.000  0.00  0.00    +0.000 C 
ATOM      9  O   UNL     1       1.072  -0.412   0.000  0.00  0.00    +0.000 OA
ENDBRANCH   3   7
TORSDOF 1
