REMARK  Name = 
REMARK  6 active torsions:
REMARK  status: ('A' for Active; 'I' for Inactive)
REMARK    1  A    between atoms: N_4  and  C_46
REMARK    2  A    between atoms: N_7  and  C_8
REMARK    3  A    between atoms: C_11  and  N_12
REMARK    4  A    between atoms: N_12  and  C_13
REMARK    5  A    between atoms: C_15  and  C_21
REMARK    6  A    between atoms: C_22  and  C_23
REMARK                            x       y       z     vdW  Elec       q    Type
REMARK                         _______ _______ _______ _____ _____    ______ ____
ROOT
ATOM      1  C   UNL     1       7.400   0.619   0.000  0.00  0.00    +0.000 A 
ATOM      2  C   UNL     1       6.836   1.221   0.000  0.00  0.00    +0.000 A 
ATOM      3  C   UNL     1       7.075   2.010   0.000  0.00  0.00    +0.000 A 
ATOM      4  C   UNL     1       7.878   2.198   0.000  0.00  0.00    +0.000 A 
ATOM      5  N   UNL     1       8.443   1.596   0.000  0.00  0.00    +0.000 N 
ATOM      6  C   UNL     1       9.246   1.783   0.000  0.00  0.00    +0.000 C 
ATOM      7  C   UNL     1       8.203   0.806   0.000  0.00  0.00    +0.000 A 
ATOM      8  O   UNL     1       8.767   0.204   0.000  0.00  0.00    +0.000 OA
ENDROOT
BRANCH   3   9
ATOM      9  C   UNL     1       6.511   2.612   0.000  0.00  0.00    +0.000 A 
ATOM     10  C   UNL     1       5.708   2.425   0.000  0.00  0.00    +0.000 A 
ATOM     11  C   UNL     1       5.144   3.027   0.000  0.00  0.00    +0.000 A 
ATOM     12  N   UNL     1       5.383   3.817   0.000  0.00  0.00    +0.000 NA
ATOM     13  C   UNL     1       6.186   4.004   0.000  0.00  0.00    +0.000 A 
ATOM     14  C   UNL     1       6.750   3.402   0.000  0.00  0.00    +0.000 A 
ATOM     15  N   UNL     1       4.340   2.840   0.000  0.00  0.00    +0.000 N 
ATOM     16  C   UNL     1       4.101   2.050   0.000  0.00  0.00    +0.000 C 
ATOM     17  C   UNL     1       3.297   1.863   0.000  0.00  0.00    +0.000 C 
ATOM     18  N   UNL     1       2.733   2.465   0.000  0.00  0.00    +0.000 N 
ATOM     19  C   UNL     1       2.973   3.254   0.000  0.00  0.00    +0.000 A 
ATOM     20  C   UNL     1       2.296   3.726   0.000  0.00  0.00    +0.000 A 
ATOM     21  C   UNL     1       1.638   3.228   0.000  0.00  0.00    +0.000 A 
ATOM     22  C   UNL     1       1.909   2.449   0.000  0.00  0.00    +0.000 A 
ATOM     23  C   UNL     1       1.251   1.951   0.000  0.00  0.00    +0.000 C 
ATOM     24  C   UNL     1       0.574   2.422   0.000  0.00  0.00    +0.000 C 
ATOM     25  C   UNL     1       0.175   1.700   0.000  0.00  0.00    +0.000 C 
ATOM     26  C   UNL     1      -0.186   2.743   0.000  0.00  0.00    +0.000 C 
ATOM     27  C   UNL     1       0.813   3.212   0.000  0.00  0.00    +0.000 C 
ATOM     28  C   UNL     1       3.776   3.442   0.000  0.00  0.00    +0.000 C 
ATOM     29  O   UNL     1       4.016   4.231   0.000  0.00  0.00    +0.000 OA
BRANCH  10  30
ATOM     30  C   UNL     1       5.468   1.635   0.000  0.00  0.00    +0.000 C 
ATOM     31  O   UNL     1       4.665   1.448   0.000  0.00  0.00    +0.000 OA
ENDBRANCH  10  30
ENDBRANCH   3   9
BRANCH   1  32
ATOM     32  N   UNL     1       7.160  -0.171   0.000  0.00  0.00    +0.000 NA
BRANCH  32  36
ATOM     33  C   UNL     1       8.852  -1.977   0.000  0.00  0.00    +0.000 A 
ATOM     34  C   UNL     1       8.049  -2.164   0.000  0.00  0.00    +0.000 A 
ATOM     35  C   UNL     1       7.485  -1.562   0.000  0.00  0.00    +0.000 A 
ATOM     36  C   UNL     1       7.724  -0.773   0.000  0.00  0.00    +0.000 A 
ATOM     37  N   UNL     1       8.528  -0.586   0.000  0.00  0.00    +0.000 NA
ATOM     38  C   UNL     1       9.092  -1.188   0.000  0.00  0.00    +0.000 A 
BRANCH  33  45
ATOM     39  C   UNL     1      10.459  -1.602   0.000  0.00  0.00    +0.000 C 
ATOM     40  C   UNL     1      10.220  -2.392   0.000  0.00  0.00    +0.000 C 
ATOM     41  C   UNL     1      10.784  -2.994   0.000  0.00  0.00    +0.000 C 
ATOM     42  N   UNL     1      10.544  -3.783   0.000  0.00  0.00    +0.000 NA
ATOM     43  C   UNL     1       9.741  -3.971   0.000  0.00  0.00    +0.000 C 
ATOM     44  C   UNL     1       9.177  -3.369   0.000  0.00  0.00    +0.000 C 
ATOM     45  N   UNL     1       9.416  -2.579   0.000  0.00  0.00    +0.000 N 
BRANCH  42  46
ATOM     46  C   UNL     1      11.108  -4.386   0.000  0.00  0.00    +0.000 C 
ATOM     47  C   UNL     1      11.933  -4.412   0.000  0.00  0.00    +0.000 C 
ATOM     48  O   UNL     1      11.906  -5.237   0.000  0.00  0.00    +0.000 OA
ATOM     49  C   UNL     1      11.081  -5.210   0.000  0.00  0.00    +0.000 C 
ENDBRANCH  42  46
ENDBRANCH  33  45
ENDBRANCH  32  36
ENDBRANCH   1  32
TORSDOF 6
