REMARK  Name = 
REMARK  5 active torsions:
REMARK  status: ('A' for Active; 'I' for Inactive)
REMARK    1  A    between atoms: C_1  and  C_6
REMARK    2  A    between atoms: C_2  and  C_3
REMARK    3  A    between atoms: N_5  and  N_11
REMARK    4  A    between atoms: N_7  and  C_17
REMARK    5  A    between atoms: C_8  and  C_23
REMARK                            x       y       z     vdW  Elec       q    Type
REMARK                         _______ _______ _______ _____ _____    ______ ____
ROOT
ATOM      1  C   UNL     1       0.483   1.299   0.000  0.00  0.00    +0.000 A 
ATOM      2  C   UNL     1       0.483   0.468   0.000  0.00  0.00    +0.000 A 
ATOM      3  N   UNL     1      -0.788   0.888   0.000  0.00  0.00    +0.000 N 
ATOM      4  C   UNL     1      -0.308   0.219   0.000  0.00  0.00    +0.000 A 
ATOM      5  N   UNL     1      -0.299   1.555   0.000  0.00  0.00    +0.000 NA
ENDROOT
BRANCH   3   6
ATOM      6  C   UNL     1      -1.611   0.888   0.000  0.00  0.00    +0.000 A 
ATOM      7  C   UNL     1      -2.843   0.176   0.000  0.00  0.00    +0.000 A 
ATOM      8  C   UNL     1      -2.023   0.175   0.000  0.00  0.00    +0.000 A 
ATOM      9  C   UNL     1      -3.255   0.889   0.000  0.00  0.00    +0.000 A 
ATOM     10  C   UNL     1      -2.024   1.604   0.000  0.00  0.00    +0.000 A 
ATOM     11  C   UNL     1      -2.847   1.599   0.000  0.00  0.00    +0.000 A 
ATOM     12 CL   UNL     1      -1.613   2.316   0.000  0.00  0.00    +0.000 Cl
ATOM     13 CL   UNL     1      -4.079   0.889   0.000  0.00  0.00    +0.000 Cl
ENDBRANCH   3   6
BRANCH   4  14
ATOM     14  C   UNL     1      -0.521  -0.576   0.000  0.00  0.00    +0.000 A 
ATOM     15  C   UNL     1      -0.153  -1.951   0.000  0.00  0.00    +0.000 A 
ATOM     16  C   UNL     1       0.060  -1.158   0.000  0.00  0.00    +0.000 A 
ATOM     17  C   UNL     1      -0.948  -2.164   0.000  0.00  0.00    +0.000 A 
ATOM     18  C   UNL     1      -1.320  -0.790   0.000  0.00  0.00    +0.000 A 
ATOM     19  C   UNL     1      -1.528  -1.586   0.000  0.00  0.00    +0.000 A 
ATOM     20 BR   UNL     1      -1.161  -2.959   0.000  0.00  0.00    +0.000 Br
ENDBRANCH   4  14
BRANCH   1  22
ATOM     21  N   UNL     1       1.921   1.299   0.000  0.00  0.00    +0.000 NA
ATOM     22  C   UNL     1       1.202   1.714   0.000  0.00  0.00    +0.000 C 
ATOM     23  O   UNL     1       1.202   2.544   0.000  0.00  0.00    +0.000 OA
BRANCH  21  25
ATOM     24  C   UNL     1       2.640   2.544   0.000  0.00  0.00    +0.000 C 
ATOM     25  N   UNL     1       2.640   1.714   0.000  0.00  0.00    +0.000 NA
ATOM     26  C   UNL     1       3.359   1.299   0.000  0.00  0.00    +0.000 C 
ATOM     27  C   UNL     1       4.079   1.714   0.000  0.00  0.00    +0.000 C 
ATOM     28  C   UNL     1       4.079   2.544   0.000  0.00  0.00    +0.000 C 
ATOM     29  C   UNL     1       3.359   2.959   0.000  0.00  0.00    +0.000 C 
ENDBRANCH  21  25
ENDBRANCH   1  22
BRANCH   2  30
ATOM     30  C   UNL     1       1.202   0.053   0.000  0.00  0.00    +0.000 C 
ATOM     31  C   UNL     1       1.921   0.468   0.000  0.00  0.00    +0.000 C 
ENDBRANCH   2  30
TORSDOF 5
