REMARK  Name = 
REMARK  7 active torsions:
REMARK  status: ('A' for Active; 'I' for Inactive)
REMARK    1  A    between atoms: C_2  and  O_4
REMARK    2  A    between atoms: O_4  and  C_5
REMARK    3  A    between atoms: C_5  and  C_7
REMARK    4  A    between atoms: C_8  and  C_28
REMARK    5  A    between atoms: C_16  and  O_20
REMARK    6  A    between atoms: O_20  and  C_21
REMARK    7  A    between atoms: C_28  and  O_29
REMARK                            x       y       z     vdW  Elec       q    Type
REMARK                         _______ _______ _______ _____ _____    ______ ____
ROOT
ATOM      1  C   UNL     1       3.705  -0.201   0.000  0.00  0.00    +0.000 A 
ATOM      2  C   UNL     1       2.898  -0.372   0.000  0.00  0.00    +0.000 A 
ATOM      3  C   UNL     1       2.346   0.241   0.000  0.00  0.00    +0.000 A 
ATOM      4  C   UNL     1       2.601   1.026   0.000  0.00  0.00    +0.000 A 
ATOM      5  C   UNL     1       3.408   1.197   0.000  0.00  0.00    +0.000 A 
ATOM      6  N   UNL     1       3.960   0.584   0.000  0.00  0.00    +0.000 NA
ATOM      7  N   UNL     1       1.934   1.510   0.000  0.00  0.00    +0.000 NA
ATOM      8  C   UNL     1       1.266   1.026   0.000  0.00  0.00    +0.000 A 
ATOM      9  C   UNL     1       1.521   0.241   0.000  0.00  0.00    +0.000 A 
ATOM     10  C   UNL     1       0.969  -0.372   0.000  0.00  0.00    +0.000 A 
ATOM     11  C   UNL     1       0.162  -0.201   0.000  0.00  0.00    +0.000 A 
ATOM     12  C   UNL     1      -0.092   0.584   0.000  0.00  0.00    +0.000 A 
ATOM     13  C   UNL     1       0.460   1.197   0.000  0.00  0.00    +0.000 A 
ENDROOT
BRANCH   1  14
ATOM     14  C   UNL     1       4.258  -0.814   0.000  0.00  0.00    +0.000 C 
ATOM     15  O   UNL     1       4.003  -1.598   0.000  0.00  0.00    +0.000 OA
BRANCH  14  16
ATOM     16  O   UNL     1       5.064  -0.642   0.000  0.00  0.00    +0.000 OA
BRANCH  16  18
ATOM     17  C   UNL     1       6.423  -1.084   0.000  0.00  0.00    +0.000 C 
ATOM     18  C   UNL     1       5.617  -1.255   0.000  0.00  0.00    +0.000 C 
ATOM     19  C   UNL     1       5.362  -2.040   0.000  0.00  0.00    +0.000 C 
ENDBRANCH  16  18
ENDBRANCH  14  16
ENDBRANCH   1  14
BRANCH   2  20
ATOM     20  C   UNL     1       2.643  -1.157   0.000  0.00  0.00    +0.000 C 
BRANCH  20  21
ATOM     21  O   UNL     1       3.196  -1.770   0.000  0.00  0.00    +0.000 OA
ATOM     22  C   UNL     1       2.941  -2.554   0.000  0.00  0.00    +0.000 C 
ENDBRANCH  20  21
ENDBRANCH   2  20
BRANCH  10  23
ATOM     23  O   UNL     1       1.224  -1.157   0.000  0.00  0.00    +0.000 OA
BRANCH  23  24
ATOM     24  C   UNL     1       0.672  -1.770   0.000  0.00  0.00    +0.000 A 
ATOM     25  C   UNL     1       0.927  -2.554   0.000  0.00  0.00    +0.000 A 
ATOM     26  C   UNL     1       0.375  -3.168   0.000  0.00  0.00    +0.000 A 
ATOM     27  C   UNL     1      -0.432  -2.996   0.000  0.00  0.00    +0.000 A 
ATOM     28  C   UNL     1      -0.687  -2.211   0.000  0.00  0.00    +0.000 A 
ATOM     29  C   UNL     1      -0.135  -1.598   0.000  0.00  0.00    +0.000 A 
ATOM     30 CL   UNL     1      -0.984  -3.609   0.000  0.00  0.00    +0.000 Cl
ENDBRANCH  23  24
ENDBRANCH  10  23
TORSDOF 7
