REMARK  Name = 
REMARK  7 active torsions:
REMARK  status: ('A' for Active; 'I' for Inactive)
REMARK    1  A    between atoms: C_1  and  C_4
REMARK    2  A    between atoms: C_9  and  C_17
REMARK    3  A    between atoms: C_19  and  N_24
REMARK    4  A    between atoms: N_24  and  C_26
REMARK    5  A    between atoms: N_24  and  C_27
REMARK    6  A    between atoms: N_25  and  C_28
REMARK    7  A    between atoms: N_25  and  C_29
REMARK                            x       y       z     vdW  Elec       q    Type
REMARK                         _______ _______ _______ _____ _____    ______ ____
ROOT
ATOM      1  C   UNL     1      -0.591   0.010   0.000  0.00  0.00    +0.000 A 
ATOM      2  C   UNL     1      -1.297   0.414   0.000  0.00  0.00    +0.000 A 
ATOM      3  C   UNL     1       0.115   0.452   0.000  0.00  0.00    +0.000 A 
ATOM      4  C   UNL     1      -1.297   1.248   0.000  0.00  0.00    +0.000 A 
ATOM      5  C   UNL     1      -2.040   0.010   0.000  0.00  0.00    +0.000 A 
ATOM      6  C   UNL     1       0.115   1.227   0.000  0.00  0.00    +0.000 A 
ATOM      7  C   UNL     1       0.820   0.038   0.000  0.00  0.00    +0.000 A 
ATOM      8  O   UNL     1      -0.591   1.655   0.000  0.00  0.00    +0.000 OA
ATOM      9  C   UNL     1      -2.040   1.655   0.000  0.00  0.00    +0.000 A 
ATOM     10  C   UNL     1      -2.739   0.452   0.000  0.00  0.00    +0.000 A 
ATOM     11  C   UNL     1       0.820   1.623   0.000  0.00  0.00    +0.000 A 
ATOM     12  C   UNL     1       1.526   0.452   0.000  0.00  0.00    +0.000 A 
ATOM     13  C   UNL     1      -2.739   1.227   0.000  0.00  0.00    +0.000 A 
ATOM     14  C   UNL     1       1.526   1.227   0.000  0.00  0.00    +0.000 A 
ATOM     15  N   UNL     1       2.256   1.575   0.000  0.00  0.00    +0.000 N 
ENDROOT
BRANCH   1  16
ATOM     16  C   UNL     1      -0.591  -1.248   0.000  0.00  0.00    +0.000 A 
ATOM     17  C   UNL     1       0.115  -1.651   0.000  0.00  0.00    +0.000 A 
ATOM     18  C   UNL     1      -1.297  -1.675   0.000  0.00  0.00    +0.000 A 
ATOM     19  C   UNL     1       0.115  -2.496   0.000  0.00  0.00    +0.000 A 
ATOM     20  C   UNL     1      -1.297  -2.496   0.000  0.00  0.00    +0.000 A 
ATOM     21  C   UNL     1      -0.591  -2.896   0.000  0.00  0.00    +0.000 A 
BRANCH  17  22
ATOM     22  C   UNL     1       0.845  -1.248   0.000  0.00  0.00    +0.000 C 
ATOM     23  O   UNL     1       1.550  -1.672   0.000  0.00  0.00    +0.000 OA
ATOM     24  O   UNL     1       0.865  -0.438   0.000  0.00  0.00    +0.000 OA
ENDBRANCH  17  22
ENDBRANCH   1  16
BRANCH  15  25
ATOM     25  C   UNL     1       2.315   2.405   0.000  0.00  0.00    +0.000 C 
ATOM     26  C   UNL     1       3.062   2.770   0.000  0.00  0.00    +0.000 C 
ENDBRANCH  15  25
BRANCH  15  27
ATOM     27  C   UNL     1       2.944   1.109   0.000  0.00  0.00    +0.000 C 
ATOM     28  C   UNL     1       3.692   1.474   0.000  0.00  0.00    +0.000 C 
ENDBRANCH  15  27
BRANCH  13  29
ATOM     29  N   UNL     1      -3.476   1.623   0.000  0.00  0.00    +0.000 N 
BRANCH  29  30
ATOM     30  C   UNL     1      -3.493   2.458   0.000  0.00  0.00    +0.000 C 
ATOM     31  C   UNL     1      -2.784   2.896   0.000  0.00  0.00    +0.000 C 
ENDBRANCH  29  30
BRANCH  29  32
ATOM     32  C   UNL     1      -4.182   1.189   0.000  0.00  0.00    +0.000 C 
ATOM     33  C   UNL     1      -4.915   1.585   0.000  0.00  0.00    +0.000 C 
ENDBRANCH  29  32
ENDBRANCH  13  29
TORSDOF 7
REMARK  Name = 
REMARK  7 active torsions:
REMARK  status: ('A' for Active; 'I' for Inactive)
REMARK    1  A    between atoms: C_1  and  C_4
REMARK    2  A    between atoms: C_9  and  C_17
REMARK    3  A    between atoms: C_19  and  N_24
REMARK    4  A    between atoms: N_24  and  C_26
REMARK    5  A    between atoms: N_24  and  C_27
REMARK    6  A    between atoms: N_25  and  C_28
REMARK    7  A    between atoms: N_25  and  C_29
REMARK                            x       y       z     vdW  Elec       q    Type
REMARK                         _______ _______ _______ _____ _____    ______ ____
ROOT
ATOM      1 CL   UNL     1       4.915   1.599   0.000  0.00  0.00    +0.000 Cl
ENDROOT
TORSDOF 0
