REMARK  Name = 
REMARK  3 active torsions:
REMARK  status: ('A' for Active; 'I' for Inactive)
REMARK    1  A    between atoms: C_2  and  C_4
REMARK    2  A    between atoms: C_8  and  C_9
REMARK    3  A    between atoms: C_9  and  C_11
REMARK                            x       y       z     vdW  Elec       q    Type
REMARK                         _______ _______ _______ _____ _____    ______ ____
ROOT
ATOM      1  C   UNL     1       1.127   2.301   0.000  0.00  0.00    +0.000 A 
ATOM      2  C   UNL     1       1.127   3.126   0.000  0.00  0.00    +0.000 A 
ATOM      3  C   UNL     1       1.841   3.538   0.000  0.00  0.00    +0.000 A 
ATOM      4  C   UNL     1       2.556   3.126   0.000  0.00  0.00    +0.000 A 
ATOM      5  C   UNL     1       2.556   2.301   0.000  0.00  0.00    +0.000 A 
ATOM      6  C   UNL     1       1.841   1.888   0.000  0.00  0.00    +0.000 A 
ATOM      7  O   UNL     1       1.841   1.063   0.000  0.00  0.00    +0.000 OA
ENDROOT
BRANCH   1   9
ATOM      8  C   UNL     1      -0.302   2.301   0.000  0.00  0.00    +0.000 C 
ATOM      9  C   UNL     1       0.412   1.888   0.000  0.00  0.00    +0.000 C 
ATOM     10  C   UNL     1       0.412   1.063   0.000  0.00  0.00    +0.000 C 
ENDBRANCH   1   9
BRANCH   5  11
ATOM     11  C   UNL     1       3.270   1.888   0.000  0.00  0.00    +0.000 C 
ATOM     12  C   UNL     1       3.985   2.301   0.000  0.00  0.00    +0.000 C 
BRANCH  11  13
ATOM     13  C   UNL     1       3.270   1.063   0.000  0.00  0.00    +0.000 C 
ATOM     14  C   UNL     1       3.683   0.349   0.000  0.00  0.00    +0.000 C 
ATOM     15  C   UNL     1       2.858   0.349   0.000  0.00  0.00    +0.000 C 
ENDBRANCH  11  13
ENDBRANCH   5  11
TORSDOF 3
