REMARK  Name = 
REMARK  2 active torsions:
REMARK  status: ('A' for Active; 'I' for Inactive)
REMARK    1  A    between atoms: C_1  and  C_3
REMARK    2  A    between atoms: C_3  and  C_6
REMARK                            x       y       z     vdW  Elec       q    Type
REMARK                         _______ _______ _______ _____ _____    ______ ____
ROOT
ATOM      1  C   UNL     1       1.193   0.782   0.000  0.00  0.00    +0.000 C 
ATOM      2  C   UNL     1       0.525   1.266   0.000  0.00  0.00    +0.000 C 
ATOM      3  C   UNL     1      -0.142   0.782   0.000  0.00  0.00    +0.000 C 
ATOM      4  C   UNL     1       0.113  -0.003   0.000  0.00  0.00    +0.000 C 
ATOM      5  O   UNL     1       0.525   2.091   0.000  0.00  0.00    +0.000 OA
ATOM      6  O   UNL     1      -0.927   1.036   0.000  0.00  0.00    +0.000 OA
ATOM      7  O   UNL     1       0.938  -0.003   0.000  0.00  0.00    +0.000 OA
ENDROOT
BRANCH   4   8
ATOM      8  C   UNL     1      -0.372  -0.670   0.000  0.00  0.00    +0.000 C 
ATOM      9  O   UNL     1      -1.193  -0.584   0.000  0.00  0.00    +0.000 OA
BRANCH   8  10
ATOM     10  C   UNL     1      -0.037  -1.424   0.000  0.00  0.00    +0.000 C 
ATOM     11  O   UNL     1      -0.521  -2.091   0.000  0.00  0.00    +0.000 OA
ENDBRANCH   8  10
ENDBRANCH   4   8
TORSDOF 2
