REMARK  Name = 
REMARK  9 active torsions:
REMARK  status: ('A' for Active; 'I' for Inactive)
REMARK    1  A    between atoms: SI_1  and  O_4
REMARK    2  A    between atoms: SI_1  and  O_5
REMARK    3  A    between atoms: SI_1  and  C_10
REMARK    4  A    between atoms: SI_2  and  O_4
REMARK    5  A    between atoms: SI_3  and  O_5
REMARK    6  A    between atoms: N_7  and  C_24
REMARK    7  A    between atoms: C_10  and  C_11
REMARK    8  A    between atoms: C_11  and  C_12
REMARK    9  A    between atoms: C_12  and  C_15
REMARK                            x       y       z     vdW  Elec       q    Type
REMARK                         _______ _______ _______ _____ _____    ______ ____
ROOT
ATOM      1  O   UNL     1      -1.074   0.096   0.000  0.00  0.00    +0.000 OA
ATOM      2  C   UNL     1       0.163  -0.619   0.000  0.00  0.00    +0.000 A 
ATOM      3  C   UNL     1      -0.662  -0.619   0.000  0.00  0.00    +0.000 A 
ATOM      4  C   UNL     1       0.576  -1.333   0.000  0.00  0.00    +0.000 A 
ATOM      5  C   UNL     1      -1.074  -1.333   0.000  0.00  0.00    +0.000 A 
ATOM      6  C   UNL     1       0.163  -2.048   0.000  0.00  0.00    +0.000 A 
ATOM      7  C   UNL     1      -0.662  -2.048   0.000  0.00  0.00    +0.000 A 
ATOM      8  C   UNL     1       0.576  -2.762   0.000  0.00  0.00    +0.000 C 
ENDROOT
BRANCH   5   9
ATOM      9  N   UNL     1      -1.899  -1.333   0.000  0.00  0.00    +0.000 N 
ATOM     10  N   UNL     1      -2.381  -0.669   0.000  0.00  0.00    +0.000 NA
ATOM     11  N   UNL     1      -2.381  -1.997   0.000  0.00  0.00    +0.000 NA
ATOM     12  C   UNL     1      -3.161  -0.921   0.000  0.00  0.00    +0.000 A 
ATOM     13  C   UNL     1      -3.161  -1.746   0.000  0.00  0.00    +0.000 A 
ATOM     14  C   UNL     1      -3.876  -0.508   0.000  0.00  0.00    +0.000 A 
ATOM     15  C   UNL     1      -3.876  -2.158   0.000  0.00  0.00    +0.000 A 
ATOM     16  C   UNL     1      -4.590  -0.921   0.000  0.00  0.00    +0.000 A 
ATOM     17  C   UNL     1      -4.590  -1.746   0.000  0.00  0.00    +0.000 A 
ENDBRANCH   5   9
BRANCH   2  18
ATOM     18  C   UNL     1       0.576   0.096   0.000  0.00  0.00    +0.000 C 
BRANCH  18  19
ATOM     19  C   UNL     1       1.401   0.096   0.000  0.00  0.00    +0.000 C 
ATOM     20  C   UNL     1       1.813  -0.619   0.000  0.00  0.00    +0.000 C 
BRANCH  19  21
ATOM     21  C   UNL     1       1.813   0.810   0.000  0.00  0.00    +0.000 C 
BRANCH  21  22
ATOM     22 SI   UNL     1       2.638   0.810   0.000  0.00  0.00    +0.000 Si
ATOM     23  C   UNL     1       2.638  -0.015   0.000  0.00  0.00    +0.000 C 
BRANCH  22  24
ATOM     24  O   UNL     1       2.638   1.635   0.000  0.00  0.00    +0.000 OA
BRANCH  24  25
ATOM     25 SI   UNL     1       1.924   2.048   0.000  0.00  0.00    +0.000 Si
ATOM     26  C   UNL     1       1.209   2.460   0.000  0.00  0.00    +0.000 C 
ATOM     27  C   UNL     1       2.336   2.762   0.000  0.00  0.00    +0.000 C 
ATOM     28  C   UNL     1       1.511   1.333   0.000  0.00  0.00    +0.000 C 
ENDBRANCH  24  25
ENDBRANCH  22  24
BRANCH  22  29
ATOM     29  O   UNL     1       3.463   0.810   0.000  0.00  0.00    +0.000 OA
BRANCH  29  30
ATOM     30 SI   UNL     1       3.876   1.525   0.000  0.00  0.00    +0.000 Si
ATOM     31  C   UNL     1       4.288   2.239   0.000  0.00  0.00    +0.000 C 
ATOM     32  C   UNL     1       4.590   1.112   0.000  0.00  0.00    +0.000 C 
ATOM     33  C   UNL     1       3.161   1.937   0.000  0.00  0.00    +0.000 C 
ENDBRANCH  29  30
ENDBRANCH  22  29
ENDBRANCH  21  22
ENDBRANCH  19  21
ENDBRANCH  18  19
ENDBRANCH   2  18
TORSDOF 9
