REMARK  Name = 
REMARK  7 active torsions:
REMARK  status: ('A' for Active; 'I' for Inactive)
REMARK    1  A    between atoms: C_1  and  C_24
REMARK    2  A    between atoms: C_1  and  C_55
REMARK    3  A    between atoms: C_18  and  C_21
REMARK    4  A    between atoms: C_29  and  C_30
REMARK    5  A    between atoms: C_35  and  C_44
REMARK    6  A    between atoms: C_51  and  O_52
REMARK    7  A    between atoms: C_55  and  O_57
REMARK                            x       y       z     vdW  Elec       q    Type
REMARK                         _______ _______ _______ _____ _____    ______ ____
ROOT
ATOM      1  C   UNL     1      -0.087  -0.837   0.000  0.00  0.00    +0.000 A 
ATOM      2  C   UNL     1       0.608  -0.485   0.000  0.00  0.00    +0.000 A 
ATOM      3  C   UNL     1       1.303  -0.861   0.000  0.00  0.00    +0.000 A 
ATOM      4  C   UNL     1       2.639  -0.861   0.000  0.00  0.00    +0.000 C 
ATOM      5  C   UNL     1       2.639  -1.652   0.000  0.00  0.00    +0.000 C 
ATOM      6  C   UNL     1       3.295  -2.159   0.000  0.00  0.00    +0.000 C 
ATOM      7  O   UNL     1       2.656  -3.175   0.000  0.00  0.00    +0.000 OA
ATOM      8  C   UNL     1       4.091  -1.739   0.000  0.00  0.00    +0.000 C 
ATOM      9  C   UNL     1       4.091  -0.837   0.000  0.00  0.00    +0.000 C 
ATOM     10  C   UNL     1       3.382  -0.456   0.000  0.00  0.00    +0.000 C 
ATOM     11  N   UNL     1       3.382   0.369   0.000  0.00  0.00    +0.000 NA
ATOM     12  C   UNL     1       4.115   0.798   0.000  0.00  0.00    +0.000 C 
ATOM     13  C   UNL     1       4.820   0.369   0.000  0.00  0.00    +0.000 C 
ATOM     14  C   UNL     1       4.820  -0.523   0.000  0.00  0.00    +0.000 C 
ATOM     15  C   UNL     1       1.954   0.369   0.000  0.00  0.00    +0.000 C 
ATOM     16  C   UNL     1       1.954  -0.374   0.000  0.00  0.00    +0.000 C 
ATOM     17  O   UNL     1       4.907  -2.212   0.000  0.00  0.00    +0.000 OA
ATOM     18  N   UNL     1       2.075  -1.951   0.000  0.00  0.00    +0.000 N 
ATOM     19  C   UNL     1       1.303  -1.638   0.000  0.00  0.00    +0.000 A 
ATOM     20  C   UNL     1       0.608  -2.029   0.000  0.00  0.00    +0.000 A 
ATOM     21  C   UNL     1      -0.087  -1.652   0.000  0.00  0.00    +0.000 A 
ATOM     22  C   UNL     1       1.713  -2.702   0.000  0.00  0.00    +0.000 C 
ENDROOT
BRANCH   1  23
ATOM     23  C   UNL     1      -1.983   0.220   0.000  0.00  0.00    +0.000 C 
ATOM     24  C   UNL     1      -2.692   0.649   0.000  0.00  0.00    +0.000 A 
ATOM     25  C   UNL     1      -2.692   1.459   0.000  0.00  0.00    +0.000 A 
ATOM     26  C   UNL     1      -4.053   1.459   0.000  0.00  0.00    +0.000 A 
ATOM     27  C   UNL     1      -4.743   1.845   0.000  0.00  0.00    +0.000 A 
ATOM     28  C   UNL     1      -5.413   1.459   0.000  0.00  0.00    +0.000 A 
ATOM     29  C   UNL     1      -5.413   0.683   0.000  0.00  0.00    +0.000 A 
ATOM     30  C   UNL     1      -4.743   0.292   0.000  0.00  0.00    +0.000 A 
ATOM     31  C   UNL     1      -4.053   0.683   0.000  0.00  0.00    +0.000 A 
ATOM     32  N   UNL     1      -3.377   0.292   0.000  0.00  0.00    +0.000 NA
ATOM     33  C   UNL     1      -3.459   1.894   0.000  0.00  0.00    +0.000 C 
ATOM     34  C   UNL     1      -3.459   2.762   0.000  0.00  0.00    +0.000 C 
ATOM     35  N   UNL     1      -2.050   2.762   0.000  0.00  0.00    +0.000 NA
ATOM     36  C   UNL     1      -2.050   1.899   0.000  0.00  0.00    +0.000 C 
ATOM     37  C   UNL     1      -1.264   1.556   0.000  0.00  0.00    +0.000 C 
ATOM     38  C   UNL     1      -1.264   0.668   0.000  0.00  0.00    +0.000 C 
ATOM     39  C   UNL     1      -0.569   1.947   0.000  0.00  0.00    +0.000 C 
ATOM     40  C   UNL     1      -0.569   2.820   0.000  0.00  0.00    +0.000 C 
ATOM     41  C   UNL     1      -1.288   3.220   0.000  0.00  0.00    +0.000 C 
ATOM     42  O   UNL     1      -0.125   3.510   0.000  0.00  0.00    +0.000 OA
BRANCH  40  43
ATOM     43  C   UNL     1       0.207   2.497   0.000  0.00  0.00    +0.000 C 
ATOM     44  C   UNL     1       0.864   3.008   0.000  0.00  0.00    +0.000 C 
ENDBRANCH  40  43
BRANCH  23  45
ATOM     45  C   UNL     1      -1.983  -0.803   0.000  0.00  0.00    +0.000 C 
ATOM     46  O   UNL     1      -1.322  -1.131   0.000  0.00  0.00    +0.000 OA
BRANCH  45  47
ATOM     47  O   UNL     1      -2.518  -1.339   0.000  0.00  0.00    +0.000 OA
ATOM     48  C   UNL     1      -3.343  -0.885   0.000  0.00  0.00    +0.000 C 
ENDBRANCH  45  47
ENDBRANCH  23  45
ENDBRANCH   1  23
BRANCH   6  49
ATOM     49  C   UNL     1       3.826  -2.695   0.000  0.00  0.00    +0.000 C 
ATOM     50  O   UNL     1       4.545  -2.695   0.000  0.00  0.00    +0.000 OA
ATOM     51  N   UNL     1       3.741  -3.510   0.000  0.00  0.00    +0.000 NA
ENDBRANCH   6  49
BRANCH   9  52
ATOM     52  C   UNL     1       4.940  -1.170   0.000  0.00  0.00    +0.000 C 
ATOM     53  C   UNL     1       5.413  -0.779   0.000  0.00  0.00    +0.000 C 
ENDBRANCH   9  52
BRANCH  21  54
ATOM     54  O   UNL     1      -0.796  -2.091   0.000  0.00  0.00    +0.000 OA
ATOM     55  C   UNL     1      -1.568  -1.744   0.000  0.00  0.00    +0.000 C 
ENDBRANCH  21  54
TORSDOF 7
