REMARK  Name = 
REMARK  7 active torsions:
REMARK  status: ('A' for Active; 'I' for Inactive)
REMARK    1  A    between atoms: CA_4  and  N_9
REMARK    2  A    between atoms: CA_5  and  C_10
REMARK    3  A    between atoms: C_6  and  C_12
REMARK    4  A    between atoms: N_8  and  C_12
REMARK    5  A    between atoms: C_11  and  C_14
REMARK    6  A    between atoms: C_14  and  C_16
REMARK    7  A    between atoms: C_15  and  C_19
REMARK                            x       y       z     vdW  Elec       q    Type
REMARK                         _______ _______ _______ _____ _____    ______ ____
ROOT
ATOM      1  N   UNL     1       0.257   1.387   0.000  0.00  0.00    +0.000 N 
ATOM      2  C   UNL     1      -0.459   1.811   0.000  0.00  0.00    +0.000 C 
ATOM      3  C   UNL     1      -0.153   0.666   0.000  0.00  0.00    +0.000 C 
ATOM      4  CA  UNL     1      -0.874   1.100   0.000  0.00  0.00    +0.000 C 
ATOM      5  CA  UNL     1       1.081   1.387   0.000  0.00  0.00    +0.000 C 
ATOM      6  C   UNL     1       1.505   0.666   0.000  0.00  0.00    +0.000 C 
ATOM      7  S   UNL     1       0.257  -0.054   0.000  0.00  0.00    +0.000 S 
ATOM      8  C   UNL     1       1.081  -0.054   0.000  0.00  0.00    +0.000 C 
ATOM      9  O   UNL     1      -0.445   2.668   0.000  0.00  0.00    +0.000 OA
ENDROOT
BRANCH   5  10
ATOM     10  C   UNL     1       1.519   2.117   0.000  0.00  0.00    +0.000 C 
ATOM     11  O   UNL     1       1.104   2.837   0.000  0.00  0.00    +0.000 OA
ATOM     12  OXT UNL     1       2.352   2.093   0.000  0.00  0.00    +0.000 OA
ENDBRANCH   5  10
BRANCH   4  13
ATOM     13  N   UNL     1      -1.420   1.698   0.000  0.00  0.00    +0.000 NA
ATOM     14  C   UNL     1      -2.230   1.523   0.000  0.00  0.00    +0.000 C 
ATOM     15  O   UNL     1      -2.479   0.751   0.000  0.00  0.00    +0.000 OA
BRANCH  14  16
ATOM     16  C   UNL     1      -2.776   2.145   0.000  0.00  0.00    +0.000 C 
BRANCH  16  17
ATOM     17  C   UNL     1      -3.582   1.966   0.000  0.00  0.00    +0.000 A 
ATOM     18  S   UNL     1      -4.231   2.432   0.000  0.00  0.00    +0.000 S 
ATOM     19  C   UNL     1      -4.881   1.933   0.000  0.00  0.00    +0.000 A 
ATOM     20  C   UNL     1      -3.826   1.198   0.000  0.00  0.00    +0.000 A 
ATOM     21  C   UNL     1      -4.632   1.198   0.000  0.00  0.00    +0.000 A 
ENDBRANCH  16  17
ENDBRANCH  14  16
ENDBRANCH   4  13
BRANCH   6  22
ATOM     22  C   UNL     1       2.333   0.676   0.000  0.00  0.00    +0.000 C 
BRANCH  22  23
ATOM     23  N   UNL     1       2.743  -0.002   0.000  0.00  0.00    +0.000 N 
ATOM     24  C   UNL     1       3.605  -1.410   0.000  0.00  0.00    +0.000 A 
ATOM     25  C   UNL     1       2.352  -0.732   0.000  0.00  0.00    +0.000 A 
ATOM     26  C   UNL     1       3.567   0.012   0.000  0.00  0.00    +0.000 A 
ATOM     27  C   UNL     1       3.991  -0.690   0.000  0.00  0.00    +0.000 A 
ATOM     28  C   UNL     1       2.762  -1.429   0.000  0.00  0.00    +0.000 A 
BRANCH  24  29
ATOM     29  C   UNL     1       4.048  -2.103   0.000  0.00  0.00    +0.000 C 
ATOM     30  O   UNL     1       3.680  -2.837   0.000  0.00  0.00    +0.000 OA
ATOM     31  N   UNL     1       4.881  -2.065   0.000  0.00  0.00    +0.000 NA
ENDBRANCH  24  29
ENDBRANCH  22  23
ENDBRANCH   6  22
TORSDOF 7
