REMARK  Name = 
REMARK  3 active torsions:
REMARK  status: ('A' for Active; 'I' for Inactive)
REMARK    1  A    between atoms: C_4  and  N_12
REMARK    2  A    between atoms: C_13  and  C_15
REMARK    3  A    between atoms: C_20  and  C_21
REMARK                            x       y       z     vdW  Elec       q    Type
REMARK                         _______ _______ _______ _____ _____    ______ ____
ROOT
ATOM      1  N   UNL     1       4.067   0.127   0.000  0.00  0.00    +0.000 NA
ATOM      2  C   UNL     1       4.067   0.952   0.000  0.00  0.00    +0.000 C 
ATOM      3  O   UNL     1       3.352   1.365   0.000  0.00  0.00    +0.000 OA
ENDROOT
BRANCH   1   7
ATOM      4  B   UNL     1       1.139  -0.030   0.000  0.00  0.00    +0.000 B 
ATOM      5  C   UNL     1       1.923  -0.285   0.000  0.00  0.00    +0.000 A 
ATOM      6  C   UNL     1       2.638   0.127   0.000  0.00  0.00    +0.000 A 
ATOM      7  C   UNL     1       3.352  -0.285   0.000  0.00  0.00    +0.000 A 
ATOM      8  C   UNL     1       3.352  -1.110   0.000  0.00  0.00    +0.000 A 
ATOM      9  C   UNL     1       2.638  -1.523   0.000  0.00  0.00    +0.000 A 
ATOM     10  C   UNL     1       1.923  -1.110   0.000  0.00  0.00    +0.000 A 
ATOM     11  C   UNL     1       1.139  -1.365   0.000  0.00  0.00    +0.000 C 
ATOM     12  O   UNL     1       0.654  -0.698   0.000  0.00  0.00    +0.000 OA
ATOM     13  C   UNL     1       1.302  -2.174   0.000  0.00  0.00    +0.000 C 
ATOM     14  C   UNL     1       0.531  -1.924   0.000  0.00  0.00    +0.000 C 
ATOM     15  O   UNL     1       0.884   0.754   0.000  0.00  0.00    +0.000 OA
ENDBRANCH   1   7
BRANCH   2  16
ATOM     16  C   UNL     1       4.781   1.365   0.000  0.00  0.00    +0.000 A 
ATOM     17  C   UNL     1       4.781   2.190   0.000  0.00  0.00    +0.000 A 
ATOM     18  C   UNL     1       5.496   2.602   0.000  0.00  0.00    +0.000 A 
ATOM     19  C   UNL     1       6.210   2.190   0.000  0.00  0.00    +0.000 A 
ATOM     20  C   UNL     1       6.210   1.365   0.000  0.00  0.00    +0.000 A 
ATOM     21  C   UNL     1       5.496   0.952   0.000  0.00  0.00    +0.000 A 
ATOM     22  F   UNL     1       6.925   2.602   0.000  0.00  0.00    +0.000 F 
BRANCH  21  23
ATOM     23  C   UNL     1       5.496   0.127   0.000  0.00  0.00    +0.000 C 
ATOM     24  F   UNL     1       5.496  -0.698   0.000  0.00  0.00    +0.000 F 
ATOM     25  F   UNL     1       4.671   0.127   0.000  0.00  0.00    +0.000 F 
ATOM     26  F   UNL     1       6.321   0.127   0.000  0.00  0.00    +0.000 F 
ENDBRANCH  21  23
ENDBRANCH   2  16
TORSDOF 3
