REMARK  Name = 
REMARK  8 active torsions:
REMARK  status: ('A' for Active; 'I' for Inactive)
REMARK    1  A    between atoms: C_2  and  C_6
REMARK    2  A    between atoms: C_5  and  C_17
REMARK    3  A    between atoms: C_9  and  C_12
REMARK    4  A    between atoms: N_19  and  C_20
REMARK    5  A    between atoms: C_20  and  C_21
REMARK    6  A    between atoms: C_24  and  O_27
REMARK    7  A    between atoms: O_27  and  C_28
REMARK    8  A    between atoms: C_28  and  C_31
REMARK                            x       y       z     vdW  Elec       q    Type
REMARK                         _______ _______ _______ _____ _____    ______ ____
ROOT
ATOM      1  C   UNL     1      -0.024   0.558   0.000  0.00  0.00    +0.000 C 
ATOM      2  O   UNL     1      -0.029   1.383   0.000  0.00  0.00    +0.000 OA
ATOM      3  N   UNL     1       0.688   0.146   0.000  0.00  0.00    +0.000 NA
ENDROOT
BRANCH   1   8
ATOM      4  S   UNL     1      -1.403   0.625   0.000  0.00  0.00    +0.000 S 
ATOM      5  C   UNL     1      -2.077   0.138   0.000  0.00  0.00    +0.000 A 
ATOM      6  N   UNL     1      -1.820  -0.650   0.000  0.00  0.00    +0.000 NA
ATOM      7  C   UNL     1      -0.991  -0.650   0.000  0.00  0.00    +0.000 A 
ATOM      8  C   UNL     1      -0.734   0.138   0.000  0.00  0.00    +0.000 A 
ATOM      9  C   UNL     1      -0.587  -1.362   0.000  0.00  0.00    +0.000 C 
BRANCH   5  10
ATOM     10  C   UNL     1      -2.903   0.142   0.000  0.00  0.00    +0.000 A 
ATOM     11  C   UNL     1      -3.312   0.861   0.000  0.00  0.00    +0.000 A 
ATOM     12  C   UNL     1      -4.138   0.865   0.000  0.00  0.00    +0.000 A 
ATOM     13  C   UNL     1      -4.555   0.151   0.000  0.00  0.00    +0.000 A 
ATOM     14  C   UNL     1      -4.140  -0.569   0.000  0.00  0.00    +0.000 A 
ATOM     15  C   UNL     1      -3.316  -0.570   0.000  0.00  0.00    +0.000 A 
BRANCH  13  16
ATOM     16  C   UNL     1      -5.382   0.158   0.000  0.00  0.00    +0.000 C 
ATOM     17  F   UNL     1      -5.599   0.958   0.000  0.00  0.00    +0.000 F 
ATOM     18  F   UNL     1      -5.970  -0.425   0.000  0.00  0.00    +0.000 F 
ATOM     19  F   UNL     1      -5.170  -0.637   0.000  0.00  0.00    +0.000 F 
ENDBRANCH  13  16
ENDBRANCH   5  10
ENDBRANCH   1   8
BRANCH   3  20
ATOM     20  C   UNL     1       1.401   0.562   0.000  0.00  0.00    +0.000 C 
BRANCH  20  21
ATOM     21  C   UNL     1       2.113   0.150   0.000  0.00  0.00    +0.000 A 
ATOM     22  C   UNL     1       2.109  -0.674   0.000  0.00  0.00    +0.000 A 
ATOM     23  C   UNL     1       2.821  -1.087   0.000  0.00  0.00    +0.000 A 
ATOM     24  C   UNL     1       3.535  -0.676   0.000  0.00  0.00    +0.000 A 
ATOM     25  C   UNL     1       3.534   0.152   0.000  0.00  0.00    +0.000 A 
ATOM     26  C   UNL     1       2.821   0.560   0.000  0.00  0.00    +0.000 A 
BRANCH  24  27
ATOM     27  O   UNL     1       4.246  -1.087   0.000  0.00  0.00    +0.000 OA
BRANCH  27  28
ATOM     28  C   UNL     1       4.959  -0.671   0.000  0.00  0.00    +0.000 C 
ATOM     29  C   UNL     1       5.367  -1.383   0.000  0.00  0.00    +0.000 C 
ATOM     30  C   UNL     1       5.784  -0.671   0.000  0.00  0.00    +0.000 C 
BRANCH  28  31
ATOM     31  C   UNL     1       5.171   0.129   0.000  0.00  0.00    +0.000 C 
ATOM     32  O   UNL     1       5.970   0.345   0.000  0.00  0.00    +0.000 OA
ATOM     33  O   UNL     1       4.584   0.713   0.000  0.00  0.00    +0.000 OA
ENDBRANCH  28  31
ENDBRANCH  27  28
ENDBRANCH  24  27
ENDBRANCH  20  21
ENDBRANCH   3  20
TORSDOF 8
