REMARK  Name = 
REMARK  14 active torsions:
REMARK  status: ('A' for Active; 'I' for Inactive)
REMARK    1  A    between atoms: P_1  and  C_2
REMARK    2  A    between atoms: P_1  and  N_19
REMARK    3  A    between atoms: P_1  and  N_28
REMARK    4  A    between atoms: C_4  and  C_7
REMARK    5  A    between atoms: C_11  and  C_12
REMARK    6  A    between atoms: C_12  and  C_13
REMARK    7  A    between atoms: N_19  and  C_20
REMARK    8  A    between atoms: C_20  and  C_21
REMARK    9  A    between atoms: C_21  and  O_23
REMARK   10  A    between atoms: O_23  and  C_24
REMARK   11  A    between atoms: N_28  and  C_29
REMARK   12  A    between atoms: C_29  and  C_30
REMARK   13  A    between atoms: C_30  and  O_32
REMARK   14  A    between atoms: O_32  and  C_33
REMARK                            x       y       z     vdW  Elec       q    Type
REMARK                         _______ _______ _______ _____ _____    ______ ____
ROOT
ATOM      1  P   UNL     1      -0.000   2.097   0.000  0.00  0.00    +0.000 P 
ATOM      2  O   UNL     1      -0.000   3.016   0.000  0.00  0.00    +0.000 OA
ENDROOT
BRANCH   1   3
ATOM      3  C   UNL     1      -0.000   1.274   0.000  0.00  0.00    +0.000 A 
ATOM      4  O   UNL     1       0.667   0.786   0.000  0.00  0.00    +0.000 OA
ATOM      5  C   UNL     1       0.412   0.003   0.000  0.00  0.00    +0.000 A 
ATOM      6  C   UNL     1      -0.412   0.003   0.000  0.00  0.00    +0.000 A 
ATOM      7  C   UNL     1      -0.667   0.786   0.000  0.00  0.00    +0.000 A 
BRANCH   5   8
ATOM      8  C   UNL     1       0.899  -0.665   0.000  0.00  0.00    +0.000 A 
ATOM      9  N   UNL     1       1.723  -0.665   0.000  0.00  0.00    +0.000 NA
ATOM     10  C   UNL     1       1.979  -1.448   0.000  0.00  0.00    +0.000 A 
ATOM     11  S   UNL     1       1.311  -1.936   0.000  0.00  0.00    +0.000 S 
ATOM     12  C   UNL     1       0.644  -1.448   0.000  0.00  0.00    +0.000 A 
ATOM     13  N   UNL     1       2.762  -1.704   0.000  0.00  0.00    +0.000 NA
BRANCH  12  14
ATOM     14  C   UNL     1      -0.144  -1.704   0.000  0.00  0.00    +0.000 C 
ATOM     15  O   UNL     1      -0.755  -1.151   0.000  0.00  0.00    +0.000 OA
BRANCH  14  16
ATOM     16  C   UNL     1      -0.269  -2.521   0.000  0.00  0.00    +0.000 C 
ATOM     17  C   UNL     1       0.369  -3.037   0.000  0.00  0.00    +0.000 C 
ATOM     18  C   UNL     1      -0.398  -3.333   0.000  0.00  0.00    +0.000 C 
ATOM     19  C   UNL     1      -1.041  -2.812   0.000  0.00  0.00    +0.000 C 
ENDBRANCH  14  16
ENDBRANCH  12  14
ENDBRANCH   5   8
ENDBRANCH   1   3
BRANCH   1  20
ATOM     20  N   UNL     1       0.715   2.509   0.000  0.00  0.00    +0.000 NA
BRANCH  20  21
ATOM     21  C   UNL     1       1.430   2.097   0.000  0.00  0.00    +0.000 C 
ATOM     22  C   UNL     1       1.018   1.383   0.000  0.00  0.00    +0.000 C 
ATOM     23  C   UNL     1       1.842   1.383   0.000  0.00  0.00    +0.000 C 
BRANCH  21  24
ATOM     24  C   UNL     1       2.145   2.509   0.000  0.00  0.00    +0.000 C 
ATOM     25  O   UNL     1       2.145   3.333   0.000  0.00  0.00    +0.000 OA
BRANCH  24  26
ATOM     26  O   UNL     1       2.855   2.097   0.000  0.00  0.00    +0.000 OA
BRANCH  26  27
ATOM     27  C   UNL     1       3.570   2.509   0.000  0.00  0.00    +0.000 C 
ATOM     28  C   UNL     1       4.285   2.097   0.000  0.00  0.00    +0.000 C 
ENDBRANCH  26  27
ENDBRANCH  24  26
ENDBRANCH  21  24
ENDBRANCH  20  21
ENDBRANCH   1  20
BRANCH   1  29
ATOM     29  N   UNL     1      -0.715   2.509   0.000  0.00  0.00    +0.000 NA
BRANCH  29  30
ATOM     30  C   UNL     1      -1.430   2.097   0.000  0.00  0.00    +0.000 C 
ATOM     31  C   UNL     1      -1.842   1.383   0.000  0.00  0.00    +0.000 C 
ATOM     32  C   UNL     1      -1.018   1.383   0.000  0.00  0.00    +0.000 C 
BRANCH  30  33
ATOM     33  C   UNL     1      -2.145   2.509   0.000  0.00  0.00    +0.000 C 
ATOM     34  O   UNL     1      -2.145   3.333   0.000  0.00  0.00    +0.000 OA
BRANCH  33  35
ATOM     35  O   UNL     1      -2.855   2.097   0.000  0.00  0.00    +0.000 OA
BRANCH  35  36
ATOM     36  C   UNL     1      -3.570   2.509   0.000  0.00  0.00    +0.000 C 
ATOM     37  C   UNL     1      -4.285   2.097   0.000  0.00  0.00    +0.000 C 
ENDBRANCH  35  36
ENDBRANCH  33  35
ENDBRANCH  30  33
ENDBRANCH  29  30
ENDBRANCH   1  29
TORSDOF 14
