REMARK  Name = 
REMARK  0 active torsions:
REMARK  status: ('A' for Active; 'I' for Inactive)
REMARK                            x       y       z     vdW  Elec       q    Type
REMARK                         _______ _______ _______ _____ _____    ______ ____
ROOT
ATOM      1  C   UNL     1       1.017   0.621   0.000  0.00  0.00    +0.000 A 
ATOM      2  N   UNL     1       0.762  -0.164   0.000  0.00  0.00    +0.000 NA
ATOM      3  N   UNL     1      -0.063  -0.164   0.000  0.00  0.00    +0.000 NA
ATOM      4  C   UNL     1      -0.318   0.621   0.000  0.00  0.00    +0.000 A 
ATOM      5  S   UNL     1       0.350   1.106   0.000  0.00  0.00    +0.000 S 
ATOM      6  S   UNL     1      -1.102   0.876   0.000  0.00  0.00    +0.000 S 
ATOM      7  N   UNL     1       1.802   0.876   0.000  0.00  0.00    +0.000 NA
ENDROOT
TORSDOF 0
