REMARK  Name = 
REMARK  7 active torsions:
REMARK  status: ('A' for Active; 'I' for Inactive)
REMARK    1  A    between atoms: C_1  and  C_6
REMARK    2  A    between atoms: C_3  and  C_24
REMARK    3  A    between atoms: C_4  and  N_10
REMARK    4  A    between atoms: C_14  and  C_15
REMARK    5  A    between atoms: C_14  and  C_17
REMARK    6  A    between atoms: C_14  and  C_24
REMARK    7  A    between atoms: N_19  and  C_24
REMARK                            x       y       z     vdW  Elec       q    Type
REMARK                         _______ _______ _______ _____ _____    ______ ____
ROOT
ATOM      1  C   UNL     1      -1.397   0.202   0.000  0.00  0.00    +0.000 C 
ATOM      2  C   UNL     1      -0.730   0.687   0.000  0.00  0.00    +0.000 C 
ATOM      3  C   UNL     1      -0.062   0.202   0.000  0.00  0.00    +0.000 C 
ATOM      4  C   UNL     1      -0.318  -0.583   0.000  0.00  0.00    +0.000 C 
ATOM      5  C   UNL     1      -1.143  -0.583   0.000  0.00  0.00    +0.000 C 
ATOM      6  O   UNL     1      -0.730   1.512   0.000  0.00  0.00    +0.000 OA
ENDROOT
BRANCH   4   7
ATOM      7  N   UNL     1       0.167  -1.250   0.000  0.00  0.00    +0.000 NA
ATOM      8  C   UNL     1      -0.207  -1.985   0.000  0.00  0.00    +0.000 C 
ATOM      9  N   UNL     1       0.242  -2.677   0.000  0.00  0.00    +0.000 NA
ATOM     10  N   UNL     1      -1.031  -2.028   0.000  0.00  0.00    +0.000 NA
ENDBRANCH   4   7
BRANCH   1  11
ATOM     11  C   UNL     1      -2.182   0.457   0.000  0.00  0.00    +0.000 C 
ATOM     12  O   UNL     1      -2.354   1.264   0.000  0.00  0.00    +0.000 OA
ATOM     13  O   UNL     1      -2.795  -0.095   0.000  0.00  0.00    +0.000 OA
ENDBRANCH   1  11
BRANCH   3  14
ATOM     14  C   UNL     1       0.652   0.615   0.000  0.00  0.00    +0.000 C 
BRANCH  14  15
ATOM     15  N   UNL     1       0.652   1.440   0.000  0.00  0.00    +0.000 NA
ATOM     16  C   UNL     1       1.366   1.852   0.000  0.00  0.00    +0.000 C 
ATOM     17  O   UNL     1       1.367   2.677   0.000  0.00  0.00    +0.000 OA
ATOM     18  C   UNL     1       2.081   1.440   0.000  0.00  0.00    +0.000 C 
ENDBRANCH  14  15
BRANCH  14  19
ATOM     19  C   UNL     1       1.366   0.202   0.000  0.00  0.00    +0.000 C 
BRANCH  19  20
ATOM     20  C   UNL     1       1.366  -0.623   0.000  0.00  0.00    +0.000 C 
ATOM     21  C   UNL     1       2.081  -1.035   0.000  0.00  0.00    +0.000 C 
ENDBRANCH  19  20
BRANCH  19  22
ATOM     22  C   UNL     1       2.081   0.615   0.000  0.00  0.00    +0.000 C 
ATOM     23  C   UNL     1       2.795   0.202   0.000  0.00  0.00    +0.000 C 
ENDBRANCH  19  22
ENDBRANCH  14  19
ENDBRANCH   3  14
TORSDOF 7
