REMARK  Name = 
REMARK  0 active torsions:
REMARK  status: ('A' for Active; 'I' for Inactive)
REMARK                            x       y       z     vdW  Elec       q    Type
REMARK                         _______ _______ _______ _____ _____    ______ ____
ROOT
ATOM      1  C   UNL     1      -0.004   0.029   0.000  0.00  0.00    +0.000 C 
ATOM      2  C   UNL     1       0.821   0.029   0.000  0.00  0.00    +0.000 C 
ATOM      3  C   UNL     1      -0.521   0.675   0.000  0.00  0.00    +0.000 A 
ATOM      4  O   UNL     1       0.408   1.838   0.000  0.00  0.00    +0.000 OA
ATOM      5  C   UNL     1      -0.333   1.479   0.000  0.00  0.00    +0.000 A 
ATOM      6  C   UNL     1       1.333   0.675   0.000  0.00  0.00    +0.000 A 
ATOM      7  C   UNL     1       1.146   1.479   0.000  0.00  0.00    +0.000 A 
ATOM      8  N   UNL     1       0.408  -1.238   0.000  0.00  0.00    +0.000 NA
ATOM      9  C   UNL     1      -0.258  -0.750   0.000  0.00  0.00    +0.000 C 
ATOM     10  C   UNL     1       1.071  -0.750   0.000  0.00  0.00    +0.000 C 
ATOM     11  C   UNL     1      -1.346   0.475   0.000  0.00  0.00    +0.000 A 
ATOM     12  C   UNL     1      -0.921   2.063   0.000  0.00  0.00    +0.000 A 
ATOM     13  C   UNL     1      -1.929   1.054   0.000  0.00  0.00    +0.000 A 
ATOM     14  C   UNL     1      -1.717   1.850   0.000  0.00  0.00    +0.000 A 
ATOM     15 CL   UNL     1      -2.729   0.842   0.000  0.00  0.00    +0.000 Cl
ATOM     16  C   UNL     1       0.408  -2.063   0.000  0.00  0.00    +0.000 C 
ATOM     17  C   UNL     1       2.121   0.438   0.000  0.00  0.00    +0.000 A 
ATOM     18  C   UNL     1       1.754   2.042   0.000  0.00  0.00    +0.000 A 
ATOM     19  C   UNL     1       2.729   1.000   0.000  0.00  0.00    +0.000 A 
ATOM     20  C   UNL     1       2.546   1.800   0.000  0.00  0.00    +0.000 A 
ENDROOT
TORSDOF 0
