REMARK  Name = 
REMARK  6 active torsions:
REMARK  status: ('A' for Active; 'I' for Inactive)
REMARK    1  A    between atoms: C_3  and  C_4
REMARK    2  A    between atoms: C_3  and  C_11
REMARK    3  A    between atoms: C_4  and  C_18
REMARK    4  A    between atoms: C_11  and  N_22
REMARK    5  A    between atoms: C_16  and  C_18
REMARK    6  A    between atoms: C_19  and  N_23
REMARK                            x       y       z     vdW  Elec       q    Type
REMARK                         _______ _______ _______ _____ _____    ______ ____
ROOT
ATOM      1  C   UNL     1       0.000   2.475   0.000  0.00  0.00    +0.000 C 
ENDROOT
BRANCH   1   6
ATOM      2  C   UNL     1       1.429   2.475   0.000  0.00  0.00    +0.000 C 
ATOM      3  C   UNL     1       0.715   3.712   0.000  0.00  0.00    +0.000 C 
ATOM      4  C   UNL     1       2.143   2.888   0.000  0.00  0.00    +0.000 C 
ATOM      5  C   UNL     1       1.429   4.125   0.000  0.00  0.00    +0.000 C 
ATOM      6  N   UNL     1       0.715   2.888   0.000  0.00  0.00    +0.000 NA
ATOM      7  N   UNL     1       2.143   3.712   0.000  0.00  0.00    +0.000 N 
BRANCH   7  12
ATOM      8  C   UNL     1       4.287   4.125   0.000  0.00  0.00    +0.000 A 
ATOM      9  C   UNL     1       4.287   4.950   0.000  0.00  0.00    +0.000 A 
ATOM     10  C   UNL     1       3.572   3.712   0.000  0.00  0.00    +0.000 A 
ATOM     11  C   UNL     1       3.572   5.362   0.000  0.00  0.00    +0.000 A 
ATOM     12  C   UNL     1       2.858   4.125   0.000  0.00  0.00    +0.000 A 
ATOM     13  N   UNL     1       2.858   4.950   0.000  0.00  0.00    +0.000 NA
ENDBRANCH   7  12
ENDBRANCH   1   6
BRANCH   1  14
ATOM     14  C   UNL     1      -0.715   2.888   0.000  0.00  0.00    +0.000 C 
BRANCH  14  15
ATOM     15  C   UNL     1      -1.429   2.475   0.000  0.00  0.00    +0.000 C 
BRANCH  15  16
ATOM     16  C   UNL     1      -2.143   2.888   0.000  0.00  0.00    +0.000 C 
ATOM     17  O   UNL     1      -2.143   3.712   0.000  0.00  0.00    +0.000 OA
BRANCH  16  22
ATOM     18  C   UNL     1      -3.572   2.888   0.000  0.00  0.00    +0.000 A 
ATOM     19  C   UNL     1      -2.858   1.650   0.000  0.00  0.00    +0.000 A 
ATOM     20  C   UNL     1      -4.287   2.475   0.000  0.00  0.00    +0.000 A 
ATOM     21  C   UNL     1      -3.572   1.238   0.000  0.00  0.00    +0.000 A 
ATOM     22  C   UNL     1      -2.858   2.475   0.000  0.00  0.00    +0.000 A 
ATOM     23  C   UNL     1      -4.287   1.650   0.000  0.00  0.00    +0.000 A 
ATOM     24  F   UNL     1      -5.001   1.238   0.000  0.00  0.00    +0.000 F 
ENDBRANCH  16  22
ENDBRANCH  15  16
ENDBRANCH  14  15
ENDBRANCH   1  14
TORSDOF 6
