REMARK  Name = 
REMARK  6 active torsions:
REMARK  status: ('A' for Active; 'I' for Inactive)
REMARK    1  A    between atoms: C_4  and  O_7
REMARK    2  A    between atoms: O_7  and  C_8
REMARK    3  A    between atoms: C_11  and  C_14
REMARK    4  A    between atoms: C_14  and  N_15
REMARK    5  A    between atoms: C_16  and  C_18
REMARK    6  A    between atoms: C_20  and  C_23
REMARK                            x       y       z     vdW  Elec       q    Type
REMARK                         _______ _______ _______ _____ _____    ______ ____
ROOT
ATOM      1  N   UNL     1       0.000   0.000   0.000  0.00  0.00    +0.000 NA
ATOM      2  C   UNL     1       0.715  -0.412   0.000  0.00  0.00    +0.000 C 
ATOM      3  O   UNL     1       1.429   0.000   0.000  0.00  0.00    +0.000 OA
ENDROOT
BRANCH   2   4
ATOM      4  C   UNL     1       0.715  -1.238   0.000  0.00  0.00    +0.000 A 
ATOM      5  N   UNL     1       1.382  -1.722   0.000  0.00  0.00    +0.000 NA
ATOM      6  C   UNL     1       1.127  -2.507   0.000  0.00  0.00    +0.000 A 
ATOM      7  N   UNL     1       0.302  -2.507   0.000  0.00  0.00    +0.000 NA
ATOM      8  O   UNL     1       0.047  -1.722   0.000  0.00  0.00    +0.000 OA
BRANCH   6   9
ATOM      9  C   UNL     1       1.612  -3.175   0.000  0.00  0.00    +0.000 A 
ATOM     10  C   UNL     1       2.432  -3.088   0.000  0.00  0.00    +0.000 A 
ATOM     11  C   UNL     1       2.917  -3.756   0.000  0.00  0.00    +0.000 A 
ATOM     12  C   UNL     1       2.582  -4.509   0.000  0.00  0.00    +0.000 A 
ATOM     13  C   UNL     1       1.761  -4.596   0.000  0.00  0.00    +0.000 A 
ATOM     14  C   UNL     1       1.276  -3.928   0.000  0.00  0.00    +0.000 A 
ATOM     15 BR   UNL     1       1.426  -5.349   0.000  0.00  0.00    +0.000 Br
ATOM     16  O   UNL     1       3.067  -5.177   0.000  0.00  0.00    +0.000 OA
ATOM     17 BR   UNL     1       3.738  -3.670   0.000  0.00  0.00    +0.000 Br
ENDBRANCH   6   9
ENDBRANCH   2   4
BRANCH   1  18
ATOM     18  C   UNL     1       0.000   0.825   0.000  0.00  0.00    +0.000 C 
BRANCH  18  22
ATOM     19  C   UNL     1      -2.143   2.062   0.000  0.00  0.00    +0.000 A 
ATOM     20  C   UNL     1      -1.429   2.475   0.000  0.00  0.00    +0.000 A 
ATOM     21  C   UNL     1      -0.715   2.062   0.000  0.00  0.00    +0.000 A 
ATOM     22  C   UNL     1      -0.715   1.238   0.000  0.00  0.00    +0.000 A 
ATOM     23  C   UNL     1      -1.429   0.825   0.000  0.00  0.00    +0.000 A 
ATOM     24  C   UNL     1      -2.143   1.238   0.000  0.00  0.00    +0.000 A 
BRANCH  19  25
ATOM     25  O   UNL     1      -2.858   2.475   0.000  0.00  0.00    +0.000 OA
BRANCH  25  29
ATOM     26  C   UNL     1      -5.001   1.238   0.000  0.00  0.00    +0.000 A 
ATOM     27  C   UNL     1      -5.001   2.062   0.000  0.00  0.00    +0.000 A 
ATOM     28  C   UNL     1      -4.287   2.475   0.000  0.00  0.00    +0.000 A 
ATOM     29  C   UNL     1      -3.572   2.062   0.000  0.00  0.00    +0.000 A 
ATOM     30  C   UNL     1      -3.572   1.238   0.000  0.00  0.00    +0.000 A 
ATOM     31  C   UNL     1      -4.287   0.825   0.000  0.00  0.00    +0.000 A 
ENDBRANCH  25  29
ENDBRANCH  19  25
ENDBRANCH  18  22
ENDBRANCH   1  18
TORSDOF 6
