REMARK  Name = 
REMARK  8 active torsions:
REMARK  status: ('A' for Active; 'I' for Inactive)
REMARK    1  A    between atoms: C_1  and  C_2
REMARK    2  A    between atoms: C_1  and  C_3
REMARK    3  A    between atoms: C_1  and  O_4
REMARK    4  A    between atoms: C_2  and  O_5
REMARK    5  A    between atoms: C_3  and  O_6
REMARK    6  A    between atoms: O_4  and  C_7
REMARK    7  A    between atoms: O_5  and  C_8
REMARK    8  A    between atoms: O_6  and  C_9
REMARK                            x       y       z     vdW  Elec       q    Type
REMARK                         _______ _______ _______ _____ _____    ______ ____
ROOT
ATOM      1  C   UNL     1      -0.376  -0.191   0.000  0.00  0.00    +0.000 C 
ENDROOT
BRANCH   1   2
ATOM      2  O   UNL     1      -0.376  -1.020   0.000  0.00  0.00    +0.000 OA
BRANCH   2   3
ATOM      3  C   UNL     1      -1.091  -1.435   0.000  0.00  0.00    +0.000 C 
ATOM      4  C   UNL     1      -1.082  -2.264   0.000  0.00  0.00    +0.000 C 
ATOM      5  O   UNL     1      -1.807  -1.023   0.000  0.00  0.00    +0.000 OA
ENDBRANCH   2   3
ENDBRANCH   1   2
BRANCH   1   6
ATOM      6  C   UNL     1       0.337   0.233   0.000  0.00  0.00    +0.000 C 
BRANCH   6   7
ATOM      7  O   UNL     1       1.059  -0.175   0.000  0.00  0.00    +0.000 OA
BRANCH   7   8
ATOM      8  C   UNL     1       1.771   0.249   0.000  0.00  0.00    +0.000 C 
ATOM      9  C   UNL     1       2.490  -0.155   0.000  0.00  0.00    +0.000 C 
ATOM     10  O   UNL     1       1.752   1.078   0.000  0.00  0.00    +0.000 OA
ENDBRANCH   7   8
ENDBRANCH   6   7
ENDBRANCH   1   6
BRANCH   1  11
ATOM     11  C   UNL     1      -1.082   0.220   0.000  0.00  0.00    +0.000 C 
BRANCH  11  12
ATOM     12  O   UNL     1      -1.078   1.036   0.000  0.00  0.00    +0.000 OA
BRANCH  12  13
ATOM     13  C   UNL     1      -1.784   1.448   0.000  0.00  0.00    +0.000 C 
ATOM     14  C   UNL     1      -1.784   2.264   0.000  0.00  0.00    +0.000 C 
ATOM     15  O   UNL     1      -2.490   1.043   0.000  0.00  0.00    +0.000 OA
ENDBRANCH  12  13
ENDBRANCH  11  12
ENDBRANCH   1  11
TORSDOF 8
