REMARK  Name = 
REMARK  3 active torsions:
REMARK  status: ('A' for Active; 'I' for Inactive)
REMARK    1  A    between atoms: C_2  and  C_3
REMARK    2  A    between atoms: C_2  and  N_12
REMARK    3  A    between atoms: C_17  and  C_19
REMARK                            x       y       z     vdW  Elec       q    Type
REMARK                         _______ _______ _______ _____ _____    ______ ____
ROOT
ATOM      1  N   UNL     1      -0.143  -1.365   0.000  0.00  0.00    +0.000 N 
ATOM      2  C   UNL     1       0.641  -1.110   0.000  0.00  0.00    +0.000 A 
ATOM      3  C   UNL     1       0.641  -0.285   0.000  0.00  0.00    +0.000 A 
ATOM      4  N   UNL     1       1.356   0.127   0.000  0.00  0.00    +0.000 NA
ATOM      5  C   UNL     1       2.070  -0.285   0.000  0.00  0.00    +0.000 A 
ATOM      6  C   UNL     1       2.070  -1.110   0.000  0.00  0.00    +0.000 A 
ATOM      7  N   UNL     1       1.356  -1.523   0.000  0.00  0.00    +0.000 NA
ATOM      8  N   UNL     1      -0.143  -0.030   0.000  0.00  0.00    +0.000 NA
ATOM      9  N   UNL     1      -0.628  -0.698   0.000  0.00  0.00    +0.000 NA
ENDROOT
BRANCH   6  10
ATOM     10  C   UNL     1       2.784  -1.523   0.000  0.00  0.00    +0.000 A 
ATOM     11  C   UNL     1       3.538  -1.187   0.000  0.00  0.00    +0.000 A 
ATOM     12  N   UNL     1       4.090  -1.800   0.000  0.00  0.00    +0.000 NA
ATOM     13  N   UNL     1       3.678  -2.515   0.000  0.00  0.00    +0.000 N 
ATOM     14  C   UNL     1       2.871  -2.343   0.000  0.00  0.00    +0.000 A 
ATOM     15  C   UNL     1       4.013  -3.269   0.000  0.00  0.00    +0.000 C 
ENDBRANCH   6  10
BRANCH   1  17
ATOM     16  C   UNL     1       0.154  -2.763   0.000  0.00  0.00    +0.000 C 
ATOM     17  C   UNL     1      -0.398  -2.150   0.000  0.00  0.00    +0.000 C 
BRANCH  17  18
ATOM     18  C   UNL     1      -1.205  -2.321   0.000  0.00  0.00    +0.000 A 
ATOM     19  C   UNL     1      -1.460  -3.106   0.000  0.00  0.00    +0.000 A 
ATOM     20  C   UNL     1      -2.267  -3.278   0.000  0.00  0.00    +0.000 A 
ATOM     21  C   UNL     1      -2.819  -2.665   0.000  0.00  0.00    +0.000 A 
ATOM     22  N   UNL     1      -3.644  -2.665   0.000  0.00  0.00    +0.000 NA
ATOM     23  C   UNL     1      -3.899  -1.880   0.000  0.00  0.00    +0.000 A 
ATOM     24  C   UNL     1      -3.232  -1.395   0.000  0.00  0.00    +0.000 A 
ATOM     25  N   UNL     1      -2.564  -1.880   0.000  0.00  0.00    +0.000 N 
ATOM     26  C   UNL     1      -1.758  -1.708   0.000  0.00  0.00    +0.000 A 
ENDBRANCH  17  18
ENDBRANCH   1  17
TORSDOF 3
