REMARK  Name = 
REMARK  2 active torsions:
REMARK  status: ('A' for Active; 'I' for Inactive)
REMARK    1  A    between atoms: N_2  and  N_5
REMARK    2  A    between atoms: C_8  and  C_11
REMARK                            x       y       z     vdW  Elec       q    Type
REMARK                         _______ _______ _______ _____ _____    ______ ____
ROOT
ATOM      1  N   UNL     1      -1.429  -0.982   0.000  0.00  0.00    +0.000 N 
ATOM      2  N   UNL     1       0.000  -0.982   0.000  0.00  0.00    +0.000 NA
ATOM      3  N   UNL     1       0.715  -0.569   0.000  0.00  0.00    +0.000 NA
ATOM      4  C   UNL     1      -0.715  -0.569   0.000  0.00  0.00    +0.000 A 
ATOM      5  C   UNL     1       0.715   0.256   0.000  0.00  0.00    +0.000 A 
ATOM      6  C   UNL     1      -0.715   0.256   0.000  0.00  0.00    +0.000 A 
ATOM      7  C   UNL     1       0.000   0.668   0.000  0.00  0.00    +0.000 A 
ATOM      8  H   UNL     1      -1.429  -1.493   0.000  0.00  0.00    +0.000 HD
ENDROOT
BRANCH   5  11
ATOM      9  O   UNL     1       1.429   1.493   0.000  0.00  0.00    +0.000 OA
ATOM     10  N   UNL     1       2.144   0.256   0.000  0.00  0.00    +0.000 N 
ATOM     11  C   UNL     1       1.429   0.668   0.000  0.00  0.00    +0.000 C 
ATOM     12  H   UNL     1       2.587   0.511   0.000  0.00  0.00    +0.000 HD
ATOM     13  H   UNL     1       2.144  -0.256   0.000  0.00  0.00    +0.000 HD
ENDBRANCH   5  11
BRANCH   1  14
ATOM     14  N   UNL     1      -2.144  -0.569   0.000  0.00  0.00    +0.000 NA
ATOM     15  H   UNL     1      -2.587  -0.825   0.000  0.00  0.00    +0.000 HD
ATOM     16  H   UNL     1      -2.144  -0.058   0.000  0.00  0.00    +0.000 HD
ENDBRANCH   1  14
TORSDOF 2
