REMARK  Name = 
REMARK  10 active torsions:
REMARK  status: ('A' for Active; 'I' for Inactive)
REMARK    1  A    between atoms: N_2  and  C_14
REMARK    2  A    between atoms: P_8  and  O_19
REMARK    3  A    between atoms: C_13  and  O_19
REMARK    4  A    between atoms: C_16  and  C_17
REMARK    5  A    between atoms: C_17  and  O_18
REMARK    6  A    between atoms: O_18  and  P_22
REMARK    7  A    between atoms: P_22  and  O_25
REMARK    8  A    between atoms: O_25  and  C_28
REMARK    9  A    between atoms: C_29  and  N_40
REMARK   10  A    between atoms: C_31  and  C_32
REMARK                            x       y       z     vdW  Elec       q    Type
REMARK                         _______ _______ _______ _____ _____    ______ ____
ROOT
ATOM      1  P   UNL     1      -2.592  -0.497   0.000  0.00  0.00    +0.000 P 
ATOM      2  O   UNL     1      -3.445  -0.498   0.000  0.00  0.00    +0.000 OA
ATOM      3  O   UNL     1      -3.017  -1.228   0.000  0.00  0.00    +0.000 OA
ENDROOT
BRANCH   1   4
ATOM      4  O   UNL     1      -2.589   0.359   0.000  0.00  0.00    +0.000 OA
BRANCH   4   7
ATOM      5  C   UNL     1      -1.171   0.967   0.000  0.00  0.00    +0.000 C 
ATOM      6  O   UNL     1      -0.608   0.337   0.000  0.00  0.00    +0.000 OA
ATOM      7  C   UNL     1      -2.008   0.967   0.000  0.00  0.00    +0.000 C 
ATOM      8  C   UNL     1      -0.914   1.752   0.000  0.00  0.00    +0.000 C 
ATOM      9  O   UNL     1      -1.604   2.239   0.000  0.00  0.00    +0.000 OA
ATOM     10  C   UNL     1      -2.248   1.752   0.000  0.00  0.00    +0.000 C 
BRANCH   8  17
ATOM     11  N   UNL     1       1.855   1.768   0.000  0.00  0.00    +0.000 NA
ATOM     12  C   UNL     1       1.844   3.373   0.000  0.00  0.00    +0.000 A 
ATOM     13  N   UNL     1       2.538   2.944   0.000  0.00  0.00    +0.000 NA
ATOM     14  C   UNL     1       2.541   2.160   0.000  0.00  0.00    +0.000 A 
ATOM     15  C   UNL     1       1.157   2.945   0.000  0.00  0.00    +0.000 A 
ATOM     16  C   UNL     1       1.163   2.159   0.000  0.00  0.00    +0.000 A 
ATOM     17  N   UNL     1      -0.218   2.160   0.000  0.00  0.00    +0.000 N 
ATOM     18  C   UNL     1      -0.218   2.940   0.000  0.00  0.00    +0.000 A 
ATOM     19  N   UNL     1       0.481   3.353   0.000  0.00  0.00    +0.000 NA
ATOM     20  N   UNL     1       1.847   4.185   0.000  0.00  0.00    +0.000 NA
ENDBRANCH   8  17
BRANCH  10  21
ATOM     21  C   UNL     1      -2.979   2.176   0.000  0.00  0.00    +0.000 C 
ATOM     22  O   UNL     1      -3.698   1.752   0.000  0.00  0.00    +0.000 OA
ENDBRANCH  10  21
ENDBRANCH   4   7
ENDBRANCH   1   4
BRANCH   1  23
ATOM     23  O   UNL     1      -1.898  -0.998   0.000  0.00  0.00    +0.000 OA
BRANCH  23  24
ATOM     24  C   UNL     1      -1.185  -0.585   0.000  0.00  0.00    +0.000 C 
BRANCH  24  30
ATOM     25  O   UNL     1       1.163  -2.430   0.000  0.00  0.00    +0.000 OA
ATOM     26  C   UNL     1       0.617  -1.800   0.000  0.00  0.00    +0.000 C 
ATOM     27  C   UNL     1      -0.215  -1.800   0.000  0.00  0.00    +0.000 C 
ATOM     28  C   UNL     1       0.863  -0.998   0.000  0.00  0.00    +0.000 C 
ATOM     29  O   UNL     1       0.196  -0.505   0.000  0.00  0.00    +0.000 OA
ATOM     30  C   UNL     1      -0.471  -0.998   0.000  0.00  0.00    +0.000 C 
BRANCH  28  31
ATOM     31  N   UNL     1       1.576  -0.608   0.000  0.00  0.00    +0.000 N 
ATOM     32  C   UNL     1       1.581   0.207   0.000  0.00  0.00    +0.000 A 
ATOM     33  C   UNL     1       2.286   0.607   0.000  0.00  0.00    +0.000 A 
ATOM     34  C   UNL     1       2.990   0.197   0.000  0.00  0.00    +0.000 A 
ATOM     35  N   UNL     1       2.984  -0.618   0.000  0.00  0.00    +0.000 NA
ATOM     36  C   UNL     1       2.275  -1.022   0.000  0.00  0.00    +0.000 A 
ATOM     37  O   UNL     1       2.283  -1.830   0.000  0.00  0.00    +0.000 OA
ATOM     38  O   UNL     1       3.698   0.609   0.000  0.00  0.00    +0.000 OA
ENDBRANCH  28  31
BRANCH  27  39
ATOM     39  O   UNL     1      -0.812  -2.396   0.000  0.00  0.00    +0.000 OA
BRANCH  39  40
ATOM     40  P   UNL     1      -0.814  -3.310   0.000  0.00  0.00    +0.000 P 
ATOM     41  O   UNL     1      -1.657  -3.316   0.000  0.00  0.00    +0.000 OA
ATOM     42  O   UNL     1       0.020  -3.313   0.000  0.00  0.00    +0.000 OA
ATOM     43  O   UNL     1      -0.791  -4.185   0.000  0.00  0.00    +0.000 OA
ENDBRANCH  39  40
ENDBRANCH  27  39
ENDBRANCH  24  30
ENDBRANCH  23  24
ENDBRANCH   1  23
TORSDOF 10
