REMARK  Name = 
REMARK  12 active torsions:
REMARK  status: ('A' for Active; 'I' for Inactive)
REMARK    1  A    between atoms: C_2  and  O_3
REMARK    2  A    between atoms: O_3  and  C_4
REMARK    3  A    between atoms: C_12  and  C_14
REMARK    4  A    between atoms: C_14  and  C_15
REMARK    5  A    between atoms: C_14  and  N_26
REMARK    6  A    between atoms: C_15  and  C_16
REMARK    7  A    between atoms: C_20  and  C_22
REMARK    8  A    between atoms: N_26  and  S_27
REMARK    9  A    between atoms: S_27  and  C_30
REMARK   10  A    between atoms: C_31  and  C_42
REMARK   11  A    between atoms: C_33  and  C_39
REMARK   12  A    between atoms: C_35  and  C_36
REMARK                            x       y       z     vdW  Elec       q    Type
REMARK                         _______ _______ _______ _____ _____    ______ ____
ROOT
ATOM      1  C   UNL     1       0.715  -6.188   0.000  0.00  0.00    +0.000 C 
ENDROOT
BRANCH   1  10
ATOM      2  C   UNL     1       0.000  -2.475   0.000  0.00  0.00    +0.000 C 
ATOM      3  O   UNL     1      -0.715  -2.062   0.000  0.00  0.00    +0.000 OA
ATOM      4  N   UNL     1       0.000  -3.300   0.000  0.00  0.00    +0.000 N 
ATOM      5  C   UNL     1       0.715  -3.712   0.000  0.00  0.00    +0.000 C 
ATOM      6  C   UNL     1       0.715  -4.537   0.000  0.00  0.00    +0.000 C 
ATOM      7  N   UNL     1       0.000  -4.950   0.000  0.00  0.00    +0.000 N 
ATOM      8  C   UNL     1      -0.715  -4.537   0.000  0.00  0.00    +0.000 C 
ATOM      9  C   UNL     1      -0.715  -3.712   0.000  0.00  0.00    +0.000 C 
ATOM     10  C   UNL     1       0.000  -5.775   0.000  0.00  0.00    +0.000 C 
ATOM     11  O   UNL     1      -0.715  -6.188   0.000  0.00  0.00    +0.000 OA
BRANCH   2  12
ATOM     12  O   UNL     1       0.715  -2.062   0.000  0.00  0.00    +0.000 OA
BRANCH  12  14
ATOM     13  C   UNL     1       2.143  -2.062   0.000  0.00  0.00    +0.000 C 
ATOM     14  C   UNL     1       1.429  -2.475   0.000  0.00  0.00    +0.000 C 
ENDBRANCH  12  14
ENDBRANCH   2  12
ENDBRANCH   1  10
BRANCH   1  15
ATOM     15  N   UNL     1       1.429  -5.775   0.000  0.00  0.00    +0.000 NA
BRANCH  15  16
ATOM     16  S   UNL     1       2.143  -6.188   0.000  0.00  0.00    +0.000 S 
ATOM     17  O   UNL     1       1.731  -6.902   0.000  0.00  0.00    +0.000 OA
ATOM     18  O   UNL     1       2.556  -5.473   0.000  0.00  0.00    +0.000 OA
BRANCH  16  19
ATOM     19  C   UNL     1       2.858  -6.600   0.000  0.00  0.00    +0.000 A 
ATOM     20  C   UNL     1       3.572  -6.188   0.000  0.00  0.00    +0.000 A 
ATOM     21  C   UNL     1       4.287  -6.600   0.000  0.00  0.00    +0.000 A 
ATOM     22  C   UNL     1       4.287  -7.425   0.000  0.00  0.00    +0.000 A 
ATOM     23  C   UNL     1       3.572  -7.838   0.000  0.00  0.00    +0.000 A 
ATOM     24  C   UNL     1       2.858  -7.425   0.000  0.00  0.00    +0.000 A 
BRANCH  20  25
ATOM     25  C   UNL     1       3.572  -5.362   0.000  0.00  0.00    +0.000 C 
ATOM     26  C   UNL     1       4.287  -4.950   0.000  0.00  0.00    +0.000 C 
ATOM     27  C   UNL     1       2.858  -4.950   0.000  0.00  0.00    +0.000 C 
ENDBRANCH  20  25
BRANCH  22  28
ATOM     28  C   UNL     1       5.001  -7.838   0.000  0.00  0.00    +0.000 C 
ATOM     29  C   UNL     1       5.716  -7.425   0.000  0.00  0.00    +0.000 C 
ATOM     30  C   UNL     1       5.001  -8.662   0.000  0.00  0.00    +0.000 C 
ENDBRANCH  22  28
BRANCH  24  31
ATOM     31  C   UNL     1       2.143  -7.838   0.000  0.00  0.00    +0.000 C 
ATOM     32  C   UNL     1       1.429  -7.425   0.000  0.00  0.00    +0.000 C 
ATOM     33  C   UNL     1       2.143  -8.662   0.000  0.00  0.00    +0.000 C 
ENDBRANCH  24  31
ENDBRANCH  16  19
ENDBRANCH  15  16
ENDBRANCH   1  15
BRANCH   1  34
ATOM     34  C   UNL     1       0.715  -7.013   0.000  0.00  0.00    +0.000 C 
BRANCH  34  35
ATOM     35  C   UNL     1       0.000  -7.425   0.000  0.00  0.00    +0.000 A 
ATOM     36  C   UNL     1       0.000  -8.250   0.000  0.00  0.00    +0.000 A 
ATOM     37  C   UNL     1      -0.715  -8.662   0.000  0.00  0.00    +0.000 A 
ATOM     38  C   UNL     1      -1.429  -8.250   0.000  0.00  0.00    +0.000 A 
ATOM     39  C   UNL     1      -1.429  -7.425   0.000  0.00  0.00    +0.000 A 
ATOM     40  C   UNL     1      -0.715  -7.013   0.000  0.00  0.00    +0.000 A 
BRANCH  39  41
ATOM     41  C   UNL     1      -2.143  -7.013   0.000  0.00  0.00    +0.000 C 
ATOM     42  N   UNL     1      -2.143  -6.188   0.000  0.00  0.00    +0.000 NA
ATOM     43  O   UNL     1      -1.429  -5.775   0.000  0.00  0.00    +0.000 OA
ATOM     44  N   UNL     1      -2.858  -7.425   0.000  0.00  0.00    +0.000 NA
ENDBRANCH  39  41
ENDBRANCH  34  35
ENDBRANCH   1  34
TORSDOF 12
