REMARK  Name = 
REMARK  7 active torsions:
REMARK  status: ('A' for Active; 'I' for Inactive)
REMARK    1  A    between atoms: C_19  and  C_20
REMARK    2  A    between atoms: C_19  and  N_31
REMARK    3  A    between atoms: C_20  and  O_33
REMARK    4  A    between atoms: C_22  and  C_28
REMARK    5  A    between atoms: C_23  and  C_29
REMARK    6  A    between atoms: C_24  and  O_33
REMARK    7  A    between atoms: C_25  and  O_32
REMARK                            x       y       z     vdW  Elec       q    Type
REMARK                         _______ _______ _______ _____ _____    ______ ____
ROOT
ATOM      1  C   UNL     1       2.956  -1.094   0.000  0.00  0.00    +0.000 C 
ATOM      2  C   UNL     1       2.426  -2.013   0.000  0.00  0.00    +0.000 C 
ATOM      3  C   UNL     1      -0.715  -0.412   0.000  0.00  0.00    +0.000 A 
ATOM      4  C   UNL     1       0.000   0.000   0.000  0.00  0.00    +0.000 A 
ATOM      5  C   UNL     1       0.000  -1.650   0.000  0.00  0.00    +0.000 A 
ATOM      6  C   UNL     1      -0.715  -1.237   0.000  0.00  0.00    +0.000 A 
ATOM      7  C   UNL     1       0.715  -0.412   0.000  0.00  0.00    +0.000 A 
ATOM      8  C   UNL     1       0.715  -1.237   0.000  0.00  0.00    +0.000 A 
ATOM      9  C   UNL     1       1.429   0.000   0.000  0.00  0.00    +0.000 C 
ATOM     10  C   UNL     1       2.143  -0.412   0.000  0.00  0.00    +0.000 C 
ATOM     11  C   UNL     1       2.143  -1.237   0.000  0.00  0.00    +0.000 C 
ATOM     12  O   UNL     1       1.429  -1.650   0.000  0.00  0.00    +0.000 OA
ENDROOT
BRANCH   9  17
ATOM     13  C   UNL     1       2.143   1.237   0.000  0.00  0.00    +0.000 A 
ATOM     14  C   UNL     1       0.715   1.237   0.000  0.00  0.00    +0.000 A 
ATOM     15  C   UNL     1       2.143   2.062   0.000  0.00  0.00    +0.000 A 
ATOM     16  C   UNL     1       0.715   2.062   0.000  0.00  0.00    +0.000 A 
ATOM     17  C   UNL     1       1.429   0.825   0.000  0.00  0.00    +0.000 A 
ATOM     18  C   UNL     1       1.429   2.475   0.000  0.00  0.00    +0.000 A 
BRANCH  18  19
ATOM     19  O   UNL     1       1.429   3.300   0.000  0.00  0.00    +0.000 OA
BRANCH  19  20
ATOM     20  C   UNL     1       0.715   3.712   0.000  0.00  0.00    +0.000 C 
BRANCH  20  21
ATOM     21  C   UNL     1       0.715   4.537   0.000  0.00  0.00    +0.000 C 
BRANCH  21  26
ATOM     22  C   UNL     1      -0.893   5.942   0.000  0.00  0.00    +0.000 C 
ATOM     23  C   UNL     1      -1.306   5.228   0.000  0.00  0.00    +0.000 C 
ATOM     24  C   UNL     1      -0.086   5.771   0.000  0.00  0.00    +0.000 C 
ATOM     25  C   UNL     1      -0.754   4.614   0.000  0.00  0.00    +0.000 C 
ATOM     26  N   UNL     1       0.000   4.950   0.000  0.00  0.00    +0.000 NA
ENDBRANCH  21  26
ENDBRANCH  20  21
ENDBRANCH  19  20
ENDBRANCH  18  19
ENDBRANCH   9  17
BRANCH  10  32
ATOM     27  C   UNL     1       4.287   0.825   0.000  0.00  0.00    +0.000 A 
ATOM     28  C   UNL     1       3.572   1.237   0.000  0.00  0.00    +0.000 A 
ATOM     29  C   UNL     1       4.287   0.000   0.000  0.00  0.00    +0.000 A 
ATOM     30  C   UNL     1       2.858   0.825   0.000  0.00  0.00    +0.000 A 
ATOM     31  C   UNL     1       3.572  -0.412   0.000  0.00  0.00    +0.000 A 
ATOM     32  C   UNL     1       2.858   0.000   0.000  0.00  0.00    +0.000 A 
ENDBRANCH  10  32
BRANCH   6  34
ATOM     33  C   UNL     1      -1.429  -2.475   0.000  0.00  0.00    +0.000 C 
ATOM     34  O   UNL     1      -1.429  -1.650   0.000  0.00  0.00    +0.000 OA
ENDBRANCH   6  34
TORSDOF 7
