REMARK  Name = 
REMARK  9 active torsions:
REMARK  status: ('A' for Active; 'I' for Inactive)
REMARK    1  A    between atoms: C_2  and  C_4
REMARK    2  A    between atoms: C_4  and  C_5
REMARK    3  A    between atoms: C_5  and  N_6
REMARK    4  A    between atoms: C_5  and  C_20
REMARK    5  A    between atoms: C_8  and  O_9
REMARK    6  A    between atoms: O_9  and  C_10
REMARK    7  A    between atoms: N_25  and  C_26
REMARK    8  A    between atoms: C_26  and  C_27
REMARK    9  A    between atoms: C_27  and  C_29
REMARK                            x       y       z     vdW  Elec       q    Type
REMARK                         _______ _______ _______ _____ _____    ______ ____
ROOT
ATOM      1  C   UNL     1       3.746  -4.102   0.000  0.00  0.00    +0.000 C 
ENDROOT
BRANCH   1   2
ATOM      2  C   UNL     1       4.158  -4.817   0.000  0.00  0.00    +0.000 C 
ATOM      3  O   UNL     1       3.746  -5.531   0.000  0.00  0.00    +0.000 OA
ATOM      4  N   UNL     1       4.983  -4.817   0.000  0.00  0.00    +0.000 NA
ATOM      5  C   UNL     1       5.396  -5.531   0.000  0.00  0.00    +0.000 A 
ATOM      6  N   UNL     1       6.216  -5.617   0.000  0.00  0.00    +0.000 NA
ATOM      7  N   UNL     1       6.388  -6.425   0.000  0.00  0.00    +0.000 N 
ATOM      8  C   UNL     1       5.673  -6.837   0.000  0.00  0.00    +0.000 A 
ATOM      9  C   UNL     1       5.060  -6.285   0.000  0.00  0.00    +0.000 A 
BRANCH   7  10
ATOM     10  C   UNL     1       7.141  -6.760   0.000  0.00  0.00    +0.000 C 
BRANCH  10  11
ATOM     11  C   UNL     1       7.809  -6.275   0.000  0.00  0.00    +0.000 C 
ATOM     12  O   UNL     1       7.723  -5.455   0.000  0.00  0.00    +0.000 OA
BRANCH  11  13
ATOM     13  C   UNL     1       8.563  -6.611   0.000  0.00  0.00    +0.000 C 
ATOM     14  O   UNL     1       9.230  -6.126   0.000  0.00  0.00    +0.000 OA
ENDBRANCH  11  13
ENDBRANCH  10  11
ENDBRANCH   7  10
ENDBRANCH   1   2
BRANCH   1  15
ATOM     15  N   UNL     1       4.158  -3.388   0.000  0.00  0.00    +0.000 N 
ATOM     16  C   UNL     1       3.823  -2.634   0.000  0.00  0.00    +0.000 C 
ATOM     17  C   UNL     1       4.436  -2.082   0.000  0.00  0.00    +0.000 C 
ATOM     18  C   UNL     1       5.150  -2.495   0.000  0.00  0.00    +0.000 C 
ATOM     19  C   UNL     1       4.979  -3.302   0.000  0.00  0.00    +0.000 C 
ATOM     20  O   UNL     1       5.531  -3.915   0.000  0.00  0.00    +0.000 OA
BRANCH  17  21
ATOM     21  O   UNL     1       4.350  -1.262   0.000  0.00  0.00    +0.000 OA
BRANCH  21  22
ATOM     22  C   UNL     1       5.017  -0.777   0.000  0.00  0.00    +0.000 A 
ATOM     23  C   UNL     1       4.931   0.044   0.000  0.00  0.00    +0.000 A 
ATOM     24 CL   UNL     1       4.177   0.379   0.000  0.00  0.00    +0.000 Cl
ATOM     25  C   UNL     1       5.598   0.529   0.000  0.00  0.00    +0.000 A 
ATOM     26  C   UNL     1       6.352   0.193   0.000  0.00  0.00    +0.000 A 
ATOM     27  C   UNL     1       6.438  -0.627   0.000  0.00  0.00    +0.000 A 
ATOM     28  C   UNL     1       5.771  -1.112   0.000  0.00  0.00    +0.000 A 
ENDBRANCH  21  22
ENDBRANCH  17  21
ENDBRANCH   1  15
BRANCH   1  29
ATOM     29  C   UNL     1       2.921  -4.102   0.000  0.00  0.00    +0.000 C 
BRANCH  29  31
ATOM     30  C   UNL     1       2.921  -5.531   0.000  0.00  0.00    +0.000 C 
ATOM     31  C   UNL     1       2.508  -4.817   0.000  0.00  0.00    +0.000 C 
ATOM     32  C   UNL     1       1.683  -4.817   0.000  0.00  0.00    +0.000 C 
ENDBRANCH  29  31
ENDBRANCH   1  29
TORSDOF 9
