REMARK  Name = 
REMARK  7 active torsions:
REMARK  status: ('A' for Active; 'I' for Inactive)
REMARK    1  A    between atoms: C_2  and  C_3
REMARK    2  A    between atoms: C_2  and  C_9
REMARK    3  A    between atoms: C_3  and  C_4
REMARK    4  A    between atoms: C_4  and  C_5
REMARK    5  A    between atoms: C_5  and  C_6
REMARK    6  A    between atoms: C_19  and  C_27
REMARK    7  A    between atoms: C_27  and  SE_28
REMARK                            x       y       z     vdW  Elec       q    Type
REMARK                         _______ _______ _______ _____ _____    ______ ____
ROOT
ATOM      1  C   UNL     1      -4.278  -1.206   0.000  0.00  0.00    +0.000 C 
ATOM      2  C   UNL     1      -4.364  -0.385   0.000  0.00  0.00    +0.000 C 
ATOM      3  C   UNL     1      -5.171  -0.213   0.000  0.00  0.00    +0.000 C 
ATOM      4  C   UNL     1      -5.584  -0.928   0.000  0.00  0.00    +0.000 C 
ATOM      5  C   UNL     1      -5.032  -1.541   0.000  0.00  0.00    +0.000 C 
ATOM      6  C   UNL     1      -5.287  -2.326   0.000  0.00  0.00    +0.000 C 
ATOM      7  C   UNL     1      -6.093  -2.497   0.000  0.00  0.00    +0.000 C 
ATOM      8  C   UNL     1      -6.646  -1.884   0.000  0.00  0.00    +0.000 C 
ATOM      9  C   UNL     1      -6.391  -1.099   0.000  0.00  0.00    +0.000 C 
ATOM     10  C   UNL     1      -6.943  -0.486   0.000  0.00  0.00    +0.000 C 
ATOM     11  C   UNL     1      -7.750  -0.658   0.000  0.00  0.00    +0.000 C 
ATOM     12  C   UNL     1      -8.005  -1.443   0.000  0.00  0.00    +0.000 C 
ATOM     13  C   UNL     1      -7.452  -2.056   0.000  0.00  0.00    +0.000 C 
ATOM     14  C   UNL     1      -7.707  -2.840   0.000  0.00  0.00    +0.000 C 
ATOM     15  C   UNL     1      -8.514  -3.012   0.000  0.00  0.00    +0.000 C 
ATOM     16  C   UNL     1      -9.066  -2.399   0.000  0.00  0.00    +0.000 C 
ATOM     17  C   UNL     1      -8.812  -1.614   0.000  0.00  0.00    +0.000 C 
ATOM     18  O   UNL     1      -9.873  -2.570   0.000  0.00  0.00    +0.000 OA
ATOM     19  C   UNL     1      -4.418  -2.093   0.000  0.00  0.00    +0.000 C 
ENDROOT
BRANCH   1  21
ATOM     20  C   UNL     1      -3.563  -2.443   0.000  0.00  0.00    +0.000 C 
ATOM     21  C   UNL     1      -3.563  -1.618   0.000  0.00  0.00    +0.000 C 
BRANCH  21  22
ATOM     22  C   UNL     1      -2.849  -1.206   0.000  0.00  0.00    +0.000 C 
BRANCH  22  23
ATOM     23  C   UNL     1      -2.135  -1.618   0.000  0.00  0.00    +0.000 C 
BRANCH  23  24
ATOM     24  C   UNL     1      -1.420  -1.206   0.000  0.00  0.00    +0.000 C 
BRANCH  24  25
ATOM     25  C   UNL     1      -0.706  -1.618   0.000  0.00  0.00    +0.000 C 
ATOM     26  C   UNL     1       0.009  -1.206   0.000  0.00  0.00    +0.000 C 
ATOM     27  C   UNL     1      -0.706  -2.443   0.000  0.00  0.00    +0.000 C 
ENDBRANCH  24  25
ENDBRANCH  23  24
ENDBRANCH  22  23
ENDBRANCH  21  22
ENDBRANCH   1  21
BRANCH  11  28
ATOM     28  C   UNL     1      -8.302  -0.045   0.000  0.00  0.00    +0.000 C 
BRANCH  28  29
ATOM     29 SE   UNL     1      -8.047   0.740   0.000  0.00  0.00    +0.000 Se
ATOM     30  C   UNL     1      -7.792   1.524   0.000  0.00  0.00    +0.000 C 
ENDBRANCH  28  29
ENDBRANCH  11  28
TORSDOF 7
