REMARK  Name = 
REMARK  7 active torsions:
REMARK  status: ('A' for Active; 'I' for Inactive)
REMARK    1  A    between atoms: C_2  and  C_3
REMARK    2  A    between atoms: C_2  and  C_16
REMARK    3  A    between atoms: C_5  and  C_8
REMARK    4  A    between atoms: C_11  and  C_14
REMARK    5  A    between atoms: C_16  and  C_17
REMARK    6  A    between atoms: C_16  and  C_23
REMARK    7  A    between atoms: C_17  and  N_18
REMARK                            x       y       z     vdW  Elec       q    Type
REMARK                         _______ _______ _______ _____ _____    ______ ____
ROOT
ATOM      1  C   UNL     1      -0.160  -0.620   0.000  0.00  0.00    +0.000 C 
ATOM      2  O   UNL     1       0.555  -0.208   0.000  0.00  0.00    +0.000 OA
ENDROOT
BRANCH   1   3
ATOM      3  C   UNL     1      -0.572   0.094   0.000  0.00  0.00    +0.000 A 
ATOM      4  C   UNL     1      -1.397   0.094   0.000  0.00  0.00    +0.000 A 
ATOM      5  C   UNL     1      -1.810   0.808   0.000  0.00  0.00    +0.000 A 
ATOM      6  C   UNL     1      -1.397   1.523   0.000  0.00  0.00    +0.000 A 
ATOM      7  C   UNL     1      -0.572   1.523   0.000  0.00  0.00    +0.000 A 
ATOM      8  C   UNL     1      -0.160   0.808   0.000  0.00  0.00    +0.000 A 
ATOM      9  F   UNL     1       0.665   0.808   0.000  0.00  0.00    +0.000 F 
ATOM     10  F   UNL     1      -1.810   2.237   0.000  0.00  0.00    +0.000 F 
ENDBRANCH   1   3
BRANCH   1  12
ATOM     11  C   UNL     1      -1.588  -0.620   0.000  0.00  0.00    +0.000 C 
ATOM     12  C   UNL     1      -0.874  -1.033   0.000  0.00  0.00    +0.000 C 
BRANCH  12  13
ATOM     13  C   UNL     1      -0.874  -1.858   0.000  0.00  0.00    +0.000 A 
ATOM     14  N   UNL     1      -0.206  -2.343   0.000  0.00  0.00    +0.000 NA
ATOM     15  C   UNL     1      -0.461  -3.127   0.000  0.00  0.00    +0.000 A 
ATOM     16  C   UNL     1      -1.286  -3.127   0.000  0.00  0.00    +0.000 A 
ATOM     17  S   UNL     1      -1.541  -2.343   0.000  0.00  0.00    +0.000 S 
BRANCH  15  18
ATOM     18  C   UNL     1       0.024  -3.795   0.000  0.00  0.00    +0.000 A 
ATOM     19  C   UNL     1       0.844  -3.709   0.000  0.00  0.00    +0.000 A 
ATOM     20  C   UNL     1       1.329  -4.376   0.000  0.00  0.00    +0.000 A 
ATOM     21  C   UNL     1       0.993  -5.130   0.000  0.00  0.00    +0.000 A 
ATOM     22  C   UNL     1       0.173  -5.216   0.000  0.00  0.00    +0.000 A 
ATOM     23  C   UNL     1      -0.312  -4.549   0.000  0.00  0.00    +0.000 A 
BRANCH  21  24
ATOM     24  C   UNL     1       1.478  -5.797   0.000  0.00  0.00    +0.000 C 
ATOM     25  N   UNL     1       1.963  -6.465   0.000  0.00  0.00    +0.000 NA
ENDBRANCH  21  24
ENDBRANCH  15  18
ENDBRANCH  12  13
ENDBRANCH   1  12
BRANCH   1  26
ATOM     26  C   UNL     1       0.253  -1.335   0.000  0.00  0.00    +0.000 C 
BRANCH  26  27
ATOM     27  N   UNL     1       1.078  -1.335   0.000  0.00  0.00    +0.000 N 
ATOM     28  C   UNL     1       1.563  -0.667   0.000  0.00  0.00    +0.000 A 
ATOM     29  N   UNL     1       2.348  -0.922   0.000  0.00  0.00    +0.000 NA
ATOM     30  C   UNL     1       2.348  -1.747   0.000  0.00  0.00    +0.000 A 
ATOM     31  N   UNL     1       1.563  -2.002   0.000  0.00  0.00    +0.000 NA
ENDBRANCH  26  27
ENDBRANCH   1  26
TORSDOF 7
