REMARK  Name = 
REMARK  7 active torsions:
REMARK  status: ('A' for Active; 'I' for Inactive)
REMARK    1  A    between atoms: C_4  and  C_14
REMARK    2  A    between atoms: C_14  and  C_21
REMARK    3  A    between atoms: C_19  and  C_32
REMARK    4  A    between atoms: C_20  and  O_24
REMARK    5  A    between atoms: C_20  and  C_33
REMARK    6  A    between atoms: C_21  and  O_24
REMARK    7  A    between atoms: C_32  and  C_33
REMARK                            x       y       z     vdW  Elec       q    Type
REMARK                         _______ _______ _______ _____ _____    ______ ____
ROOT
ATOM      1  C   UNL     1      -2.892  -0.748   0.000  0.00  0.00    +0.000 C 
ATOM      2  C   UNL     1      -0.741   0.476   0.000  0.00  0.00    +0.000 C 
ATOM      3  C   UNL     1      -2.892  -1.569   0.000  0.00  0.00    +0.000 C 
ATOM      4  C   UNL     1       0.046   0.724   0.000  0.00  0.00    +0.000 C 
ATOM      5  C   UNL     1      -2.178  -0.330   0.000  0.00  0.00    +0.000 C 
ATOM      6  C   UNL     1      -1.464  -0.753   0.000  0.00  0.00    +0.000 C 
ATOM      7  C   UNL     1      -0.750  -0.345   0.000  0.00  0.00    +0.000 C 
ATOM      8  C   UNL     1      -3.606  -0.330   0.000  0.00  0.00    +0.000 C 
ATOM      9  C   UNL     1      -1.454   0.898   0.000  0.00  0.00    +0.000 C 
ATOM     10  C   UNL     1      -2.178   0.490   0.000  0.00  0.00    +0.000 C 
ATOM     11  C   UNL     1      -1.469  -1.578   0.000  0.00  0.00    +0.000 C 
ATOM     12  C   UNL     1      -3.606  -1.986   0.000  0.00  0.00    +0.000 C 
ATOM     13  C   UNL     1      -2.183  -1.986   0.000  0.00  0.00    +0.000 C 
ATOM     14  C   UNL     1       0.517   0.053   0.000  0.00  0.00    +0.000 C 
ATOM     15  C   UNL     1       0.032  -0.607   0.000  0.00  0.00    +0.000 C 
ATOM     16  C   UNL     1      -4.319  -0.748   0.000  0.00  0.00    +0.000 C 
ATOM     17  C   UNL     1      -4.319  -1.569   0.000  0.00  0.00    +0.000 C 
ATOM     18  O   UNL     1      -5.033  -1.976   0.000  0.00  0.00    +0.000 OA
ATOM     19  O   UNL     1       0.760   1.141   0.000  0.00  0.00    +0.000 OA
ATOM     20  C   UNL     1      -2.897   0.078   0.000  0.00  0.00    +0.000 C 
ATOM     21  C   UNL     1      -0.750   1.301   0.000  0.00  0.00    +0.000 C 
ATOM     22  O   UNL     1      -2.892   0.908   0.000  0.00  0.00    +0.000 OA
ATOM     23  C   UNL     1      -2.192  -2.807   0.000  0.00  0.00    +0.000 C 
ENDROOT
BRANCH   4  24
ATOM     24  C   UNL     1       0.036   1.549   0.000  0.00  0.00    +0.000 C 
ATOM     25  O   UNL     1      -0.677   1.957   0.000  0.00  0.00    +0.000 OA
BRANCH  24  26
ATOM     26  C   UNL     1       0.750   1.971   0.000  0.00  0.00    +0.000 C 
BRANCH  26  27
ATOM     27  O   UNL     1       1.464   1.563   0.000  0.00  0.00    +0.000 OA
BRANCH  27  28
ATOM     28  C   UNL     1       2.178   1.986   0.000  0.00  0.00    +0.000 C 
ATOM     29  O   UNL     1       2.173   2.807   0.000  0.00  0.00    +0.000 OA
BRANCH  28  30
ATOM     30  C   UNL     1       2.892   1.578   0.000  0.00  0.00    +0.000 C 
BRANCH  30  31
ATOM     31  C   UNL     1       3.606   1.991   0.000  0.00  0.00    +0.000 C 
BRANCH  31  32
ATOM     32  C   UNL     1       4.329   1.583   0.000  0.00  0.00    +0.000 C 
ATOM     33  O   UNL     1       5.033   2.001   0.000  0.00  0.00    +0.000 OA
ATOM     34  O   UNL     1       4.334   0.762   0.000  0.00  0.00    +0.000 OA
ENDBRANCH  31  32
ENDBRANCH  30  31
ENDBRANCH  28  30
ENDBRANCH  27  28
ENDBRANCH  26  27
ENDBRANCH  24  26
ENDBRANCH   4  24
TORSDOF 7
