REMARK  Name = 
REMARK  20 active torsions:
REMARK  status: ('A' for Active; 'I' for Inactive)
REMARK    1  A    between atoms: C_2  and  N_38
REMARK    2  A    between atoms: C_17  and  C_23
REMARK    3  A    between atoms: C_23  and  C_24
REMARK    4  A    between atoms: C_24  and  C_26
REMARK    5  A    between atoms: C_26  and  C_27
REMARK    6  A    between atoms: C_27  and  C_28
REMARK    7  A    between atoms: C_27  and  O_33
REMARK    8  A    between atoms: O_33  and  S_34
REMARK    9  A    between atoms: N_38  and  C_39
REMARK   10  A    between atoms: C_39  and  C_40
REMARK   11  A    between atoms: C_40  and  C_41
REMARK   12  A    between atoms: C_41  and  N_42
REMARK   13  A    between atoms: N_42  and  C_43
REMARK   14  A    between atoms: C_43  and  C_44
REMARK   15  A    between atoms: C_44  and  C_45
REMARK   16  A    between atoms: C_45  and  C_46
REMARK   17  A    between atoms: C_46  and  N_47
REMARK   18  A    between atoms: N_47  and  C_48
REMARK   19  A    between atoms: C_48  and  C_49
REMARK   20  A    between atoms: C_49  and  C_50
REMARK                            x       y       z     vdW  Elec       q    Type
REMARK                         _______ _______ _______ _____ _____    ______ ____
ROOT
ATOM      1  C   UNL     1      -1.478   2.137   0.000  0.00  0.00    +0.000 C 
ATOM      2  C   UNL     1      -1.478   1.306   0.000  0.00  0.00    +0.000 C 
ATOM      3  C   UNL     1      -0.763   0.894   0.000  0.00  0.00    +0.000 C 
ATOM      4  C   UNL     1      -0.763   2.552   0.000  0.00  0.00    +0.000 C 
ATOM      5  C   UNL     1      -0.046   2.137   0.000  0.00  0.00    +0.000 C 
ATOM      6  C   UNL     1      -0.044   1.306   0.000  0.00  0.00    +0.000 C 
ATOM      7  C   UNL     1       0.671   0.896   0.000  0.00  0.00    +0.000 C 
ATOM      8  C   UNL     1       1.388   1.309   0.000  0.00  0.00    +0.000 C 
ATOM      9  C   UNL     1       0.668   2.553   0.000  0.00  0.00    +0.000 C 
ATOM     10  C   UNL     1       1.391   2.137   0.000  0.00  0.00    +0.000 C 
ATOM     11  C   UNL     1       1.387   3.800   0.000  0.00  0.00    +0.000 C 
ATOM     12  C   UNL     1       0.664   3.381   0.000  0.00  0.00    +0.000 C 
ATOM     13  C   UNL     1       2.106   3.384   0.000  0.00  0.00    +0.000 C 
ATOM     14  C   UNL     1       2.103   2.550   0.000  0.00  0.00    +0.000 C 
ATOM     15  C   UNL     1       2.895   2.290   0.000  0.00  0.00    +0.000 C 
ATOM     16  C   UNL     1       3.386   2.964   0.000  0.00  0.00    +0.000 C 
ATOM     17  C   UNL     1       2.899   3.636   0.000  0.00  0.00    +0.000 C 
ATOM     18  C   UNL     1      -0.054   2.961   0.000  0.00  0.00    +0.000 C 
ATOM     19  C   UNL     1       2.098   4.209   0.000  0.00  0.00    +0.000 C 
ATOM     20  O   UNL     1       2.102   0.895   0.000  0.00  0.00    +0.000 OA
ENDROOT
BRANCH  17  21
ATOM     21  C   UNL     1       3.614   4.048   0.000  0.00  0.00    +0.000 C 
ATOM     22  C   UNL     1       3.614   4.872   0.000  0.00  0.00    +0.000 C 
BRANCH  21  23
ATOM     23  C   UNL     1       4.329   3.636   0.000  0.00  0.00    +0.000 C 
BRANCH  23  24
ATOM     24  C   UNL     1       5.044   4.048   0.000  0.00  0.00    +0.000 C 
BRANCH  24  25
ATOM     25  C   UNL     1       5.754   3.636   0.000  0.00  0.00    +0.000 C 
BRANCH  25  26
ATOM     26  C   UNL     1       5.754   2.813   0.000  0.00  0.00    +0.000 C 
ATOM     27  C   UNL     1       6.469   2.401   0.000  0.00  0.00    +0.000 C 
ATOM     28  C   UNL     1       5.044   2.401   0.000  0.00  0.00    +0.000 C 
ENDBRANCH  25  26
BRANCH  25  29
ATOM     29  O   UNL     1       6.469   4.048   0.000  0.00  0.00    +0.000 OA
BRANCH  29  30
ATOM     30  S   UNL     1       7.180   3.636   0.000  0.00  0.00    +0.000 S 
ATOM     31  O   UNL     1       7.895   3.224   0.000  0.00  0.00    +0.000 OA
ATOM     32  O   UNL     1       6.768   2.921   0.000  0.00  0.00    +0.000 OA
ATOM     33  O   UNL     1       7.592   4.351   0.000  0.00  0.00    +0.000 OA
ENDBRANCH  29  30
ENDBRANCH  25  29
ENDBRANCH  24  25
ENDBRANCH  23  24
ENDBRANCH  21  23
ENDBRANCH  17  21
BRANCH   2  34
ATOM     34  N   UNL     1      -2.189   0.894   0.000  0.00  0.00    +0.000 NA
BRANCH  34  35
ATOM     35  C   UNL     1      -2.903   1.306   0.000  0.00  0.00    +0.000 C 
BRANCH  35  36
ATOM     36  C   UNL     1      -3.614   0.894   0.000  0.00  0.00    +0.000 C 
BRANCH  36  37
ATOM     37  C   UNL     1      -4.329   1.306   0.000  0.00  0.00    +0.000 C 
BRANCH  37  38
ATOM     38  N   UNL     1      -5.044   0.894   0.000  0.00  0.00    +0.000 NA
BRANCH  38  39
ATOM     39  C   UNL     1      -5.044   0.071   0.000  0.00  0.00    +0.000 C 
BRANCH  39  40
ATOM     40  C   UNL     1      -5.758  -0.341   0.000  0.00  0.00    +0.000 C 
BRANCH  40  41
ATOM     41  C   UNL     1      -5.758  -1.165   0.000  0.00  0.00    +0.000 C 
BRANCH  41  42
ATOM     42  C   UNL     1      -6.469  -1.577   0.000  0.00  0.00    +0.000 C 
BRANCH  42  43
ATOM     43  N   UNL     1      -6.469  -2.401   0.000  0.00  0.00    +0.000 NA
BRANCH  43  44
ATOM     44  C   UNL     1      -7.184  -2.813   0.000  0.00  0.00    +0.000 C 
BRANCH  44  45
ATOM     45  C   UNL     1      -7.184  -3.636   0.000  0.00  0.00    +0.000 C 
BRANCH  45  46
ATOM     46  C   UNL     1      -7.895  -4.048   0.000  0.00  0.00    +0.000 C 
ATOM     47  N   UNL     1      -7.895  -4.872   0.000  0.00  0.00    +0.000 NA
ENDBRANCH  45  46
ENDBRANCH  44  45
ENDBRANCH  43  44
ENDBRANCH  42  43
ENDBRANCH  41  42
ENDBRANCH  40  41
ENDBRANCH  39  40
ENDBRANCH  38  39
ENDBRANCH  37  38
ENDBRANCH  36  37
ENDBRANCH  35  36
ENDBRANCH  34  35
ENDBRANCH   2  34
TORSDOF 20
