REMARK  Name = 
REMARK  9 active torsions:
REMARK  status: ('A' for Active; 'I' for Inactive)
REMARK    1  A    between atoms: C_2  and  C_3
REMARK    2  A    between atoms: C_3  and  C_4
REMARK    3  A    between atoms: C_4  and  C_5
REMARK    4  A    between atoms: C_4  and  N_9
REMARK    5  A    between atoms: N_9  and  N_20
REMARK    6  A    between atoms: C_10  and  C_12
REMARK    7  A    between atoms: C_21  and  C_23
REMARK    8  A    between atoms: C_27  and  O_31
REMARK    9  A    between atoms: C_28  and  C_29
REMARK                            x       y       z     vdW  Elec       q    Type
REMARK                         _______ _______ _______ _____ _____    ______ ____
ROOT
ATOM      1  N   UNL     1       2.143  -3.712   0.000  0.00  0.00    +0.000 N 
ATOM      2  C   UNL     1       2.858  -4.125   0.000  0.00  0.00    +0.000 C 
ATOM      3  O   UNL     1       3.572  -3.712   0.000  0.00  0.00    +0.000 OA
ENDROOT
BRANCH   2   4
ATOM      4  C   UNL     1       2.858  -4.950   0.000  0.00  0.00    +0.000 A 
ATOM      5  C   UNL     1       3.572  -5.362   0.000  0.00  0.00    +0.000 A 
ATOM      6  C   UNL     1       3.572  -6.188   0.000  0.00  0.00    +0.000 A 
ATOM      7  C   UNL     1       2.858  -6.600   0.000  0.00  0.00    +0.000 A 
ATOM      8  C   UNL     1       2.143  -6.188   0.000  0.00  0.00    +0.000 A 
ATOM      9  C   UNL     1       2.143  -5.362   0.000  0.00  0.00    +0.000 A 
ATOM     10  C   UNL     1       1.429  -6.600   0.000  0.00  0.00    +0.000 C 
ATOM     11  C   UNL     1       4.287  -6.600   0.000  0.00  0.00    +0.000 C 
ENDBRANCH   2   4
BRANCH   1  12
ATOM     12  N   UNL     1       1.429  -4.125   0.000  0.00  0.00    +0.000 NA
ATOM     13  C   UNL     1       0.715  -3.712   0.000  0.00  0.00    +0.000 C 
ATOM     14  O   UNL     1       0.715  -2.888   0.000  0.00  0.00    +0.000 OA
BRANCH  13  15
ATOM     15  C   UNL     1       0.000  -4.125   0.000  0.00  0.00    +0.000 A 
ATOM     16  C   UNL     1       0.000  -4.950   0.000  0.00  0.00    +0.000 A 
ATOM     17  C   UNL     1      -0.715  -5.362   0.000  0.00  0.00    +0.000 A 
ATOM     18  C   UNL     1      -1.429  -4.950   0.000  0.00  0.00    +0.000 A 
ATOM     19  C   UNL     1      -1.429  -4.125   0.000  0.00  0.00    +0.000 A 
ATOM     20  C   UNL     1      -0.715  -3.712   0.000  0.00  0.00    +0.000 A 
BRANCH  20  21
ATOM     21  C   UNL     1      -0.715  -2.888   0.000  0.00  0.00    +0.000 C 
ATOM     22  C   UNL     1       0.000  -2.475   0.000  0.00  0.00    +0.000 C 
ENDBRANCH  20  21
BRANCH  19  23
ATOM     23  O   UNL     1      -2.143  -3.712   0.000  0.00  0.00    +0.000 OA
ATOM     24  C   UNL     1      -2.858  -4.125   0.000  0.00  0.00    +0.000 C 
ENDBRANCH  19  23
ENDBRANCH  13  15
ENDBRANCH   1  12
BRANCH   1  25
ATOM     25  C   UNL     1       2.143  -2.888   0.000  0.00  0.00    +0.000 C 
BRANCH  25  26
ATOM     26  C   UNL     1       2.858  -2.475   0.000  0.00  0.00    +0.000 C 
ATOM     27  C   UNL     1       3.270  -3.189   0.000  0.00  0.00    +0.000 C 
ATOM     28  C   UNL     1       2.445  -1.760   0.000  0.00  0.00    +0.000 C 
ATOM     29  C   UNL     1       3.572  -2.062   0.000  0.00  0.00    +0.000 C 
ENDBRANCH  25  26
BRANCH  25  30
ATOM     30  C   UNL     1       1.429  -2.475   0.000  0.00  0.00    +0.000 C 
BRANCH  30  32
ATOM     31  C   UNL     1       0.715  -1.238   0.000  0.00  0.00    +0.000 C 
ATOM     32  C   UNL     1       1.429  -1.650   0.000  0.00  0.00    +0.000 C 
ENDBRANCH  30  32
ENDBRANCH  25  30
ENDBRANCH   1  25
TORSDOF 9
