REMARK  Name = 
REMARK  7 active torsions:
REMARK  status: ('A' for Active; 'I' for Inactive)
REMARK    1  A    between atoms: C_6  and  C_10
REMARK    2  A    between atoms: N_13  and  C_15
REMARK    3  A    between atoms: C_15  and  C_38
REMARK    4  A    between atoms: N_17  and  C_19
REMARK    5  A    between atoms: C_25  and  C_27
REMARK    6  A    between atoms: C_31  and  C_34
REMARK    7  A    between atoms: C_38  and  C_39
REMARK                            x       y       z     vdW  Elec       q    Type
REMARK                         _______ _______ _______ _____ _____    ______ ____
ROOT
ATOM      1  C   UNL     1       2.253   2.889   0.000  0.00  0.00    +0.000 C 
ATOM      2  C   UNL     1       2.738   3.557   0.000  0.00  0.00    +0.000 C 
ATOM      3  N   UNL     1       3.405   3.072   0.000  0.00  0.00    +0.000 NA
ATOM      4  C   UNL     1       2.920   2.404   0.000  0.00  0.00    +0.000 C 
ENDROOT
BRANCH   3   5
ATOM      5  C   UNL     1       4.220   3.201   0.000  0.00  0.00    +0.000 C 
ATOM      6  C   UNL     1       4.516   3.971   0.000  0.00  0.00    +0.000 C 
ATOM      7  C   UNL     1       5.331   4.100   0.000  0.00  0.00    +0.000 C 
ATOM      8  N   UNL     1       5.850   3.459   0.000  0.00  0.00    +0.000 N 
ATOM      9  C   UNL     1       5.554   2.688   0.000  0.00  0.00    +0.000 C 
ATOM     10  C   UNL     1       4.739   2.559   0.000  0.00  0.00    +0.000 C 
ATOM     11  C   UNL     1       6.665   3.588   0.000  0.00  0.00    +0.000 C 
ATOM     12  O   UNL     1       7.184   2.947   0.000  0.00  0.00    +0.000 OA
BRANCH  11  13
ATOM     13  C   UNL     1       6.960   4.358   0.000  0.00  0.00    +0.000 A 
ATOM     14  C   UNL     1       6.441   4.999   0.000  0.00  0.00    +0.000 A 
ATOM     15  C   UNL     1       6.737   5.769   0.000  0.00  0.00    +0.000 A 
ATOM     16  N   UNL     1       7.552   5.898   0.000  0.00  0.00    +0.000 NA
ATOM     17  C   UNL     1       8.071   5.257   0.000  0.00  0.00    +0.000 A 
ATOM     18  C   UNL     1       7.775   4.487   0.000  0.00  0.00    +0.000 A 
ATOM     19  F   UNL     1       8.294   3.846   0.000  0.00  0.00    +0.000 F 
BRANCH  17  20
ATOM     20  C   UNL     1       8.886   5.386   0.000  0.00  0.00    +0.000 C 
ATOM     21  F   UNL     1       9.701   5.515   0.000  0.00  0.00    +0.000 F 
ATOM     22  F   UNL     1       9.015   4.572   0.000  0.00  0.00    +0.000 F 
ATOM     23  F   UNL     1       8.757   6.201   0.000  0.00  0.00    +0.000 F 
ENDBRANCH  17  20
ENDBRANCH  11  13
ENDBRANCH   3   5
BRANCH   1  27
ATOM     24  C   UNL     1       1.356   0.952   0.000  0.00  0.00    +0.000 A 
ATOM     25  C   UNL     1       0.688   1.437   0.000  0.00  0.00    +0.000 A 
ATOM     26  N   UNL     1       0.943   2.222   0.000  0.00  0.00    +0.000 NA
ATOM     27  N   UNL     1       1.768   2.222   0.000  0.00  0.00    +0.000 N 
ATOM     28  C   UNL     1       2.023   1.437   0.000  0.00  0.00    +0.000 A 
BRANCH  24  34
ATOM     29  C   UNL     1      -0.143  -0.030   0.000  0.00  0.00    +0.000 A 
ATOM     30  C   UNL     1      -0.628  -0.698   0.000  0.00  0.00    +0.000 A 
ATOM     31  N   UNL     1      -0.143  -1.365   0.000  0.00  0.00    +0.000 NA
ATOM     32  C   UNL     1       0.641  -1.110   0.000  0.00  0.00    +0.000 A 
ATOM     33  C   UNL     1       0.641  -0.285   0.000  0.00  0.00    +0.000 A 
ATOM     34  C   UNL     1       1.356   0.127   0.000  0.00  0.00    +0.000 A 
ATOM     35  N   UNL     1       2.070  -0.285   0.000  0.00  0.00    +0.000 NA
ATOM     36  C   UNL     1       2.070  -1.110   0.000  0.00  0.00    +0.000 A 
ATOM     37  N   UNL     1       1.356  -1.523   0.000  0.00  0.00    +0.000 NA
ENDBRANCH  24  34
ENDBRANCH   1  27
BRANCH   1  38
ATOM     38  C   UNL     1       1.586   3.374   0.000  0.00  0.00    +0.000 C 
BRANCH  38  39
ATOM     39  C   UNL     1       1.672   4.194   0.000  0.00  0.00    +0.000 C 
ATOM     40  N   UNL     1       1.758   5.015   0.000  0.00  0.00    +0.000 NA
ENDBRANCH  38  39
ENDBRANCH   1  38
TORSDOF 7
