REMARK  Name = 
REMARK  8 active torsions:
REMARK  status: ('A' for Active; 'I' for Inactive)
REMARK    1  A    between atoms: C_19  and  C_31
REMARK    2  A    between atoms: C_25  and  C_33
REMARK    3  A    between atoms: C_28  and  C_34
REMARK    4  A    between atoms: C_29  and  C_35
REMARK    5  A    between atoms: C_33  and  C_40
REMARK    6  A    between atoms: C_35  and  C_41
REMARK    7  A    between atoms: C_40  and  C_43
REMARK    8  A    between atoms: C_41  and  C_44
REMARK                            x       y       z     vdW  Elec       q    Type
REMARK                         _______ _______ _______ _____ _____    ______ ____
ROOT
ATOM      1 CU   UNL     1      -0.735  -0.761   0.000  0.00  0.00    +0.000 Cu
ENDROOT
TORSDOF 0
REMARK  Name = 
REMARK  8 active torsions:
REMARK  status: ('A' for Active; 'I' for Inactive)
REMARK    1  A    between atoms: C_19  and  C_31
REMARK    2  A    between atoms: C_25  and  C_33
REMARK    3  A    between atoms: C_28  and  C_34
REMARK    4  A    between atoms: C_29  and  C_35
REMARK    5  A    between atoms: C_33  and  C_40
REMARK    6  A    between atoms: C_35  and  C_41
REMARK    7  A    between atoms: C_40  and  C_43
REMARK    8  A    between atoms: C_41  and  C_44
REMARK                            x       y       z     vdW  Elec       q    Type
REMARK                         _______ _______ _______ _____ _____    ______ ____
ROOT
ATOM      1  N   UNL     1      -1.928  -0.738   0.000  0.00  0.00    +0.000 N 
ATOM      2  N   UNL     1      -0.731   0.377   0.000  0.00  0.00    +0.000 NA
ATOM      3  N   UNL     1      -0.704  -1.853   0.000  0.00  0.00    +0.000 NA
ATOM      4  N   UNL     1       0.519  -0.738   0.000  0.00  0.00    +0.000 NA
ATOM      5  C   UNL     1      -2.389  -1.364   0.000  0.00  0.00    +0.000 A 
ATOM      6  C   UNL     1      -2.389  -0.113   0.000  0.00  0.00    +0.000 A 
ATOM      7  C   UNL     1      -1.384   0.893   0.000  0.00  0.00    +0.000 C 
ATOM      8  C   UNL     1      -1.356  -2.369   0.000  0.00  0.00    +0.000 C 
ATOM      9  C   UNL     1      -1.534   0.025   0.000  0.00  0.00    +0.000 C 
ATOM     10  C   UNL     1      -0.051   0.920   0.000  0.00  0.00    +0.000 C 
ATOM     11  C   UNL     1      -0.051  -2.342   0.000  0.00  0.00    +0.000 C 
ATOM     12  C   UNL     1       0.981  -0.085   0.000  0.00  0.00    +0.000 A 
ATOM     13  C   UNL     1       1.008  -1.336   0.000  0.00  0.00    +0.000 A 
ATOM     14  C   UNL     1      -3.177  -1.146   0.000  0.00  0.00    +0.000 A 
ATOM     15  C   UNL     1      -3.177  -0.331   0.000  0.00  0.00    +0.000 A 
ATOM     16  C   UNL     1      -2.144  -2.124   0.000  0.00  0.00    +0.000 C 
ATOM     17  C   UNL     1      -2.171   0.675   0.000  0.00  0.00    +0.000 C 
ATOM     18  C   UNL     1       0.737   0.675   0.000  0.00  0.00    +0.000 C 
ATOM     19  C   UNL     1       0.764  -2.124   0.000  0.00  0.00    +0.000 C 
ATOM     20  C   UNL     1      -0.323   1.681   0.000  0.00  0.00    +0.000 C 
ATOM     21  C   UNL     1      -1.138   1.681   0.000  0.00  0.00    +0.000 C 
ATOM     22  C   UNL     1      -1.111  -3.130   0.000  0.00  0.00    +0.000 C 
ATOM     23  C   UNL     1      -0.296  -3.130   0.000  0.00  0.00    +0.000 C 
ATOM     24  C   UNL     1       1.770  -0.303   0.000  0.00  0.00    +0.000 A 
ATOM     25  C   UNL     1       1.770  -1.118   0.000  0.00  0.00    +0.000 A 
ATOM     26  C   UNL     1      -3.860   0.189   0.000  0.00  0.00    +0.000 C 
ATOM     27  C   UNL     1      -1.647   2.372   0.000  0.00  0.00    +0.000 C 
ATOM     28  C   UNL     1      -1.616  -3.824   0.000  0.00  0.00    +0.000 C 
ATOM     29  C   UNL     1       2.455  -1.635   0.000  0.00  0.00    +0.000 C 
ENDROOT
BRANCH  14  30
ATOM     30  C   UNL     1      -3.860  -1.665   0.000  0.00  0.00    +0.000 C 
ATOM     31  C   UNL     1      -4.652  -1.334   0.000  0.00  0.00    +0.000 C 
ENDBRANCH  14  30
BRANCH  23  32
ATOM     32  C   UNL     1       0.133  -3.873   0.000  0.00  0.00    +0.000 C 
ATOM     33  C   UNL     1      -0.296  -4.617   0.000  0.00  0.00    +0.000 C 
ENDBRANCH  23  32
BRANCH  20  34
ATOM     34  C   UNL     1       0.171   2.383   0.000  0.00  0.00    +0.000 C 
BRANCH  34  35
ATOM     35  C   UNL     1      -0.190   3.162   0.000  0.00  0.00    +0.000 C 
BRANCH  35  38
ATOM     36  O   UNL     1      -0.057   4.643   0.000  0.00  0.00    +0.000 OA
ATOM     37  O   UNL     1       1.159   3.787   0.000  0.00  0.00    +0.000 OA
ATOM     38  C   UNL     1       0.304   3.864   0.000  0.00  0.00    +0.000 C 
ENDBRANCH  35  38
ENDBRANCH  34  35
ENDBRANCH  20  34
BRANCH  24  39
ATOM     39  C   UNL     1       2.453   0.216   0.000  0.00  0.00    +0.000 C 
BRANCH  39  40
ATOM     40  C   UNL     1       3.245  -0.115   0.000  0.00  0.00    +0.000 C 
BRANCH  40  43
ATOM     41  O   UNL     1       4.720   0.073   0.000  0.00  0.00    +0.000 OA
ATOM     42  O   UNL     1       3.819   1.256   0.000  0.00  0.00    +0.000 OA
ATOM     43  C   UNL     1       3.928   0.405   0.000  0.00  0.00    +0.000 C 
ENDBRANCH  40  43
ENDBRANCH  39  40
ENDBRANCH  24  39
TORSDOF 8
