REMARK  Name = 
REMARK  20 active torsions:
REMARK  status: ('A' for Active; 'I' for Inactive)
REMARK    1  A    between atoms: C_2  and  C_3
REMARK    2  A    between atoms: C_3  and  C_4
REMARK    3  A    between atoms: C_4  and  N_5
REMARK    4  A    between atoms: C_7  and  O_30
REMARK    5  A    between atoms: C_8  and  O_24
REMARK    6  A    between atoms: C_9  and  O_18
REMARK    7  A    between atoms: C_10  and  C_11
REMARK    8  A    between atoms: C_11  and  O_12
REMARK    9  A    between atoms: O_12  and  C_13
REMARK   10  A    between atoms: C_13  and  C_15
REMARK   11  A    between atoms: C_15  and  C_16
REMARK   12  A    between atoms: O_18  and  C_19
REMARK   13  A    between atoms: C_19  and  C_21
REMARK   14  A    between atoms: C_21  and  C_22
REMARK   15  A    between atoms: O_24  and  C_25
REMARK   16  A    between atoms: C_25  and  C_27
REMARK   17  A    between atoms: C_27  and  C_28
REMARK   18  A    between atoms: O_30  and  C_31
REMARK   19  A    between atoms: C_31  and  C_33
REMARK   20  A    between atoms: C_33  and  C_34
REMARK                            x       y       z     vdW  Elec       q    Type
REMARK                         _______ _______ _______ _____ _____    ______ ____
ROOT
ATOM      1  N   UNL     1       0.715  -0.412   0.000  0.00  0.00    +0.000 NA
ATOM      2  C   UNL     1       0.000   0.000   0.000  0.00  0.00    +0.000 C 
ATOM      3  C   UNL     1       0.000   0.825   0.000  0.00  0.00    +0.000 C 
ATOM      4  C   UNL     1       0.715   1.238   0.000  0.00  0.00    +0.000 C 
ATOM      5  C   UNL     1       1.429   0.825   0.000  0.00  0.00    +0.000 C 
ATOM      6  C   UNL     1       1.429   0.000   0.000  0.00  0.00    +0.000 C 
ENDROOT
BRANCH   1   7
ATOM      7  C   UNL     1       0.715  -1.238   0.000  0.00  0.00    +0.000 C 
BRANCH   7   8
ATOM      8  C   UNL     1       0.000  -1.650   0.000  0.00  0.00    +0.000 C 
BRANCH   8  10
ATOM      9  C   UNL     1      -1.429  -1.650   0.000  0.00  0.00    +0.000 C 
ATOM     10  C   UNL     1      -0.715  -1.238   0.000  0.00  0.00    +0.000 C 
ENDBRANCH   8  10
ENDBRANCH   7   8
ENDBRANCH   1   7
BRANCH   5  11
ATOM     11  O   UNL     1       2.143   1.238   0.000  0.00  0.00    +0.000 OA
BRANCH  11  12
ATOM     12  C   UNL     1       2.143   2.062   0.000  0.00  0.00    +0.000 C 
ATOM     13  O   UNL     1       1.429   2.475   0.000  0.00  0.00    +0.000 OA
BRANCH  12  14
ATOM     14  C   UNL     1       2.858   2.475   0.000  0.00  0.00    +0.000 C 
BRANCH  14  15
ATOM     15  C   UNL     1       2.858   3.300   0.000  0.00  0.00    +0.000 C 
ATOM     16  C   UNL     1       3.572   3.712   0.000  0.00  0.00    +0.000 C 
ENDBRANCH  14  15
ENDBRANCH  12  14
ENDBRANCH  11  12
ENDBRANCH   5  11
BRANCH   4  17
ATOM     17  O   UNL     1       0.715   2.062   0.000  0.00  0.00    +0.000 OA
BRANCH  17  18
ATOM     18  C   UNL     1       0.000   2.475   0.000  0.00  0.00    +0.000 C 
ATOM     19  O   UNL     1      -0.715   2.062   0.000  0.00  0.00    +0.000 OA
BRANCH  18  20
ATOM     20  C   UNL     1       0.000   3.300   0.000  0.00  0.00    +0.000 C 
BRANCH  20  21
ATOM     21  C   UNL     1      -0.715   3.712   0.000  0.00  0.00    +0.000 C 
ATOM     22  C   UNL     1      -0.715   4.537   0.000  0.00  0.00    +0.000 C 
ENDBRANCH  20  21
ENDBRANCH  18  20
ENDBRANCH  17  18
ENDBRANCH   4  17
BRANCH   3  23
ATOM     23  O   UNL     1      -0.715   1.238   0.000  0.00  0.00    +0.000 OA
BRANCH  23  24
ATOM     24  C   UNL     1      -1.429   0.825   0.000  0.00  0.00    +0.000 C 
ATOM     25  O   UNL     1      -2.143   1.238   0.000  0.00  0.00    +0.000 OA
BRANCH  24  26
ATOM     26  C   UNL     1      -1.429   0.000   0.000  0.00  0.00    +0.000 C 
BRANCH  26  27
ATOM     27  C   UNL     1      -2.143  -0.412   0.000  0.00  0.00    +0.000 C 
ATOM     28  C   UNL     1      -2.143  -1.238   0.000  0.00  0.00    +0.000 C 
ENDBRANCH  26  27
ENDBRANCH  24  26
ENDBRANCH  23  24
ENDBRANCH   3  23
BRANCH   6  29
ATOM     29  C   UNL     1       2.143  -0.412   0.000  0.00  0.00    +0.000 C 
BRANCH  29  30
ATOM     30  O   UNL     1       2.858   0.000   0.000  0.00  0.00    +0.000 OA
BRANCH  30  31
ATOM     31  C   UNL     1       3.572  -0.412   0.000  0.00  0.00    +0.000 C 
ATOM     32  O   UNL     1       3.572  -1.238   0.000  0.00  0.00    +0.000 OA
BRANCH  31  33
ATOM     33  C   UNL     1       4.287   0.000   0.000  0.00  0.00    +0.000 C 
BRANCH  33  34
ATOM     34  C   UNL     1       5.001  -0.412   0.000  0.00  0.00    +0.000 C 
ATOM     35  C   UNL     1       5.716   0.000   0.000  0.00  0.00    +0.000 C 
ENDBRANCH  33  34
ENDBRANCH  31  33
ENDBRANCH  30  31
ENDBRANCH  29  30
ENDBRANCH   6  29
TORSDOF 20
