REMARK  Name = 
REMARK  6 active torsions:
REMARK  status: ('A' for Active; 'I' for Inactive)
REMARK    1  A    between atoms: C_1  and  C_13
REMARK    2  A    between atoms: C_3  and  C_17
REMARK    3  A    between atoms: C_5  and  C_7
REMARK    4  A    between atoms: C_10  and  C_25
REMARK    5  A    between atoms: C_17  and  N_18
REMARK    6  A    between atoms: N_18  and  C_19
REMARK                            x       y       z     vdW  Elec       q    Type
REMARK                         _______ _______ _______ _____ _____    ______ ____
ROOT
ATOM      1  C   UNL     1      -2.042   0.832   0.000  0.00  0.00    +0.000 A 
ATOM      2  C   UNL     1      -2.454   0.117   0.000  0.00  0.00    +0.000 A 
ATOM      3  C   UNL     1      -2.041  -0.597   0.000  0.00  0.00    +0.000 A 
ATOM      4  C   UNL     1      -1.216  -0.597   0.000  0.00  0.00    +0.000 A 
ATOM      5  C   UNL     1      -0.804   0.117   0.000  0.00  0.00    +0.000 A 
ATOM      6  C   UNL     1      -1.216   0.832   0.000  0.00  0.00    +0.000 A 
ATOM      7  O   UNL     1      -0.804  -1.312   0.000  0.00  0.00    +0.000 OA
ENDROOT
BRANCH   5   8
ATOM      8  C   UNL     1       0.021   0.117   0.000  0.00  0.00    +0.000 A 
ATOM      9  C   UNL     1       0.433  -0.597   0.000  0.00  0.00    +0.000 A 
ATOM     10  N   UNL     1       1.259  -0.597   0.000  0.00  0.00    +0.000 NA
ATOM     11  C   UNL     1       1.671   0.117   0.000  0.00  0.00    +0.000 A 
ATOM     12  C   UNL     1       1.259   0.832   0.000  0.00  0.00    +0.000 A 
ATOM     13  C   UNL     1       0.433   0.832   0.000  0.00  0.00    +0.000 A 
ATOM     14  F   UNL     1       1.671   1.546   0.000  0.00  0.00    +0.000 F 
BRANCH  11  15
ATOM     15  C   UNL     1       2.496   0.117   0.000  0.00  0.00    +0.000 C 
ATOM     16  F   UNL     1       2.909  -0.597   0.000  0.00  0.00    +0.000 F 
ATOM     17  F   UNL     1       2.909   0.832   0.000  0.00  0.00    +0.000 F 
ATOM     18  F   UNL     1       3.321   0.117   0.000  0.00  0.00    +0.000 F 
ENDBRANCH  11  15
ENDBRANCH   5   8
BRANCH   1  19
ATOM     19  C   UNL     1      -2.454   1.546   0.000  0.00  0.00    +0.000 C 
ATOM     20  C   UNL     1      -3.279   1.546   0.000  0.00  0.00    +0.000 C 
ATOM     21  C   UNL     1      -2.042   2.261   0.000  0.00  0.00    +0.000 C 
ATOM     22  C   UNL     1      -2.866   2.261   0.000  0.00  0.00    +0.000 C 
ENDBRANCH   1  19
BRANCH   3  23
ATOM     23  C   UNL     1      -2.454  -1.312   0.000  0.00  0.00    +0.000 C 
BRANCH  23  24
ATOM     24  N   UNL     1      -3.279  -1.312   0.000  0.00  0.00    +0.000 NA
BRANCH  24  25
ATOM     25  C   UNL     1      -3.691  -2.026   0.000  0.00  0.00    +0.000 C 
ATOM     26  C   UNL     1      -4.516  -2.026   0.000  0.00  0.00    +0.000 C 
ATOM     27  C   UNL     1      -3.279  -2.740   0.000  0.00  0.00    +0.000 C 
ATOM     28  C   UNL     1      -4.104  -2.740   0.000  0.00  0.00    +0.000 C 
ENDBRANCH  24  25
ENDBRANCH  23  24
ENDBRANCH   3  23
TORSDOF 6
