REMARK  Name = 
REMARK  0 active torsions:
REMARK  status: ('A' for Active; 'I' for Inactive)
REMARK                            x       y       z     vdW  Elec       q    Type
REMARK                         _______ _______ _______ _____ _____    ______ ____
ROOT
ATOM      1 BR   UNL     1      -1.705  -1.236   0.000  0.00  0.00    +0.000 Br
ATOM      2  C   UNL     1      -0.993  -0.824   0.000  0.00  0.00    +0.000 A 
ATOM      3  N   UNL     1      -0.276  -1.236   0.000  0.00  0.00    +0.000 NA
ATOM      4  C   UNL     1       0.437  -0.824   0.000  0.00  0.00    +0.000 A 
ATOM      5  N   UNL     1       1.221  -1.079   0.000  0.00  0.00    +0.000 NA
ATOM      6  C   UNL     1       1.705  -0.411   0.000  0.00  0.00    +0.000 A 
ATOM      7  N   UNL     1       1.221   0.254   0.000  0.00  0.00    +0.000 NA
ATOM      8  C   UNL     1       0.437   0.002   0.000  0.00  0.00    +0.000 A 
ATOM      9  C   UNL     1      -0.276   0.411   0.000  0.00  0.00    +0.000 A 
ATOM     10  O   UNL     1      -0.276   1.236   0.000  0.00  0.00    +0.000 OA
ATOM     11  N   UNL     1      -0.993   0.002   0.000  0.00  0.00    +0.000 NA
ENDROOT
TORSDOF 0
