REMARK  Name = 
REMARK  7 active torsions:
REMARK  status: ('A' for Active; 'I' for Inactive)
REMARK    1  A    between atoms: C_2  and  C_4
REMARK    2  A    between atoms: C_4  and  O_5
REMARK    3  A    between atoms: O_5  and  C_6
REMARK    4  A    between atoms: C_11  and  C_13
REMARK    5  A    between atoms: C_16  and  C_17
REMARK    6  A    between atoms: N_19  and  S_20
REMARK    7  A    between atoms: S_20  and  C_23
REMARK                            x       y       z     vdW  Elec       q    Type
REMARK                         _______ _______ _______ _____ _____    ______ ____
ROOT
ATOM      1  C   UNL     1       5.874  -1.415   0.000  0.00  0.00    +0.000 A 
ATOM      2  C   UNL     1       6.487  -1.967   0.000  0.00  0.00    +0.000 A 
ATOM      3  C   UNL     1       6.315  -2.774   0.000  0.00  0.00    +0.000 A 
ATOM      4  C   UNL     1       5.531  -3.029   0.000  0.00  0.00    +0.000 A 
ATOM      5  C   UNL     1       4.918  -2.477   0.000  0.00  0.00    +0.000 A 
ATOM      6  N   UNL     1       5.089  -1.670   0.000  0.00  0.00    +0.000 NA
ATOM      7  N   UNL     1       4.133  -2.732   0.000  0.00  0.00    +0.000 N 
ATOM      8  C   UNL     1       3.878  -3.517   0.000  0.00  0.00    +0.000 C 
ATOM      9  C   UNL     1       3.053  -3.517   0.000  0.00  0.00    +0.000 C 
ATOM     10  C   UNL     1       2.568  -4.184   0.000  0.00  0.00    +0.000 C 
ATOM     11  C   UNL     1       2.798  -2.732   0.000  0.00  0.00    +0.000 C 
ATOM     12  C   UNL     1       3.466  -2.247   0.000  0.00  0.00    +0.000 C 
ATOM     13  C   UNL     1       3.061  -1.529   0.000  0.00  0.00    +0.000 C 
ATOM     14  C   UNL     1       3.871  -1.529   0.000  0.00  0.00    +0.000 C 
ENDROOT
BRANCH   1  20
ATOM     15  C   UNL     1       5.604   0.751   0.000  0.00  0.00    +0.000 A 
ATOM     16  C   UNL     1       6.388   1.006   0.000  0.00  0.00    +0.000 A 
ATOM     17  C   UNL     1       7.002   0.454   0.000  0.00  0.00    +0.000 A 
ATOM     18  F   UNL     1       7.786   0.708   0.000  0.00  0.00    +0.000 F 
ATOM     19  C   UNL     1       6.830  -0.353   0.000  0.00  0.00    +0.000 A 
ATOM     20  C   UNL     1       6.045  -0.608   0.000  0.00  0.00    +0.000 A 
ATOM     21  C   UNL     1       5.432  -0.056   0.000  0.00  0.00    +0.000 A 
BRANCH  15  22
ATOM     22  O   UNL     1       4.991   1.303   0.000  0.00  0.00    +0.000 OA
BRANCH  22  23
ATOM     23  C   UNL     1       5.162   2.110   0.000  0.00  0.00    +0.000 C 
BRANCH  23  25
ATOM     24  C   UNL     1       4.721   3.469   0.000  0.00  0.00    +0.000 C 
ATOM     25  C   UNL     1       4.549   2.662   0.000  0.00  0.00    +0.000 C 
ATOM     26  C   UNL     1       3.764   2.407   0.000  0.00  0.00    +0.000 C 
ENDBRANCH  23  25
ENDBRANCH  22  23
ENDBRANCH  15  22
ENDBRANCH   1  20
BRANCH   4  27
ATOM     27  C   UNL     1       5.359  -3.836   0.000  0.00  0.00    +0.000 C 
ATOM     28  O   UNL     1       4.575  -4.091   0.000  0.00  0.00    +0.000 OA
ATOM     29  N   UNL     1       5.972  -4.388   0.000  0.00  0.00    +0.000 NA
BRANCH  29  30
ATOM     30  S   UNL     1       5.801  -5.195   0.000  0.00  0.00    +0.000 S 
ATOM     31  O   UNL     1       4.994  -5.024   0.000  0.00  0.00    +0.000 OA
ATOM     32  O   UNL     1       6.608  -5.367   0.000  0.00  0.00    +0.000 OA
BRANCH  30  33
ATOM     33  C   UNL     1       5.629  -6.002   0.000  0.00  0.00    +0.000 A 
ATOM     34  C   UNL     1       6.242  -6.554   0.000  0.00  0.00    +0.000 A 
ATOM     35  C   UNL     1       6.071  -7.361   0.000  0.00  0.00    +0.000 A 
ATOM     36  C   UNL     1       5.286  -7.616   0.000  0.00  0.00    +0.000 A 
ATOM     37  C   UNL     1       4.673  -7.064   0.000  0.00  0.00    +0.000 A 
ATOM     38  C   UNL     1       4.845  -6.257   0.000  0.00  0.00    +0.000 A 
ENDBRANCH  30  33
ENDBRANCH  29  30
ENDBRANCH   4  27
TORSDOF 7
