REMARK  Name = 
REMARK  6 active torsions:
REMARK  status: ('A' for Active; 'I' for Inactive)
REMARK    1  A    between atoms: C_1  and  C_3
REMARK    2  A    between atoms: C_2  and  C_3
REMARK    3  A    between atoms: C_2  and  C_7
REMARK    4  A    between atoms: N_5  and  C_13
REMARK    5  A    between atoms: C_8  and  C_13
REMARK    6  A    between atoms: C_8  and  C_14
REMARK                            x       y       z     vdW  Elec       q    Type
REMARK                         _______ _______ _______ _____ _____    ______ ____
ROOT
ATOM      1  C   UNL     1      -0.171   0.200   0.000  0.00  0.00    +0.000 C 
ATOM      2  O   UNL     1      -0.171   1.013   0.000  0.00  0.00    +0.000 OA
ATOM      3  N   UNL     1       0.519  -0.205   0.000  0.00  0.00    +0.000 NA
ENDROOT
BRANCH   1   4
ATOM      4  C   UNL     1      -0.898  -0.205   0.000  0.00  0.00    +0.000 C 
ATOM      5  O   UNL     1      -0.898  -1.018   0.000  0.00  0.00    +0.000 OA
BRANCH   4   6
ATOM      6  C   UNL     1      -1.617   0.200   0.000  0.00  0.00    +0.000 C 
ATOM      7  C   UNL     1      -2.353  -0.351   0.000  0.00  0.00    +0.000 C 
ATOM      8  C   UNL     1      -1.629   1.018   0.000  0.00  0.00    +0.000 C 
BRANCH   6   9
ATOM      9  C   UNL     1      -2.379   0.616   0.000  0.00  0.00    +0.000 C 
ATOM     10  O   UNL     1      -3.271   0.034   0.000  0.00  0.00    +0.000 OA
ENDBRANCH   6   9
ENDBRANCH   4   6
ENDBRANCH   1   4
BRANCH   3  11
ATOM     11  C   UNL     1       1.241   0.200   0.000  0.00  0.00    +0.000 C 
BRANCH  11  12
ATOM     12  C   UNL     1       1.959  -0.205   0.000  0.00  0.00    +0.000 C 
BRANCH  12  14
ATOM     13  O   UNL     1       3.271  -0.137   0.000  0.00  0.00    +0.000 OA
ATOM     14  C   UNL     1       2.652   0.200   0.000  0.00  0.00    +0.000 C 
ENDBRANCH  12  14
ENDBRANCH  11  12
ENDBRANCH   3  11
TORSDOF 6
