REMARK  Name = 
REMARK  12 active torsions:
REMARK  status: ('A' for Active; 'I' for Inactive)
REMARK    1  A    between atoms: C_2  and  C_3
REMARK    2  A    between atoms: C_3  and  C_4
REMARK    3  A    between atoms: C_4  and  C_5
REMARK    4  A    between atoms: C_5  and  C_6
REMARK    5  A    between atoms: C_6  and  O_7
REMARK    6  A    between atoms: O_7  and  C_8
REMARK    7  A    between atoms: C_8  and  C_10
REMARK    8  A    between atoms: C_15  and  C_16
REMARK    9  A    between atoms: C_16  and  C_18
REMARK   10  A    between atoms: C_21  and  N_25
REMARK   11  A    between atoms: N_25  and  C_26
REMARK   12  A    between atoms: N_25  and  C_28
REMARK                            x       y       z     vdW  Elec       q    Type
REMARK                         _______ _______ _______ _____ _____    ______ ____
ROOT
ATOM      1  C   UNL     1       5.001  -6.188   0.000  0.00  0.00    +0.000 A 
ATOM      2  C   UNL     1       4.287  -6.600   0.000  0.00  0.00    +0.000 A 
ATOM      3  C   UNL     1       4.287  -7.425   0.000  0.00  0.00    +0.000 A 
ATOM      4  C   UNL     1       5.001  -7.838   0.000  0.00  0.00    +0.000 A 
ATOM      5  C   UNL     1       5.716  -7.425   0.000  0.00  0.00    +0.000 A 
ATOM      6  C   UNL     1       5.716  -6.600   0.000  0.00  0.00    +0.000 A 
ENDROOT
BRANCH   1   7
ATOM      7  C   UNL     1       5.001  -5.362   0.000  0.00  0.00    +0.000 C 
ATOM      8  O   UNL     1       5.716  -4.950   0.000  0.00  0.00    +0.000 OA
BRANCH   7   9
ATOM      9  O   UNL     1       4.287  -4.950   0.000  0.00  0.00    +0.000 OA
BRANCH   9  10
ATOM     10  C   UNL     1       4.287  -4.125   0.000  0.00  0.00    +0.000 C 
BRANCH  10  11
ATOM     11  C   UNL     1       3.572  -3.712   0.000  0.00  0.00    +0.000 C 
BRANCH  11  12
ATOM     12  C   UNL     1       2.858  -4.125   0.000  0.00  0.00    +0.000 C 
BRANCH  12  13
ATOM     13  C   UNL     1       2.858  -4.950   0.000  0.00  0.00    +0.000 C 
BRANCH  13  15
ATOM     14  C   UNL     1       2.143  -6.188   0.000  0.00  0.00    +0.000 C 
ATOM     15  C   UNL     1       2.143  -5.362   0.000  0.00  0.00    +0.000 C 
ENDBRANCH  13  15
ENDBRANCH  12  13
ENDBRANCH  11  12
ENDBRANCH  10  11
ENDBRANCH   9  10
ENDBRANCH   7   9
ENDBRANCH   1   7
BRANCH   6  16
ATOM     16  C   UNL     1       6.430  -6.188   0.000  0.00  0.00    +0.000 C 
ATOM     17  O   UNL     1       6.430  -5.362   0.000  0.00  0.00    +0.000 OA
BRANCH  16  18
ATOM     18  C   UNL     1       7.145  -6.600   0.000  0.00  0.00    +0.000 A 
ATOM     19  C   UNL     1       7.859  -6.188   0.000  0.00  0.00    +0.000 A 
ATOM     20  C   UNL     1       8.574  -6.600   0.000  0.00  0.00    +0.000 A 
ATOM     21  C   UNL     1       8.574  -7.425   0.000  0.00  0.00    +0.000 A 
ATOM     22  C   UNL     1       7.859  -7.838   0.000  0.00  0.00    +0.000 A 
ATOM     23  C   UNL     1       7.145  -7.425   0.000  0.00  0.00    +0.000 A 
ATOM     24  O   UNL     1       6.430  -7.838   0.000  0.00  0.00    +0.000 OA
BRANCH  21  25
ATOM     25  N   UNL     1       9.288  -7.838   0.000  0.00  0.00    +0.000 N 
BRANCH  25  26
ATOM     26  C   UNL     1      10.003  -7.425   0.000  0.00  0.00    +0.000 C 
ATOM     27  C   UNL     1      10.003  -6.600   0.000  0.00  0.00    +0.000 C 
ENDBRANCH  25  26
BRANCH  25  28
ATOM     28  C   UNL     1       9.288  -8.662   0.000  0.00  0.00    +0.000 C 
ATOM     29  C   UNL     1      10.003  -9.075   0.000  0.00  0.00    +0.000 C 
ENDBRANCH  25  28
ENDBRANCH  21  25
ENDBRANCH  16  18
ENDBRANCH   6  16
TORSDOF 12
