REMARK  Name = 
REMARK  0 active torsions:
REMARK  status: ('A' for Active; 'I' for Inactive)
REMARK                            x       y       z     vdW  Elec       q    Type
REMARK                         _______ _______ _______ _____ _____    ______ ____
ROOT
ATOM      1  C   UNL     1       0.041  -1.987   0.000  0.00  0.00    +0.000 A 
ATOM      2  C   UNL     1      -0.660  -2.421   0.000  0.00  0.00    +0.000 A 
ATOM      3  C   UNL     1      -1.518  -2.003   0.000  0.00  0.00    +0.000 A 
ATOM      4  N   UNL     1      -0.776  -0.836   0.000  0.00  0.00    +0.000 NA
ATOM      5  C   UNL     1       0.643  -0.672   0.000  0.00  0.00    +0.000 C 
ATOM      6  N   UNL     1       0.548   0.147   0.000  0.00  0.00    +0.000 NA
ATOM      7  C   UNL     1       1.094   0.766   0.000  0.00  0.00    +0.000 C 
ATOM      8  C   UNL     1       0.831   1.548   0.000  0.00  0.00    +0.000 C 
ATOM      9  C   UNL     1       1.377   2.167   0.000  0.00  0.00    +0.000 C 
ATOM     10  C   UNL     1       2.185   2.004   0.000  0.00  0.00    +0.000 C 
ATOM     11  C   UNL     1       2.449   1.222   0.000  0.00  0.00    +0.000 C 
ATOM     12  C   UNL     1       1.903   0.603   0.000  0.00  0.00    +0.000 C 
ATOM     13  N   UNL     1       0.022   1.711   0.000  0.00  0.00    +0.000 NA
ATOM     14  C   UNL     1      -0.398   2.421   0.000  0.00  0.00    +0.000 C 
ATOM     15  C   UNL     1      -1.222   2.413   0.000  0.00  0.00    +0.000 C 
ATOM     16  N   UNL     1      -1.627   1.694   0.000  0.00  0.00    +0.000 NA
ATOM     17  C   UNL     1      -2.433   1.514   0.000  0.00  0.00    +0.000 C 
ATOM     18  C   UNL     1      -2.680   0.727   0.000  0.00  0.00    +0.000 C 
ATOM     19  C   UNL     1      -3.485   0.547   0.000  0.00  0.00    +0.000 C 
ATOM     20  C   UNL     1      -4.043   1.155   0.000  0.00  0.00    +0.000 C 
ATOM     21  C   UNL     1      -3.796   1.942   0.000  0.00  0.00    +0.000 C 
ATOM     22  C   UNL     1      -2.991   2.122   0.000  0.00  0.00    +0.000 C 
ATOM     23  N   UNL     1      -2.121   0.120   0.000  0.00  0.00    +0.000 NA
ATOM     24  C   UNL     1      -2.199  -0.702   0.000  0.00  0.00    +0.000 C 
ATOM     25  C   UNL     1      -1.526  -1.179   0.000  0.00  0.00    +0.000 A 
ATOM     26  C   UNL     1      -0.019  -1.164   0.000  0.00  0.00    +0.000 A 
ENDROOT
TORSDOF 0
REMARK  Name = 
REMARK  0 active torsions:
REMARK  status: ('A' for Active; 'I' for Inactive)
REMARK                            x       y       z     vdW  Elec       q    Type
REMARK                         _______ _______ _______ _____ _____    ______ ____
ROOT
ATOM      1 CL   UNL     1       4.043  -0.420   0.000  0.00  0.00    +0.000 Cl
ENDROOT
TORSDOF 0
REMARK  Name = 
REMARK  0 active torsions:
REMARK  status: ('A' for Active; 'I' for Inactive)
REMARK                            x       y       z     vdW  Elec       q    Type
REMARK                         _______ _______ _______ _____ _____    ______ ____
ROOT
ATOM      1 MN   UNL     1      -0.925   0.645   0.000  0.00  0.00    +0.000 Mn
ENDROOT
TORSDOF 0
REMARK  Name = 
REMARK  0 active torsions:
REMARK  status: ('A' for Active; 'I' for Inactive)
REMARK                            x       y       z     vdW  Elec       q    Type
REMARK                         _______ _______ _______ _____ _____    ______ ____
ROOT
ATOM      1 CL   UNL     1       4.043  -0.420   0.000  0.00  0.00    +0.000 Cl
ENDROOT
TORSDOF 0
