REMARK  Name = 
REMARK  3 active torsions:
REMARK  status: ('A' for Active; 'I' for Inactive)
REMARK    1  A    between atoms: C_10  and  O_17
REMARK    2  A    between atoms: C_11  and  C_13
REMARK    3  A    between atoms: C_13  and  O_17
REMARK                            x       y       z     vdW  Elec       q    Type
REMARK                         _______ _______ _______ _____ _____    ______ ____
ROOT
ATOM      1  C   UNL     1       3.572   1.238   0.000  0.00  0.00    +0.000 C 
ATOM      2  O   UNL     1       2.858   0.825   0.000  0.00  0.00    +0.000 OA
ENDROOT
BRANCH   1   7
ATOM      3  C   UNL     1       2.858   3.300   0.000  0.00  0.00    +0.000 A 
ATOM      4  C   UNL     1       2.858   2.475   0.000  0.00  0.00    +0.000 A 
ATOM      5  C   UNL     1       4.287   3.300   0.000  0.00  0.00    +0.000 A 
ATOM      6  C   UNL     1       3.572   3.712   0.000  0.00  0.00    +0.000 A 
ATOM      7  C   UNL     1       3.572   2.062   0.000  0.00  0.00    +0.000 A 
ATOM      8  C   UNL     1       4.287   2.475   0.000  0.00  0.00    +0.000 A 
ATOM      9  N   UNL     1       3.572   4.537   0.000  0.00  0.00    +0.000 NA
ATOM     10  O   UNL     1       5.001   2.062   0.000  0.00  0.00    +0.000 OA
ENDBRANCH   1   7
BRANCH   1  11
ATOM     11  O   UNL     1       4.287   0.825   0.000  0.00  0.00    +0.000 OA
BRANCH  11  17
ATOM     12  C   UNL     1       4.287  -1.650   0.000  0.00  0.00    +0.000 A 
ATOM     13  C   UNL     1       5.001  -1.238   0.000  0.00  0.00    +0.000 A 
ATOM     14  C   UNL     1       3.572  -1.238   0.000  0.00  0.00    +0.000 A 
ATOM     15  C   UNL     1       5.001  -0.412   0.000  0.00  0.00    +0.000 A 
ATOM     16  C   UNL     1       3.572  -0.412   0.000  0.00  0.00    +0.000 A 
ATOM     17  C   UNL     1       4.287   0.000   0.000  0.00  0.00    +0.000 A 
ENDBRANCH  11  17
ENDBRANCH   1  11
TORSDOF 3
