REMARK  Name = 
REMARK  7 active torsions:
REMARK  status: ('A' for Active; 'I' for Inactive)
REMARK    1  A    between atoms: C_6  and  C_17
REMARK    2  A    between atoms: C_6  and  C_18
REMARK    3  A    between atoms: C_17  and  N_28
REMARK    4  A    between atoms: C_18  and  N_29
REMARK    5  A    between atoms: C_19  and  C_26
REMARK    6  A    between atoms: C_19  and  N_28
REMARK    7  A    between atoms: C_22  and  C_26
REMARK                            x       y       z     vdW  Elec       q    Type
REMARK                         _______ _______ _______ _____ _____    ______ ____
ROOT
ATOM      1  C   UNL     1       7.482   2.845   0.000  0.00  0.00    +0.000 C 
ENDROOT
BRANCH   1  16
ATOM      2  C   UNL     1      10.088   1.670   0.000  0.00  0.00    +0.000 A 
ATOM      3  C   UNL     1       7.768   5.689   0.000  0.00  0.00    +0.000 A 
ATOM      4  C   UNL     1       9.299   1.427   0.000  0.00  0.00    +0.000 A 
ATOM      5  C   UNL     1       7.163   5.128   0.000  0.00  0.00    +0.000 A 
ATOM      6  C   UNL     1      10.271   2.475   0.000  0.00  0.00    +0.000 A 
ATOM      7  C   UNL     1       8.556   5.446   0.000  0.00  0.00    +0.000 A 
ATOM      8  C   UNL     1       8.694   1.988   0.000  0.00  0.00    +0.000 A 
ATOM      9  C   UNL     1       7.346   4.323   0.000  0.00  0.00    +0.000 A 
ATOM     10  C   UNL     1       9.968   3.804   0.000  0.00  0.00    +0.000 C 
ATOM     11  C   UNL     1       9.555   4.518   0.000  0.00  0.00    +0.000 C 
ATOM     12  C   UNL     1       9.666   3.036   0.000  0.00  0.00    +0.000 A 
ATOM     13  C   UNL     1       8.739   4.641   0.000  0.00  0.00    +0.000 A 
ATOM     14  C   UNL     1       8.878   2.793   0.000  0.00  0.00    +0.000 A 
ATOM     15  C   UNL     1       8.135   4.080   0.000  0.00  0.00    +0.000 A 
ATOM     16  N   UNL     1       8.196   3.257   0.000  0.00  0.00    +0.000 N 
ENDBRANCH   1  16
BRANCH   1  17
ATOM     17  C   UNL     1       6.767   3.257   0.000  0.00  0.00    +0.000 C 
BRANCH  17  18
ATOM     18  C   UNL     1       6.053   2.845   0.000  0.00  0.00    +0.000 C 
BRANCH  18  20
ATOM     19  C   UNL     1       5.338   4.082   0.000  0.00  0.00    +0.000 C 
ATOM     20  N   UNL     1       5.338   3.257   0.000  0.00  0.00    +0.000 NA
BRANCH  20  21
ATOM     21  C   UNL     1       4.624   2.845   0.000  0.00  0.00    +0.000 C 
BRANCH  21  22
ATOM     22  C   UNL     1       3.910   3.257   0.000  0.00  0.00    +0.000 C 
ATOM     23  O   UNL     1       3.910   4.082   0.000  0.00  0.00    +0.000 OA
BRANCH  22  28
ATOM     24  C   UNL     1       2.481   3.257   0.000  0.00  0.00    +0.000 A 
ATOM     25  C   UNL     1       3.195   2.020   0.000  0.00  0.00    +0.000 A 
ATOM     26  C   UNL     1       1.766   2.845   0.000  0.00  0.00    +0.000 A 
ATOM     27  C   UNL     1       2.481   1.607   0.000  0.00  0.00    +0.000 A 
ATOM     28  C   UNL     1       3.195   2.845   0.000  0.00  0.00    +0.000 A 
ATOM     29  C   UNL     1       1.766   2.020   0.000  0.00  0.00    +0.000 A 
ATOM     30 CL   UNL     1       1.052   1.607   0.000  0.00  0.00    +0.000 Cl
ENDBRANCH  22  28
ENDBRANCH  21  22
ENDBRANCH  20  21
ENDBRANCH  18  20
ENDBRANCH  17  18
ENDBRANCH   1  17
TORSDOF 7
