REMARK  Name = 
REMARK  6 active torsions:
REMARK  status: ('A' for Active; 'I' for Inactive)
REMARK    1  A    between atoms: C_3  and  C_7
REMARK    2  A    between atoms: C_7  and  N_9
REMARK    3  A    between atoms: N_9  and  C_10
REMARK    4  A    between atoms: C_12  and  C_17
REMARK    5  A    between atoms: N_18  and  O_19
REMARK    6  A    between atoms: O_19  and  C_20
REMARK                            x       y       z     vdW  Elec       q    Type
REMARK                         _______ _______ _______ _____ _____    ______ ____
ROOT
ATOM      1  C   UNL     1       0.263   0.704   0.000  0.00  0.00    +0.000 A 
ATOM      2  C   UNL     1      -0.350   0.152   0.000  0.00  0.00    +0.000 A 
ATOM      3  C   UNL     1      -1.134   0.407   0.000  0.00  0.00    +0.000 A 
ATOM      4  C   UNL     1      -1.306   1.214   0.000  0.00  0.00    +0.000 A 
ATOM      5  C   UNL     1      -0.693   1.766   0.000  0.00  0.00    +0.000 A 
ATOM      6  C   UNL     1       0.092   1.511   0.000  0.00  0.00    +0.000 A 
ATOM      7 CL   UNL     1      -2.090   1.469   0.000  0.00  0.00    +0.000 Cl
ENDROOT
BRANCH   3   8
ATOM      8  C   UNL     1      -1.747  -0.145   0.000  0.00  0.00    +0.000 C 
ATOM      9  N   UNL     1      -2.532   0.110   0.000  0.00  0.00    +0.000 NA
BRANCH   9  10
ATOM     10  O   UNL     1      -3.145  -0.442   0.000  0.00  0.00    +0.000 OA
BRANCH  10  11
ATOM     11  C   UNL     1      -2.974  -1.249   0.000  0.00  0.00    +0.000 C 
ATOM     12  C   UNL     1      -2.802  -2.056   0.000  0.00  0.00    +0.000 C 
ATOM     13  C   UNL     1      -3.781  -1.421   0.000  0.00  0.00    +0.000 C 
ATOM     14  C   UNL     1      -2.167  -1.078   0.000  0.00  0.00    +0.000 C 
ENDBRANCH  10  11
ENDBRANCH   9  10
ENDBRANCH   3   8
BRANCH   1  15
ATOM     15  N   UNL     1       1.048   0.449   0.000  0.00  0.00    +0.000 NA
BRANCH  15  16
ATOM     16  C   UNL     1       1.661   1.001   0.000  0.00  0.00    +0.000 C 
ATOM     17  S   UNL     1       1.490   1.808   0.000  0.00  0.00    +0.000 S 
BRANCH  16  20
ATOM     18  O   UNL     1       3.781   0.746   0.000  0.00  0.00    +0.000 OA
ATOM     19  C   UNL     1       3.113   1.231   0.000  0.00  0.00    +0.000 A 
ATOM     20  C   UNL     1       2.446   0.746   0.000  0.00  0.00    +0.000 A 
ATOM     21  C   UNL     1       2.701  -0.038   0.000  0.00  0.00    +0.000 A 
ATOM     22  C   UNL     1       3.526  -0.038   0.000  0.00  0.00    +0.000 A 
ATOM     23  C   UNL     1       3.113   2.056   0.000  0.00  0.00    +0.000 C 
ENDBRANCH  16  20
ENDBRANCH  15  16
ENDBRANCH   1  15
TORSDOF 6
