REMARK  Name = 
REMARK  1 active torsions:
REMARK  status: ('A' for Active; 'I' for Inactive)
REMARK    1  A    between atoms: C_5  and  C_8
REMARK                            x       y       z     vdW  Elec       q    Type
REMARK                         _______ _______ _______ _____ _____    ______ ____
ROOT
ATOM      1  O   UNL     1       1.182  -1.786   0.000  0.00  0.00    +0.000 OA
ATOM      2  C   UNL     1       0.768  -1.072   0.000  0.00  0.00    +0.000 A 
ATOM      3  C   UNL     1       1.182  -0.357   0.000  0.00  0.00    +0.000 A 
ATOM      4  C   UNL     1       0.768   0.357   0.000  0.00  0.00    +0.000 A 
ATOM      5  C   UNL     1      -0.057   0.357   0.000  0.00  0.00    +0.000 A 
ATOM      6  C   UNL     1      -0.468  -0.357   0.000  0.00  0.00    +0.000 A 
ATOM      7  C   UNL     1      -0.057  -1.072   0.000  0.00  0.00    +0.000 A 
ENDROOT
BRANCH   5   8
ATOM      8  C   UNL     1      -0.468   1.072   0.000  0.00  0.00    +0.000 C 
ATOM      9  F   UNL     1       0.246   1.486   0.000  0.00  0.00    +0.000 F 
ATOM     10  F   UNL     1      -1.182   0.661   0.000  0.00  0.00    +0.000 F 
ATOM     11  F   UNL     1      -0.879   1.786   0.000  0.00  0.00    +0.000 F 
ENDBRANCH   5   8
TORSDOF 1
