REMARK  Name = 
REMARK  2 active torsions:
REMARK  status: ('A' for Active; 'I' for Inactive)
REMARK    1  A    between atoms: C_11  and  C_13
REMARK    2  A    between atoms: N_15  and  N_17
REMARK                            x       y       z     vdW  Elec       q    Type
REMARK                         _______ _______ _______ _____ _____    ______ ____
ROOT
ATOM      1  C   UNL     1       0.357   0.412   0.000  0.00  0.00    +0.000 C 
ATOM      2  N   UNL     1      -0.357   0.000   0.000  0.00  0.00    +0.000 NA
ATOM      3  O   UNL     1       1.072   0.000   0.000  0.00  0.00    +0.000 OA
ENDROOT
BRANCH   2  11
ATOM      4  C   UNL     1      -1.072  -3.712   0.000  0.00  0.00    +0.000 C 
ATOM      5  C   UNL     1       0.357  -2.062   0.000  0.00  0.00    +0.000 C 
ATOM      6  C   UNL     1      -1.072  -2.062   0.000  0.00  0.00    +0.000 C 
ATOM      7  C   UNL     1       0.357  -1.238   0.000  0.00  0.00    +0.000 C 
ATOM      8  C   UNL     1      -1.072  -1.238   0.000  0.00  0.00    +0.000 C 
ATOM      9  C   UNL     1      -0.357  -3.300   0.000  0.00  0.00    +0.000 C 
ATOM     10  N   UNL     1      -0.357  -2.475   0.000  0.00  0.00    +0.000 N 
ATOM     11  N   UNL     1      -0.357  -0.825   0.000  0.00  0.00    +0.000 NA
ATOM     12  O   UNL     1       0.357  -3.712   0.000  0.00  0.00    +0.000 OA
ENDBRANCH   2  11
BRANCH   1  17
ATOM     13  C   UNL     1       1.072   1.650   0.000  0.00  0.00    +0.000 A 
ATOM     14  C   UNL     1      -0.357   1.650   0.000  0.00  0.00    +0.000 A 
ATOM     15  C   UNL     1       1.072   2.475   0.000  0.00  0.00    +0.000 A 
ATOM     16  C   UNL     1      -0.357   2.475   0.000  0.00  0.00    +0.000 A 
ATOM     17  C   UNL     1       0.357   1.238   0.000  0.00  0.00    +0.000 A 
ATOM     18  C   UNL     1       0.357   2.888   0.000  0.00  0.00    +0.000 A 
ATOM     19  F   UNL     1       0.357   3.712   0.000  0.00  0.00    +0.000 F 
ENDBRANCH   1  17
TORSDOF 2
