REMARK  Name = 
REMARK  6 active torsions:
REMARK  status: ('A' for Active; 'I' for Inactive)
REMARK    1  A    between atoms: C_9  and  C_11
REMARK    2  A    between atoms: C_13  and  O_17
REMARK    3  A    between atoms: O_17  and  C_18
REMARK    4  A    between atoms: C_18  and  C_19
REMARK    5  A    between atoms: N_21  and  C_22
REMARK    6  A    between atoms: N_25  and  C_26
REMARK                            x       y       z     vdW  Elec       q    Type
REMARK                         _______ _______ _______ _____ _____    ______ ____
ROOT
ATOM      1  C   UNL     1      -4.289  -0.294   0.000  0.00  0.00    +0.000 A 
ATOM      2  C   UNL     1      -4.289  -1.124   0.000  0.00  0.00    +0.000 A 
ATOM      3  C   UNL     1      -3.572  -1.532   0.000  0.00  0.00    +0.000 A 
ATOM      4  C   UNL     1      -2.861  -1.120   0.000  0.00  0.00    +0.000 A 
ATOM      5  C   UNL     1      -2.861  -0.294   0.000  0.00  0.00    +0.000 A 
ATOM      6  C   UNL     1      -3.574   0.118   0.000  0.00  0.00    +0.000 A 
ATOM      7  C   UNL     1      -2.147   0.117   0.000  0.00  0.00    +0.000 A 
ATOM      8  N   UNL     1      -1.431  -0.295   0.000  0.00  0.00    +0.000 NA
ATOM      9  C   UNL     1      -1.430  -1.117   0.000  0.00  0.00    +0.000 A 
ATOM     10  N   UNL     1      -2.142  -1.534   0.000  0.00  0.00    +0.000 NA
ATOM     11  N   UNL     1      -2.147   0.944   0.000  0.00  0.00    +0.000 NA
ENDROOT
BRANCH  11  12
ATOM     12  C   UNL     1      -1.559   1.434   0.000  0.00  0.00    +0.000 A 
ATOM     13  C   UNL     1      -1.690   2.188   0.000  0.00  0.00    +0.000 A 
ATOM     14  C   UNL     1      -1.103   2.676   0.000  0.00  0.00    +0.000 A 
ATOM     15  C   UNL     1      -0.385   2.411   0.000  0.00  0.00    +0.000 A 
ATOM     16  C   UNL     1      -0.254   1.661   0.000  0.00  0.00    +0.000 A 
ATOM     17  C   UNL     1      -0.838   1.168   0.000  0.00  0.00    +0.000 A 
ATOM     18  C   UNL     1       0.500   1.554   0.000  0.00  0.00    +0.000 A 
ATOM     19  N   UNL     1       0.835   2.238   0.000  0.00  0.00    +0.000 NA
ATOM     20  N   UNL     1       0.288   2.768   0.000  0.00  0.00    +0.000 NA
ENDBRANCH  11  12
BRANCH   9  21
ATOM     21  C   UNL     1      -0.715  -1.530   0.000  0.00  0.00    +0.000 A 
ATOM     22  C   UNL     1       0.000  -1.117   0.000  0.00  0.00    +0.000 A 
ATOM     23  C   UNL     1       0.713  -1.530   0.000  0.00  0.00    +0.000 A 
ATOM     24  C   UNL     1       0.713  -2.356   0.000  0.00  0.00    +0.000 A 
ATOM     25  C   UNL     1       0.002  -2.768   0.000  0.00  0.00    +0.000 A 
ATOM     26  C   UNL     1      -0.715  -2.359   0.000  0.00  0.00    +0.000 A 
BRANCH  23  27
ATOM     27  O   UNL     1       1.428  -1.117   0.000  0.00  0.00    +0.000 OA
BRANCH  27  28
ATOM     28  C   UNL     1       1.428  -0.291   0.000  0.00  0.00    +0.000 C 
BRANCH  28  29
ATOM     29  C   UNL     1       2.143   0.122   0.000  0.00  0.00    +0.000 C 
ATOM     30  O   UNL     1       2.143   0.948   0.000  0.00  0.00    +0.000 OA
ATOM     31  N   UNL     1       2.858  -0.291   0.000  0.00  0.00    +0.000 NA
BRANCH  31  32
ATOM     32  C   UNL     1       3.574   0.122   0.000  0.00  0.00    +0.000 C 
ATOM     33  C   UNL     1       4.289  -0.291   0.000  0.00  0.00    +0.000 C 
ATOM     34  C   UNL     1       3.574   0.948   0.000  0.00  0.00    +0.000 C 
ENDBRANCH  31  32
ENDBRANCH  28  29
ENDBRANCH  27  28
ENDBRANCH  23  27
ENDBRANCH   9  21
TORSDOF 6
