REMARK  Name = 
REMARK  4 active torsions:
REMARK  status: ('A' for Active; 'I' for Inactive)
REMARK    1  A    between atoms: N_6  and  C_23
REMARK    2  A    between atoms: C_19  and  C_21
REMARK    3  A    between atoms: C_21  and  C_22
REMARK    4  A    between atoms: C_28  and  C_29
REMARK                            x       y       z     vdW  Elec       q    Type
REMARK                         _______ _______ _______ _____ _____    ______ ____
ROOT
ATOM      1  O   UNL     1      -0.688  -1.635   0.000  0.00  0.00    +0.000 OA
ATOM      2  C   UNL     1      -0.688  -0.809   0.000  0.00  0.00    +0.000 C 
ENDROOT
BRANCH   2  15
ATOM      3  C   UNL     1      -3.588  -0.792   0.000  0.00  0.00    +0.000 C 
ATOM      4  C   UNL     1      -3.588   0.852   0.000  0.00  0.00    +0.000 C 
ATOM      5  C   UNL     1      -4.302  -0.379   0.000  0.00  0.00    +0.000 C 
ATOM      6  C   UNL     1      -4.302   0.439   0.000  0.00  0.00    +0.000 C 
ATOM      7  C   UNL     1      -2.874  -0.379   0.000  0.00  0.00    +0.000 A 
ATOM      8  C   UNL     1      -2.874   0.439   0.000  0.00  0.00    +0.000 A 
ATOM      9  C   UNL     1      -4.001  -1.506   0.000  0.00  0.00    +0.000 C 
ATOM     10  C   UNL     1      -3.175  -1.506   0.000  0.00  0.00    +0.000 C 
ATOM     11  C   UNL     1      -4.001   1.566   0.000  0.00  0.00    +0.000 C 
ATOM     12  C   UNL     1      -3.175   1.566   0.000  0.00  0.00    +0.000 C 
ATOM     13  C   UNL     1      -2.143  -0.817   0.000  0.00  0.00    +0.000 A 
ATOM     14  C   UNL     1      -2.143   0.878   0.000  0.00  0.00    +0.000 A 
ATOM     15  C   UNL     1      -1.394  -0.396   0.000  0.00  0.00    +0.000 A 
ATOM     16  C   UNL     1      -1.394   0.456   0.000  0.00  0.00    +0.000 A 
ENDBRANCH   2  15
BRANCH   2  19
ATOM     17  O   UNL     1       0.026   0.422   0.000  0.00  0.00    +0.000 OA
ATOM     18  N   UNL     1       0.740  -0.817   0.000  0.00  0.00    +0.000 NA
ATOM     19  C   UNL     1       0.026  -0.404   0.000  0.00  0.00    +0.000 C 
BRANCH  18  21
ATOM     20  F   UNL     1       0.740   0.826   0.000  0.00  0.00    +0.000 F 
ATOM     21  C   UNL     1       1.454  -0.413   0.000  0.00  0.00    +0.000 A 
ATOM     22  C   UNL     1       1.454   0.413   0.000  0.00  0.00    +0.000 A 
ATOM     23  C   UNL     1       2.160  -0.826   0.000  0.00  0.00    +0.000 A 
ATOM     24  C   UNL     1       2.168   0.817   0.000  0.00  0.00    +0.000 A 
ATOM     25  C   UNL     1       2.874  -0.413   0.000  0.00  0.00    +0.000 A 
ATOM     26  C   UNL     1       2.874   0.404   0.000  0.00  0.00    +0.000 A 
BRANCH  26  29
ATOM     27  O   UNL     1       4.302   0.404   0.000  0.00  0.00    +0.000 OA
ATOM     28  O   UNL     1       3.597   1.635   0.000  0.00  0.00    +0.000 OA
ATOM     29  C   UNL     1       3.588   0.817   0.000  0.00  0.00    +0.000 C 
ENDBRANCH  26  29
ENDBRANCH  18  21
ENDBRANCH   2  19
TORSDOF 4
