REMARK  Name = 
REMARK  9 active torsions:
REMARK  status: ('A' for Active; 'I' for Inactive)
REMARK    1  A    between atoms: C_17  and  C_21
REMARK    2  A    between atoms: C_17  and  N_24
REMARK    3  A    between atoms: C_18  and  C_22
REMARK    4  A    between atoms: C_18  and  N_25
REMARK    5  A    between atoms: C_19  and  C_22
REMARK    6  A    between atoms: C_20  and  C_23
REMARK    7  A    between atoms: C_21  and  C_23
REMARK    8  A    between atoms: C_22  and  O_27
REMARK    9  A    between atoms: C_23  and  O_28
REMARK                            x       y       z     vdW  Elec       q    Type
REMARK                         _______ _______ _______ _____ _____    ______ ____
ROOT
ATOM      1  C   UNL     1      -1.429   4.125   0.000  0.00  0.00    +0.000 C 
ATOM      2  C   UNL     1      -2.143   2.888   0.000  0.00  0.00    +0.000 C 
ATOM      3  C   UNL     1      -2.143   4.537   0.000  0.00  0.00    +0.000 C 
ATOM      4  C   UNL     1      -2.858   3.300   0.000  0.00  0.00    +0.000 C 
ATOM      5  N   UNL     1      -1.429   3.300   0.000  0.00  0.00    +0.000 NA
ATOM      6  N   UNL     1      -2.858   4.125   0.000  0.00  0.00    +0.000 NA
ENDROOT
BRANCH   6   7
ATOM      7  C   UNL     1      -3.572   4.537   0.000  0.00  0.00    +0.000 C 
BRANCH   7   8
ATOM      8  C   UNL     1      -4.287   4.125   0.000  0.00  0.00    +0.000 C 
BRANCH   8  14
ATOM      9  C   UNL     1      -6.430   5.362   0.000  0.00  0.00    +0.000 A 
ATOM     10  C   UNL     1      -6.430   4.537   0.000  0.00  0.00    +0.000 A 
ATOM     11  C   UNL     1      -5.716   5.775   0.000  0.00  0.00    +0.000 A 
ATOM     12  C   UNL     1      -5.716   4.125   0.000  0.00  0.00    +0.000 A 
ATOM     13  C   UNL     1      -5.001   5.362   0.000  0.00  0.00    +0.000 A 
ATOM     14  C   UNL     1      -5.001   4.537   0.000  0.00  0.00    +0.000 A 
ENDBRANCH   8  14
BRANCH   8  16
ATOM     15  C   UNL     1      -5.001   2.888   0.000  0.00  0.00    +0.000 C 
ATOM     16  O   UNL     1      -4.287   3.300   0.000  0.00  0.00    +0.000 OA
ENDBRANCH   8  16
ENDBRANCH   7   8
ENDBRANCH   6   7
BRANCH   5  17
ATOM     17  C   UNL     1      -0.715   2.888   0.000  0.00  0.00    +0.000 C 
BRANCH  17  18
ATOM     18  C   UNL     1      -0.715   2.062   0.000  0.00  0.00    +0.000 C 
ATOM     19  O   UNL     1      -1.429   1.650   0.000  0.00  0.00    +0.000 OA
BRANCH  18  20
ATOM     20  C   UNL     1       0.000   1.650   0.000  0.00  0.00    +0.000 C 
BRANCH  20  26
ATOM     21  C   UNL     1       0.000  -0.825   0.000  0.00  0.00    +0.000 A 
ATOM     22  C   UNL     1       0.715  -0.412   0.000  0.00  0.00    +0.000 A 
ATOM     23  C   UNL     1      -0.715  -0.412   0.000  0.00  0.00    +0.000 A 
ATOM     24  C   UNL     1       0.715   0.412   0.000  0.00  0.00    +0.000 A 
ATOM     25  C   UNL     1      -0.715   0.412   0.000  0.00  0.00    +0.000 A 
ATOM     26  C   UNL     1       0.000   0.825   0.000  0.00  0.00    +0.000 A 
ENDBRANCH  20  26
BRANCH  20  28
ATOM     27  C   UNL     1       1.429   1.650   0.000  0.00  0.00    +0.000 C 
ATOM     28  O   UNL     1       0.715   2.062   0.000  0.00  0.00    +0.000 OA
ENDBRANCH  20  28
ENDBRANCH  18  20
ENDBRANCH  17  18
ENDBRANCH   5  17
TORSDOF 9
