REMARK  Name = 
REMARK  9 active torsions:
REMARK  status: ('A' for Active; 'I' for Inactive)
REMARK    1  A    between atoms: O_2  and  C_3
REMARK    2  A    between atoms: C_5  and  N_20
REMARK    3  A    between atoms: C_8  and  O_9
REMARK    4  A    between atoms: O_9  and  C_10
REMARK    5  A    between atoms: C_10  and  C_11
REMARK    6  A    between atoms: C_11  and  O_12
REMARK    7  A    between atoms: C_11  and  C_17
REMARK    8  A    between atoms: O_12  and  P_13
REMARK    9  A    between atoms: C_26  and  C_28
REMARK                            x       y       z     vdW  Elec       q    Type
REMARK                         _______ _______ _______ _____ _____    ______ ____
ROOT
ATOM      1  C   UNL     1       5.496   2.348   0.000  0.00  0.00    +0.000 A 
ATOM      2  C   UNL     1       4.781   1.935   0.000  0.00  0.00    +0.000 A 
ATOM      3  C   UNL     1       4.067   2.348   0.000  0.00  0.00    +0.000 A 
ATOM      4  C   UNL     1       4.067   3.173   0.000  0.00  0.00    +0.000 A 
ATOM      5  C   UNL     1       4.781   3.585   0.000  0.00  0.00    +0.000 A 
ATOM      6  C   UNL     1       5.496   3.173   0.000  0.00  0.00    +0.000 A 
ENDROOT
BRANCH   3   7
ATOM      7  N   UNL     1       3.352   1.935   0.000  0.00  0.00    +0.000 N 
ATOM      8  C   UNL     1       3.352   1.110   0.000  0.00  0.00    +0.000 A 
ATOM      9  N   UNL     1       2.638   0.698   0.000  0.00  0.00    +0.000 NA
ATOM     10  C   UNL     1       1.923   1.110   0.000  0.00  0.00    +0.000 A 
ATOM     11  C   UNL     1       1.923   1.935   0.000  0.00  0.00    +0.000 A 
ATOM     12  S   UNL     1       1.139   2.190   0.000  0.00  0.00    +0.000 S 
ATOM     13  C   UNL     1       0.654   1.523   0.000  0.00  0.00    +0.000 A 
ATOM     14  C   UNL     1       1.139   0.856   0.000  0.00  0.00    +0.000 A 
ATOM     15  C   UNL     1       2.638   2.348   0.000  0.00  0.00    +0.000 A 
ATOM     16  O   UNL     1       2.638   3.173   0.000  0.00  0.00    +0.000 OA
BRANCH  13  17
ATOM     17  C   UNL     1      -0.171   1.523   0.000  0.00  0.00    +0.000 A 
ATOM     18  C   UNL     1      -0.584   0.808   0.000  0.00  0.00    +0.000 A 
ATOM     19  C   UNL     1      -1.409   0.808   0.000  0.00  0.00    +0.000 A 
ATOM     20  C   UNL     1      -1.821   1.523   0.000  0.00  0.00    +0.000 A 
ATOM     21 CL   UNL     1      -2.646   1.523   0.000  0.00  0.00    +0.000 Cl
ATOM     22  C   UNL     1      -1.409   2.237   0.000  0.00  0.00    +0.000 A 
ATOM     23  C   UNL     1      -0.584   2.237   0.000  0.00  0.00    +0.000 A 
ENDBRANCH  13  17
ENDBRANCH   3   7
BRANCH   1  25
ATOM     24  C   UNL     1       6.925   2.348   0.000  0.00  0.00    +0.000 C 
ATOM     25  O   UNL     1       6.210   1.935   0.000  0.00  0.00    +0.000 OA
ENDBRANCH   1  25
BRANCH   6  26
ATOM     26  O   UNL     1       6.210   3.585   0.000  0.00  0.00    +0.000 OA
BRANCH  26  27
ATOM     27  C   UNL     1       6.925   3.173   0.000  0.00  0.00    +0.000 C 
BRANCH  27  28
ATOM     28  C   UNL     1       7.639   3.585   0.000  0.00  0.00    +0.000 C 
BRANCH  28  29
ATOM     29  C   UNL     1       7.639   4.410   0.000  0.00  0.00    +0.000 C 
ATOM     30  C   UNL     1       7.227   5.125   0.000  0.00  0.00    +0.000 C 
ATOM     31  C   UNL     1       8.052   5.125   0.000  0.00  0.00    +0.000 C 
ENDBRANCH  28  29
BRANCH  28  32
ATOM     32  O   UNL     1       8.354   3.173   0.000  0.00  0.00    +0.000 OA
BRANCH  32  33
ATOM     33  P   UNL     1       9.068   3.585   0.000  0.00  0.00    +0.000 P 
ATOM     34  O   UNL     1       9.783   3.998   0.000  0.00  0.00    +0.000 OA
ATOM     35  O   UNL     1       8.656   4.300   0.000  0.00  0.00    +0.000 OA
ATOM     36  O   UNL     1       9.481   2.871   0.000  0.00  0.00    +0.000 OA
ENDBRANCH  32  33
ENDBRANCH  28  32
ENDBRANCH  27  28
ENDBRANCH  26  27
ENDBRANCH   6  26
TORSDOF 9
