REMARK  Name = 
REMARK  2 active torsions:
REMARK  status: ('A' for Active; 'I' for Inactive)
REMARK    1  A    between atoms: C_9  and  C_13
REMARK    2  A    between atoms: C_10  and  O_20
REMARK                            x       y       z     vdW  Elec       q    Type
REMARK                         _______ _______ _______ _____ _____    ______ ____
ROOT
ATOM      1  C   UNL     1      -1.429   0.619   0.000  0.00  0.00    +0.000 A 
ATOM      2  C   UNL     1      -0.714   0.206   0.000  0.00  0.00    +0.000 A 
ATOM      3  C   UNL     1      -0.714  -0.619   0.000  0.00  0.00    +0.000 A 
ATOM      4  C   UNL     1       0.000  -1.031   0.000  0.00  0.00    +0.000 C 
ATOM      5  C   UNL     1      -1.429  -1.031   0.000  0.00  0.00    +0.000 A 
ATOM      6  O   UNL     1       0.000   0.619   0.000  0.00  0.00    +0.000 OA
ATOM      7  C   UNL     1       0.714  -0.619   0.000  0.00  0.00    +0.000 C 
ATOM      8  C   UNL     1      -2.143  -0.619   0.000  0.00  0.00    +0.000 A 
ATOM      9  C   UNL     1       0.714   0.206   0.000  0.00  0.00    +0.000 C 
ATOM     10  C   UNL     1      -2.143   0.206   0.000  0.00  0.00    +0.000 A 
ATOM     11  O   UNL     1       0.000  -1.856   0.000  0.00  0.00    +0.000 OA
ATOM     12  O   UNL     1      -1.429  -1.856   0.000  0.00  0.00    +0.000 OA
ENDROOT
BRANCH   9  13
ATOM     13  C   UNL     1       1.429   0.619   0.000  0.00  0.00    +0.000 A 
ATOM     14  C   UNL     1       1.429   1.444   0.000  0.00  0.00    +0.000 A 
ATOM     15  C   UNL     1       2.143   0.206   0.000  0.00  0.00    +0.000 A 
ATOM     16  C   UNL     1       2.143   1.856   0.000  0.00  0.00    +0.000 A 
ATOM     17  C   UNL     1       2.858   0.619   0.000  0.00  0.00    +0.000 A 
ATOM     18  C   UNL     1       2.858   1.444   0.000  0.00  0.00    +0.000 A 
ATOM     19  O   UNL     1       3.572   1.856   0.000  0.00  0.00    +0.000 OA
ENDBRANCH   9  13
BRANCH  10  20
ATOM     20  O   UNL     1      -2.858   0.619   0.000  0.00  0.00    +0.000 OA
ATOM     21  C   UNL     1      -3.572   0.206   0.000  0.00  0.00    +0.000 C 
ENDBRANCH  10  20
TORSDOF 2
