REMARK  Name = 
REMARK  2 active torsions:
REMARK  status: ('A' for Active; 'I' for Inactive)
REMARK    1  A    between atoms: C_1  and  C_2
REMARK    2  A    between atoms: C_1  and  C_3
REMARK                            x       y       z     vdW  Elec       q    Type
REMARK                         _______ _______ _______ _____ _____    ______ ____
ROOT
ATOM      1  C   UNL     1       0.893   0.971   0.000  0.00  0.00    +0.000 C 
ATOM      2  O   UNL     1       1.608   1.383   0.000  0.00  0.00    +0.000 OA
ATOM      3  O   UNL     1       0.893   0.146   0.000  0.00  0.00    +0.000 OA
ENDROOT
BRANCH   1   4
ATOM      4  C   UNL     1       0.179   1.383   0.000  0.00  0.00    +0.000 C 
ATOM      5  C   UNL     1      -0.536   0.971   0.000  0.00  0.00    +0.000 C 
ENDBRANCH   1   4
TORSDOF 1
