REMARK  Name = 
REMARK  2 active torsions:
REMARK  status: ('A' for Active; 'I' for Inactive)
REMARK    1  A    between atoms: O_1  and  C_10
REMARK    2  A    between atoms: O_1  and  C_12
REMARK                            x       y       z     vdW  Elec       q    Type
REMARK                         _______ _______ _______ _____ _____    ______ ____
ROOT
ATOM      1  O   UNL     1      -0.136   0.825   0.000  0.00  0.00    +0.000 OA
ENDROOT
BRANCH   1   7
ATOM      2  O   UNL     1       0.579  -0.412   0.000  0.00  0.00    +0.000 OA
ATOM      3  O   UNL     1       1.293   1.650   0.000  0.00  0.00    +0.000 OA
ATOM      4  O   UNL     1       2.722   0.825   0.000  0.00  0.00    +0.000 OA
ATOM      5  O   UNL     1       2.722  -0.825   0.000  0.00  0.00    +0.000 OA
ATOM      6  C   UNL     1       1.293   0.825   0.000  0.00  0.00    +0.000 C 
ATOM      7  C   UNL     1       0.579   0.412   0.000  0.00  0.00    +0.000 C 
ATOM      8  C   UNL     1       2.008   0.412   0.000  0.00  0.00    +0.000 C 
ATOM      9  C   UNL     1       2.008  -0.412   0.000  0.00  0.00    +0.000 C 
ATOM     10  C   UNL     1       1.293  -0.825   0.000  0.00  0.00    +0.000 C 
ENDBRANCH   1   7
BRANCH   1  14
ATOM     11  O   UNL     1      -0.136  -0.825   0.000  0.00  0.00    +0.000 OA
ATOM     12  O   UNL     1      -1.565  -1.650   0.000  0.00  0.00    +0.000 OA
ATOM     13  N   UNL     1      -2.279  -0.412   0.000  0.00  0.00    +0.000 N 
ATOM     14  C   UNL     1      -0.850   0.412   0.000  0.00  0.00    +0.000 C 
ATOM     15  C   UNL     1      -1.565   0.825   0.000  0.00  0.00    +0.000 C 
ATOM     16  C   UNL     1      -0.850  -0.412   0.000  0.00  0.00    +0.000 C 
ATOM     17  C   UNL     1      -2.279   0.412   0.000  0.00  0.00    +0.000 C 
ATOM     18  C   UNL     1      -1.565  -0.825   0.000  0.00  0.00    +0.000 C 
ATOM     19  H   UNL     1      -2.722  -0.668   0.000  0.00  0.00    +0.000 HD
ENDBRANCH   1  14
TORSDOF 2
