REMARK  Name = 
REMARK  6 active torsions:
REMARK  status: ('A' for Active; 'I' for Inactive)
REMARK    1  A    between atoms: C_3  and  N_7
REMARK    2  A    between atoms: C_5  and  C_8
REMARK    3  A    between atoms: C_6  and  O_9
REMARK    4  A    between atoms: O_9  and  C_10
REMARK    5  A    between atoms: C_10  and  C_11
REMARK    6  A    between atoms: C_17  and  C_19
REMARK                            x       y       z     vdW  Elec       q    Type
REMARK                         _______ _______ _______ _____ _____    ______ ____
ROOT
ATOM      1  C   UNL     1      -0.925   0.654   0.000  0.00  0.00    +0.000 A 
ATOM      2  C   UNL     1      -0.211   1.067   0.000  0.00  0.00    +0.000 A 
ATOM      3  C   UNL     1       0.501   0.655   0.000  0.00  0.00    +0.000 A 
ATOM      4  C   UNL     1       0.501  -0.170   0.000  0.00  0.00    +0.000 A 
ATOM      5  C   UNL     1      -0.209  -0.582   0.000  0.00  0.00    +0.000 A 
ATOM      6  C   UNL     1      -0.925  -0.174   0.000  0.00  0.00    +0.000 A 
ENDROOT
BRANCH   3   7
ATOM      7  N   UNL     1       1.216   1.067   0.000  0.00  0.00    +0.000 N 
ATOM      8  N   UNL     1       1.216   1.913   0.000  0.00  0.00    +0.000 NA
ATOM      9  C   UNL     1       2.039   2.169   0.000  0.00  0.00    +0.000 A 
ATOM     10  C   UNL     1       2.521   1.499   0.000  0.00  0.00    +0.000 A 
ATOM     11  C   UNL     1       2.017   0.816   0.000  0.00  0.00    +0.000 A 
BRANCH  10  12
ATOM     12  C   UNL     1       3.371   1.499   0.000  0.00  0.00    +0.000 C 
ATOM     13  O   UNL     1       3.795   2.235   0.000  0.00  0.00    +0.000 OA
ATOM     14  O   UNL     1       3.795   0.764   0.000  0.00  0.00    +0.000 OA
ENDBRANCH  10  12
ENDBRANCH   3   7
BRANCH   5  15
ATOM     15  C   UNL     1      -0.209  -1.407   0.000  0.00  0.00    +0.000 C 
ATOM     16  N   UNL     1      -0.209  -2.235   0.000  0.00  0.00    +0.000 NA
ENDBRANCH   5  15
BRANCH   6  17
ATOM     17  O   UNL     1      -1.643  -0.588   0.000  0.00  0.00    +0.000 OA
BRANCH  17  18
ATOM     18  C   UNL     1      -2.360  -0.174   0.000  0.00  0.00    +0.000 C 
BRANCH  18  19
ATOM     19  C   UNL     1      -3.078  -0.588   0.000  0.00  0.00    +0.000 C 
ATOM     20  C   UNL     1      -3.464   0.033   0.000  0.00  0.00    +0.000 C 
ATOM     21  C   UNL     1      -2.684  -1.292   0.000  0.00  0.00    +0.000 C 
ATOM     22  C   UNL     1      -3.795  -1.002   0.000  0.00  0.00    +0.000 C 
ENDBRANCH  18  19
ENDBRANCH  17  18
ENDBRANCH   6  17
TORSDOF 6
