REMARK  Name = 
REMARK  6 active torsions:
REMARK  status: ('A' for Active; 'I' for Inactive)
REMARK    1  A    between atoms: C_1  and  C_6
REMARK    2  A    between atoms: C_1  and  O_14
REMARK    3  A    between atoms: C_2  and  O_5
REMARK    4  A    between atoms: O_5  and  C_11
REMARK    5  A    between atoms: C_6  and  O_7
REMARK    6  A    between atoms: O_7  and  C_12
REMARK                            x       y       z     vdW  Elec       q    Type
REMARK                         _______ _______ _______ _____ _____    ______ ____
ROOT
ATOM      1  C   UNL     1      -0.606   1.075   0.000  0.00  0.00    +0.000 A 
ATOM      2  C   UNL     1       1.042   1.075   0.000  0.00  0.00    +0.000 A 
ATOM      3  C   UNL     1      -0.197   1.788   0.000  0.00  0.00    +0.000 A 
ATOM      4  C   UNL     1       0.625   0.362   0.000  0.00  0.00    +0.000 A 
ATOM      5  C   UNL     1      -0.193   0.362   0.000  0.00  0.00    +0.000 A 
ATOM      6  C   UNL     1       0.625   1.788   0.000  0.00  0.00    +0.000 A 
ENDROOT
BRANCH   1   7
ATOM      7  O   UNL     1      -1.431   1.075   0.000  0.00  0.00    +0.000 OA
BRANCH   7   8
ATOM      8  C   UNL     1      -1.852   0.366   0.000  0.00  0.00    +0.000 A 
ATOM      9  C   UNL     1      -2.674   0.374   0.000  0.00  0.00    +0.000 A 
ATOM     10  C   UNL     1      -3.090  -0.339   0.000  0.00  0.00    +0.000 A 
ATOM     11  C   UNL     1      -1.443  -0.350   0.000  0.00  0.00    +0.000 A 
ATOM     12  C   UNL     1      -2.682  -1.059   0.000  0.00  0.00    +0.000 A 
ATOM     13 CL   UNL     1      -3.079   1.091   0.000  0.00  0.00    +0.000 Cl
ATOM     14  C   UNL     1      -1.852  -1.059   0.000  0.00  0.00    +0.000 A 
ATOM     15 CL   UNL     1      -3.102  -1.772   0.000  0.00  0.00    +0.000 Cl
ENDBRANCH   7   8
ENDBRANCH   1   7
BRANCH   2  16
ATOM     16  O   UNL     1       1.864   1.075   0.000  0.00  0.00    +0.000 OA
BRANCH  16  17
ATOM     17  C   UNL     1       2.280   0.362   0.000  0.00  0.00    +0.000 C 
ATOM     18  C   UNL     1       3.102   0.362   0.000  0.00  0.00    +0.000 C 
BRANCH  17  19
ATOM     19  C   UNL     1       1.864  -0.358   0.000  0.00  0.00    +0.000 C 
ATOM     20  O   UNL     1       1.042  -0.358   0.000  0.00  0.00    +0.000 OA
BRANCH  19  21
ATOM     21  O   UNL     1       2.280  -1.071   0.000  0.00  0.00    +0.000 OA
ATOM     22  C   UNL     1       1.864  -1.788   0.000  0.00  0.00    +0.000 C 
ENDBRANCH  19  21
ENDBRANCH  17  19
ENDBRANCH  16  17
ENDBRANCH   2  16
TORSDOF 6
