REMARK  Name = 
REMARK  39 active torsions:
REMARK  status: ('A' for Active; 'I' for Inactive)
REMARK    1  A    between atoms: C_3  and  C_13
REMARK    2  A    between atoms: C_4  and  C_14
REMARK    3  A    between atoms: C_5  and  C_9
REMARK    4  A    between atoms: C_5  and  O_20
REMARK    5  A    between atoms: C_6  and  C_10
REMARK    6  A    between atoms: C_6  and  O_19
REMARK    7  A    between atoms: C_7  and  C_14
REMARK    8  A    between atoms: C_8  and  C_13
REMARK    9  A    between atoms: C_11  and  O_61
REMARK   10  A    between atoms: C_12  and  O_62
REMARK   11  A    between atoms: C_13  and  C_78
REMARK   12  A    between atoms: C_14  and  C_77
REMARK   13  A    between atoms: C_15  and  O_63
REMARK   14  A    between atoms: C_16  and  O_65
REMARK   15  A    between atoms: C_17  and  O_64
REMARK   16  A    between atoms: C_18  and  O_66
REMARK   17  A    between atoms: O_19  and  C_25
REMARK   18  A    between atoms: O_20  and  C_26
REMARK   19  A    between atoms: C_25  and  C_30
REMARK   20  A    between atoms: C_25  and  C_45
REMARK   21  A    between atoms: C_26  and  C_29
REMARK   22  A    between atoms: C_26  and  C_46
REMARK   23  A    between atoms: C_27  and  O_71
REMARK   24  A    between atoms: C_28  and  O_72
REMARK   25  A    between atoms: C_33  and  C_57
REMARK   26  A    between atoms: C_34  and  C_58
REMARK   27  A    between atoms: C_37  and  O_73
REMARK   28  A    between atoms: C_38  and  O_74
REMARK   29  A    between atoms: C_45  and  C_67
REMARK   30  A    between atoms: C_46  and  C_68
REMARK   31  A    between atoms: N_49  and  C_84
REMARK   32  A    between atoms: N_50  and  C_83
REMARK   33  A    between atoms: O_51  and  C_57
REMARK   34  A    between atoms: O_51  and  C_59
REMARK   35  A    between atoms: O_52  and  C_58
REMARK   36  A    between atoms: O_52  and  C_60
REMARK   37  A    between atoms: C_55  and  C_68
REMARK   38  A    between atoms: C_56  and  C_67
REMARK   39  A    between atoms: C_83  and  C_84
REMARK                            x       y       z     vdW  Elec       q    Type
REMARK                         _______ _______ _______ _____ _____    ______ ____
ROOT
ATOM      1  C   UNL     1       2.357  -3.931   0.000  0.00  0.00    +0.000 C 
ENDROOT
BRANCH   1   4
ATOM      2  C   UNL     1       0.933  -3.944   0.000  0.00  0.00    +0.000 C 
ATOM      3  O   UNL     1       0.933  -4.769   0.000  0.00  0.00    +0.000 OA
ATOM      4  N   UNL     1       1.633  -3.532   0.000  0.00  0.00    +0.000 NA
BRANCH   2   5
ATOM      5  C   UNL     1       0.208  -3.544   0.000  0.00  0.00    +0.000 C 
BRANCH   5   6
ATOM      6  O   UNL     1      -0.504  -3.956   0.000  0.00  0.00    +0.000 OA
BRANCH   6   9
ATOM      7  C   UNL     1      -2.640  -3.569   0.000  0.00  0.00    +0.000 A 
ATOM      8  C   UNL     1      -1.928  -3.969   0.000  0.00  0.00    +0.000 A 
ATOM      9  C   UNL     1      -1.216  -3.557   0.000  0.00  0.00    +0.000 A 
ATOM     10  C   UNL     1      -2.653  -2.744   0.000  0.00  0.00    +0.000 A 
ATOM     11  C   UNL     1      -1.953  -2.320   0.000  0.00  0.00    +0.000 A 
ATOM     12  C   UNL     1      -1.228  -2.732   0.000  0.00  0.00    +0.000 A 
BRANCH   7  13
ATOM     13  C   UNL     1      -3.353  -3.982   0.000  0.00  0.00    +0.000 C 
BRANCH  13  14
ATOM     14  C   UNL     1      -4.077  -3.582   0.000  0.00  0.00    +0.000 C 
BRANCH  14  15
ATOM     15  C   UNL     1      -4.077  -2.757   0.000  0.00  0.00    +0.000 C 
BRANCH  15  20
ATOM     16  C   UNL     1      -6.214  -2.357   0.000  0.00  0.00    +0.000 A 
ATOM     17  C   UNL     1      -6.239  -1.533   0.000  0.00  0.00    +0.000 A 
ATOM     18  C   UNL     1      -5.502  -2.757   0.000  0.00  0.00    +0.000 A 
ATOM     19  C   UNL     1      -5.514  -1.108   0.000  0.00  0.00    +0.000 A 
ATOM     20  C   UNL     1      -4.789  -2.345   0.000  0.00  0.00    +0.000 A 
ATOM     21  C   UNL     1      -4.802  -1.520   0.000  0.00  0.00    +0.000 A 
BRANCH  16  22
ATOM     22  O   UNL     1      -6.926  -2.782   0.000  0.00  0.00    +0.000 OA
ATOM     23  C   UNL     1      -6.913  -3.607   0.000  0.00  0.00    +0.000 C 
ENDBRANCH  16  22
BRANCH  17  24
ATOM     24  O   UNL     1      -6.951  -1.120   0.000  0.00  0.00    +0.000 OA
ATOM     25  C   UNL     1      -7.663  -1.533   0.000  0.00  0.00    +0.000 C 
ENDBRANCH  17  24
ENDBRANCH  15  20
ENDBRANCH  14  15
ENDBRANCH  13  14
BRANCH  13  26
ATOM     26  O   UNL     1      -3.340  -4.806   0.000  0.00  0.00    +0.000 OA
BRANCH  26  27
ATOM     27  C   UNL     1      -4.052  -5.231   0.000  0.00  0.00    +0.000 C 
ATOM     28  O   UNL     1      -4.052  -6.056   0.000  0.00  0.00    +0.000 OA
BRANCH  27  31
ATOM     29  N   UNL     1      -5.476  -5.231   0.000  0.00  0.00    +0.000 N 
ATOM     30  C   UNL     1      -5.464  -6.056   0.000  0.00  0.00    +0.000 C 
ATOM     31  C   UNL     1      -4.777  -4.819   0.000  0.00  0.00    +0.000 C 
ATOM     32  O   UNL     1      -4.752  -6.468   0.000  0.00  0.00    +0.000 OA
ATOM     33  C   UNL     1      -6.201  -4.831   0.000  0.00  0.00    +0.000 C 
ATOM     34  C   UNL     1      -4.777  -3.994   0.000  0.00  0.00    +0.000 C 
ATOM     35  C   UNL     1      -6.201  -4.006   0.000  0.00  0.00    +0.000 C 
ATOM     36  C   UNL     1      -5.502  -3.582   0.000  0.00  0.00    +0.000 C 
BRANCH  30  37
ATOM     37  C   UNL     1      -6.164  -6.505   0.000  0.00  0.00    +0.000 C 
BRANCH  37  38
ATOM     38  C   UNL     1      -6.901  -6.130   0.000  0.00  0.00    +0.000 A 
ATOM     39  C   UNL     1      -8.375  -5.368   0.000  0.00  0.00    +0.000 A 
ATOM     40  C   UNL     1      -8.313  -6.205   0.000  0.00  0.00    +0.000 A 
ATOM     41  C   UNL     1      -7.676  -4.931   0.000  0.00  0.00    +0.000 A 
ATOM     42  C   UNL     1      -7.588  -6.580   0.000  0.00  0.00    +0.000 A 
ATOM     43  C   UNL     1      -6.938  -5.306   0.000  0.00  0.00    +0.000 A 
BRANCH  41  44
ATOM     44  O   UNL     1      -7.700  -4.106   0.000  0.00  0.00    +0.000 OA
ATOM     45  C   UNL     1      -8.438  -3.732   0.000  0.00  0.00    +0.000 C 
ENDBRANCH  41  44
BRANCH  40  46
ATOM     46  O   UNL     1      -9.000  -6.655   0.000  0.00  0.00    +0.000 OA
ATOM     47  C   UNL     1      -8.950  -7.480   0.000  0.00  0.00    +0.000 C 
ENDBRANCH  40  46
BRANCH  39  48
ATOM     48  O   UNL     1      -9.112  -5.006   0.000  0.00  0.00    +0.000 OA
ATOM     49  C   UNL     1      -9.791  -5.443   0.000  0.00  0.00    +0.000 C 
ENDBRANCH  39  48
ENDBRANCH  37  38
BRANCH  37  50
ATOM     50  C   UNL     1      -6.126  -7.330   0.000  0.00  0.00    +0.000 C 
ATOM     51  C   UNL     1      -6.813  -7.780   0.000  0.00  0.00    +0.000 C 
ENDBRANCH  37  50
ENDBRANCH  30  37
ENDBRANCH  27  31
ENDBRANCH  26  27
ENDBRANCH  13  26
ENDBRANCH   7  13
ENDBRANCH   6   9
ENDBRANCH   5   6
ENDBRANCH   2   5
ENDBRANCH   1   4
BRANCH   1  52
ATOM     52  C   UNL     1       3.169  -3.919   0.000  0.00  0.00    +0.000 C 
BRANCH  52  55
ATOM     53  C   UNL     1       3.781  -2.632   0.000  0.00  0.00    +0.000 C 
ATOM     54  O   UNL     1       3.044  -2.282   0.000  0.00  0.00    +0.000 OA
ATOM     55  N   UNL     1       3.857  -3.457   0.000  0.00  0.00    +0.000 NA
BRANCH  53  56
ATOM     56  C   UNL     1       4.469  -2.170   0.000  0.00  0.00    +0.000 C 
BRANCH  56  57
ATOM     57  O   UNL     1       4.406  -1.345   0.000  0.00  0.00    +0.000 OA
BRANCH  57  60
ATOM     58  C   UNL     1       5.693   0.404   0.000  0.00  0.00    +0.000 A 
ATOM     59  C   UNL     1       5.018  -0.058   0.000  0.00  0.00    +0.000 A 
ATOM     60  C   UNL     1       5.081  -0.883   0.000  0.00  0.00    +0.000 A 
ATOM     61  C   UNL     1       6.443   0.054   0.000  0.00  0.00    +0.000 A 
ATOM     62  C   UNL     1       6.505  -0.770   0.000  0.00  0.00    +0.000 A 
ATOM     63  C   UNL     1       5.830  -1.245   0.000  0.00  0.00    +0.000 A 
BRANCH  58  64
ATOM     64  C   UNL     1       5.631   1.228   0.000  0.00  0.00    +0.000 C 
BRANCH  64  65
ATOM     65  C   UNL     1       6.318   1.691   0.000  0.00  0.00    +0.000 C 
BRANCH  65  66
ATOM     66  C   UNL     1       7.055   1.341   0.000  0.00  0.00    +0.000 C 
BRANCH  66  71
ATOM     67  C   UNL     1       8.354   3.069   0.000  0.00  0.00    +0.000 A 
ATOM     68  C   UNL     1       9.104   2.720   0.000  0.00  0.00    +0.000 A 
ATOM     69  C   UNL     1       7.680   2.607   0.000  0.00  0.00    +0.000 A 
ATOM     70  C   UNL     1       9.166   1.916   0.000  0.00  0.00    +0.000 A 
ATOM     71  C   UNL     1       7.742   1.803   0.000  0.00  0.00    +0.000 A 
ATOM     72  C   UNL     1       8.492   1.441   0.000  0.00  0.00    +0.000 A 
BRANCH  67  73
ATOM     73  O   UNL     1       8.292   3.906   0.000  0.00  0.00    +0.000 OA
ATOM     74  C   UNL     1       7.542   4.244   0.000  0.00  0.00    +0.000 C 
ENDBRANCH  67  73
BRANCH  68  75
ATOM     75  O   UNL     1       9.791   3.194   0.000  0.00  0.00    +0.000 OA
ATOM     76  C   UNL     1       9.716   4.006   0.000  0.00  0.00    +0.000 C 
ENDBRANCH  68  75
ENDBRANCH  66  71
ENDBRANCH  65  66
ENDBRANCH  64  65
BRANCH  64  77
ATOM     77  O   UNL     1       4.894   1.578   0.000  0.00  0.00    +0.000 OA
BRANCH  77  78
ATOM     78  C   UNL     1       4.831   2.403   0.000  0.00  0.00    +0.000 C 
ATOM     79  O   UNL     1       4.081   2.744   0.000  0.00  0.00    +0.000 OA
BRANCH  78  82
ATOM     80  N   UNL     1       5.443   3.682   0.000  0.00  0.00    +0.000 N 
ATOM     81  C   UNL     1       4.694   4.019   0.000  0.00  0.00    +0.000 C 
ATOM     82  C   UNL     1       5.506   2.857   0.000  0.00  0.00    +0.000 C 
ATOM     83  O   UNL     1       4.019   3.569   0.000  0.00  0.00    +0.000 OA
ATOM     84  C   UNL     1       6.118   4.144   0.000  0.00  0.00    +0.000 C 
ATOM     85  C   UNL     1       6.255   2.503   0.000  0.00  0.00    +0.000 C 
ATOM     86  C   UNL     1       6.855   3.802   0.000  0.00  0.00    +0.000 C 
ATOM     87  C   UNL     1       6.930   2.969   0.000  0.00  0.00    +0.000 C 
BRANCH  81  88
ATOM     88  C   UNL     1       4.631   4.856   0.000  0.00  0.00    +0.000 C 
BRANCH  88  89
ATOM     89  C   UNL     1       5.306   5.318   0.000  0.00  0.00    +0.000 A 
ATOM     90  C   UNL     1       6.655   6.255   0.000  0.00  0.00    +0.000 A 
ATOM     91  C   UNL     1       5.905   6.605   0.000  0.00  0.00    +0.000 A 
ATOM     92  C   UNL     1       6.730   5.431   0.000  0.00  0.00    +0.000 A 
ATOM     93  C   UNL     1       6.056   4.956   0.000  0.00  0.00    +0.000 A 
ATOM     94  C   UNL     1       5.231   6.139   0.000  0.00  0.00    +0.000 A 
BRANCH  92  95
ATOM     95  O   UNL     1       7.480   5.081   0.000  0.00  0.00    +0.000 OA
ATOM     96  C   UNL     1       8.155   5.551   0.000  0.00  0.00    +0.000 C 
ENDBRANCH  92  95
BRANCH  91  97
ATOM     97  O   UNL     1       5.843   7.430   0.000  0.00  0.00    +0.000 OA
ATOM     98  C   UNL     1       5.093   7.780   0.000  0.00  0.00    +0.000 C 
ENDBRANCH  91  97
BRANCH  90  99
ATOM     99  O   UNL     1       7.342   6.730   0.000  0.00  0.00    +0.000 OA
ATOM    100  C   UNL     1       7.267   7.555   0.000  0.00  0.00    +0.000 C 
ENDBRANCH  90  99
ENDBRANCH  88  89
BRANCH  88 101
ATOM    101  C   UNL     1       3.881   5.202   0.000  0.00  0.00    +0.000 C 
ATOM    102  C   UNL     1       3.207   4.731   0.000  0.00  0.00    +0.000 C 
ENDBRANCH  88 101
ENDBRANCH  81  88
ENDBRANCH  78  82
ENDBRANCH  77  78
ENDBRANCH  64  77
ENDBRANCH  58  64
ENDBRANCH  57  60
ENDBRANCH  56  57
ENDBRANCH  53  56
ENDBRANCH  52  55
ENDBRANCH   1  52
TORSDOF 39
