REMARK  Name = 
REMARK  14 active torsions:
REMARK  status: ('A' for Active; 'I' for Inactive)
REMARK    1  A    between atoms: N_5  and  C_7
REMARK    2  A    between atoms: C_9  and  O_22
REMARK    3  A    between atoms: C_10  and  C_12
REMARK    4  A    between atoms: C_12  and  O_13
REMARK    5  A    between atoms: O_13  and  P_14
REMARK    6  A    between atoms: P_14  and  O_15
REMARK    7  A    between atoms: O_15  and  C_16
REMARK    8  A    between atoms: C_16  and  C_17
REMARK    9  A    between atoms: C_17  and  C_18
REMARK   10  A    between atoms: O_22  and  P_23
REMARK   11  A    between atoms: P_23  and  O_24
REMARK   12  A    between atoms: O_24  and  C_25
REMARK   13  A    between atoms: C_25  and  C_26
REMARK   14  A    between atoms: C_26  and  C_27
REMARK                            x       y       z     vdW  Elec       q    Type
REMARK                         _______ _______ _______ _____ _____    ______ ____
ROOT
ATOM      1  C   UNL     1       1.353   0.980   0.000  0.00  0.00    +0.000 C 
ATOM      2  C   UNL     1       1.121   0.188   0.000  0.00  0.00    +0.000 C 
ATOM      3  C   UNL     1       0.296   0.163   0.000  0.00  0.00    +0.000 C 
ATOM      4  C   UNL     1       0.018   0.940   0.000  0.00  0.00    +0.000 C 
ATOM      5  O   UNL     1       0.671   1.445   0.000  0.00  0.00    +0.000 OA
ENDROOT
BRANCH   1  10
ATOM      6  C   UNL     1       3.053   2.348   0.000  0.00  0.00    +0.000 A 
ATOM      7  C   UNL     1       3.683   1.815   0.000  0.00  0.00    +0.000 A 
ATOM      8  N   UNL     1       3.535   1.003   0.000  0.00  0.00    +0.000 NA
ATOM      9  C   UNL     1       2.759   0.725   0.000  0.00  0.00    +0.000 A 
ATOM     10  N   UNL     1       2.129   1.258   0.000  0.00  0.00    +0.000 N 
ATOM     11  C   UNL     1       2.277   2.070   0.000  0.00  0.00    +0.000 A 
ATOM     12  O   UNL     1       2.611  -0.087   0.000  0.00  0.00    +0.000 OA
ATOM     13  O   UNL     1       4.459   2.093   0.000  0.00  0.00    +0.000 OA
ATOM     14  C   UNL     1       3.201   3.160   0.000  0.00  0.00    +0.000 C 
ENDBRANCH   1  10
BRANCH   3  15
ATOM     15  O   UNL     1      -0.168  -0.518   0.000  0.00  0.00    +0.000 OA
BRANCH  15  16
ATOM     16  P   UNL     1      -0.968  -0.315   0.000  0.00  0.00    +0.000 P 
ATOM     17  O   UNL     1      -1.767  -0.111   0.000  0.00  0.00    +0.000 OA
ATOM     18  O   UNL     1      -0.764   0.485   0.000  0.00  0.00    +0.000 OA
BRANCH  16  19
ATOM     19  O   UNL     1      -1.171  -1.114   0.000  0.00  0.00    +0.000 OA
BRANCH  19  20
ATOM     20  C   UNL     1      -1.966  -1.337   0.000  0.00  0.00    +0.000 C 
BRANCH  20  21
ATOM     21  C   UNL     1      -2.169  -2.137   0.000  0.00  0.00    +0.000 C 
BRANCH  21  22
ATOM     22  C   UNL     1      -2.964  -2.360   0.000  0.00  0.00    +0.000 C 
ATOM     23  C   UNL     1      -3.167  -3.160   0.000  0.00  0.00    +0.000 C 
ENDBRANCH  21  22
ENDBRANCH  20  21
ENDBRANCH  19  20
ENDBRANCH  16  19
ENDBRANCH  15  16
ENDBRANCH   3  15
BRANCH   4  24
ATOM     24  C   UNL     1      -0.774   1.171   0.000  0.00  0.00    +0.000 C 
BRANCH  24  25
ATOM     25  O   UNL     1      -1.370   0.601   0.000  0.00  0.00    +0.000 OA
BRANCH  25  26
ATOM     26  P   UNL     1      -2.162   0.833   0.000  0.00  0.00    +0.000 P 
ATOM     27  O   UNL     1      -1.931   1.625   0.000  0.00  0.00    +0.000 OA
ATOM     28  O   UNL     1      -2.954   1.064   0.000  0.00  0.00    +0.000 OA
BRANCH  26  29
ATOM     29  O   UNL     1      -2.393   0.041   0.000  0.00  0.00    +0.000 OA
BRANCH  29  30
ATOM     30  C   UNL     1      -3.195  -0.155   0.000  0.00  0.00    +0.000 C 
BRANCH  30  31
ATOM     31  C   UNL     1      -3.426  -0.947   0.000  0.00  0.00    +0.000 C 
BRANCH  31  32
ATOM     32  C   UNL     1      -4.228  -1.142   0.000  0.00  0.00    +0.000 C 
ATOM     33  C   UNL     1      -4.459  -1.934   0.000  0.00  0.00    +0.000 C 
ENDBRANCH  31  32
ENDBRANCH  30  31
ENDBRANCH  29  30
ENDBRANCH  26  29
ENDBRANCH  25  26
ENDBRANCH  24  25
ENDBRANCH   4  24
TORSDOF 14
