REMARK  Name = 
REMARK  0 active torsions:
REMARK  status: ('A' for Active; 'I' for Inactive)
REMARK                            x       y       z     vdW  Elec       q    Type
REMARK                         _______ _______ _______ _____ _____    ______ ____
ROOT
ATOM      1  C   UNL     1       0.407   0.005   0.000  0.00  0.00    +0.000 C 
ATOM      2  C   UNL     1      -0.407  -0.004   0.000  0.00  0.00    +0.000 C 
ATOM      3  C   UNL     1       0.914  -0.638   0.000  0.00  0.00    +0.000 C 
ATOM      4  N   UNL     1       0.881   0.694   0.000  0.00  0.00    +0.000 NA
ATOM      5  C   UNL     1      -0.911   0.640   0.000  0.00  0.00    +0.000 C 
ATOM      6  N   UNL     1      -0.881  -0.692   0.000  0.00  0.00    +0.000 NA
ATOM      7  C   UNL     1       1.692  -0.366   0.000  0.00  0.00    +0.000 A 
ATOM      8  O   UNL     1       0.681  -1.433   0.000  0.00  0.00    +0.000 OA
ATOM      9  C   UNL     1       1.668   0.459   0.000  0.00  0.00    +0.000 A 
ATOM     10  C   UNL     1      -1.694   0.365   0.000  0.00  0.00    +0.000 A 
ATOM     11  O   UNL     1      -0.681   1.433   0.000  0.00  0.00    +0.000 OA
ATOM     12  C   UNL     1      -1.669  -0.457   0.000  0.00  0.00    +0.000 A 
ATOM     13  C   UNL     1       2.419  -0.755   0.000  0.00  0.00    +0.000 A 
ATOM     14  C   UNL     1       2.378   0.890   0.000  0.00  0.00    +0.000 A 
ATOM     15  C   UNL     1      -2.425   0.757   0.000  0.00  0.00    +0.000 A 
ATOM     16  C   UNL     1      -2.378  -0.890   0.000  0.00  0.00    +0.000 A 
ATOM     17  C   UNL     1       3.130  -0.324   0.000  0.00  0.00    +0.000 A 
ATOM     18  C   UNL     1       3.104   0.492   0.000  0.00  0.00    +0.000 A 
ATOM     19  C   UNL     1      -3.130   0.320   0.000  0.00  0.00    +0.000 A 
ATOM     20  C   UNL     1      -3.102  -0.494   0.000  0.00  0.00    +0.000 A 
ENDROOT
TORSDOF 0
