REMARK  Name = 
REMARK  6 active torsions:
REMARK  status: ('A' for Active; 'I' for Inactive)
REMARK    1  A    between atoms: C_1  and  C_3
REMARK    2  A    between atoms: N_5  and  C_7
REMARK    3  A    between atoms: N_5  and  C_10
REMARK    4  A    between atoms: N_6  and  C_13
REMARK    5  A    between atoms: C_13  and  C_14
REMARK    6  A    between atoms: C_14  and  C_15
REMARK                            x       y       z     vdW  Elec       q    Type
REMARK                         _______ _______ _______ _____ _____    ______ ____
ROOT
ATOM      1  N   UNL     1      -0.012  -0.417   0.000  0.00  0.00    +0.000 NA
ATOM      2  C   UNL     1      -0.012   1.233   0.000  0.00  0.00    +0.000 C 
ATOM      3  C   UNL     1       0.702   0.820   0.000  0.00  0.00    +0.000 C 
ATOM      4  C   UNL     1      -0.727   0.820   0.000  0.00  0.00    +0.000 C 
ATOM      5  C   UNL     1      -0.727  -0.005   0.000  0.00  0.00    +0.000 C 
ATOM      6  C   UNL     1       0.702  -0.005   0.000  0.00  0.00    +0.000 C 
ENDROOT
BRANCH   2   9
ATOM      7  C   UNL     1       0.739   2.462   0.000  0.00  0.00    +0.000 C 
ATOM      8  O   UNL     1       0.739   3.274   0.000  0.00  0.00    +0.000 OA
ATOM      9  N   UNL     1      -0.012   2.058   0.000  0.00  0.00    +0.000 N 
BRANCH   9  10
ATOM     10  C   UNL     1      -0.714   2.491   0.000  0.00  0.00    +0.000 A 
ATOM     11  C   UNL     1      -1.441   2.100   0.000  0.00  0.00    +0.000 A 
ATOM     12  C   UNL     1      -0.690   3.316   0.000  0.00  0.00    +0.000 A 
ATOM     13  C   UNL     1      -2.143   2.534   0.000  0.00  0.00    +0.000 A 
ATOM     14  C   UNL     1      -1.392   3.749   0.000  0.00  0.00    +0.000 A 
ATOM     15  C   UNL     1      -2.118   3.358   0.000  0.00  0.00    +0.000 A 
ENDBRANCH   9  10
BRANCH   7  16
ATOM     16  C   UNL     1       1.416   2.015   0.000  0.00  0.00    +0.000 C 
ATOM     17  C   UNL     1       2.143   2.407   0.000  0.00  0.00    +0.000 C 
ENDBRANCH   7  16
ENDBRANCH   2   9
BRANCH   1  18
ATOM     18  C   UNL     1      -0.012  -1.242   0.000  0.00  0.00    +0.000 C 
BRANCH  18  19
ATOM     19  C   UNL     1       0.702  -1.655   0.000  0.00  0.00    +0.000 C 
BRANCH  19  20
ATOM     20  C   UNL     1       0.702  -2.480   0.000  0.00  0.00    +0.000 A 
ATOM     21  S   UNL     1       1.370  -2.965   0.000  0.00  0.00    +0.000 S 
ATOM     22  C   UNL     1       1.115  -3.749   0.000  0.00  0.00    +0.000 A 
ATOM     23  C   UNL     1       0.035  -2.965   0.000  0.00  0.00    +0.000 A 
ATOM     24  C   UNL     1       0.289  -3.749   0.000  0.00  0.00    +0.000 A 
ENDBRANCH  19  20
ENDBRANCH  18  19
ENDBRANCH   1  18
TORSDOF 6
