REMARK  Name = 
REMARK  1 active torsions:
REMARK  status: ('A' for Active; 'I' for Inactive)
REMARK    1  A    between atoms: C_5  and  C_8
REMARK                            x       y       z     vdW  Elec       q    Type
REMARK                         _______ _______ _______ _____ _____    ______ ____
ROOT
ATOM      1  N   UNL     1      -0.357  -1.237   0.000  0.00  0.00    +0.000 NA
ATOM      2  C   UNL     1      -1.072  -0.825   0.000  0.00  0.00    +0.000 A 
ATOM      3  C   UNL     1      -1.072   0.000   0.000  0.00  0.00    +0.000 A 
ATOM      4  N   UNL     1      -0.357   0.412   0.000  0.00  0.00    +0.000 NA
ATOM      5  C   UNL     1       0.357   0.000   0.000  0.00  0.00    +0.000 A 
ATOM      6  C   UNL     1       0.357  -0.825   0.000  0.00  0.00    +0.000 A 
ATOM      7  O   UNL     1       1.072  -1.237   0.000  0.00  0.00    +0.000 OA
ATOM      8  F   UNL     1      -1.786   0.412   0.000  0.00  0.00    +0.000 F 
ENDROOT
BRANCH   5   9
ATOM      9  C   UNL     1       1.072   0.412   0.000  0.00  0.00    +0.000 C 
ATOM     10  N   UNL     1       1.786   0.000   0.000  0.00  0.00    +0.000 NA
ATOM     11  O   UNL     1       1.072   1.237   0.000  0.00  0.00    +0.000 OA
ENDBRANCH   5   9
TORSDOF 1
