REMARK  Name = 
REMARK  8 active torsions:
REMARK  status: ('A' for Active; 'I' for Inactive)
REMARK    1  A    between atoms: C_10  and  C_36
REMARK    2  A    between atoms: C_20  and  C_21
REMARK    3  A    between atoms: C_21  and  C_22
REMARK    4  A    between atoms: C_22  and  C_23
REMARK    5  A    between atoms: C_27  and  C_30
REMARK    6  A    between atoms: C_30  and  C_31
REMARK    7  A    between atoms: C_31  and  C_32
REMARK    8  A    between atoms: C_39  and  C_40
REMARK                            x       y       z     vdW  Elec       q    Type
REMARK                         _______ _______ _______ _____ _____    ______ ____
ROOT
ATOM      1  C   UNL     1      -0.915  -2.974   0.000  0.00  0.00    +0.000 C 
ATOM      2  C   UNL     1      -0.803  -2.157   0.000  0.00  0.00    +0.000 A 
ATOM      3  C   UNL     1      -0.045  -1.740   0.000  0.00  0.00    +0.000 A 
ATOM      4  C   UNL     1       0.690  -2.144   0.000  0.00  0.00    +0.000 C 
ATOM      5  C   UNL     1       1.390  -1.757   0.000  0.00  0.00    +0.000 C 
ATOM      6  N   UNL     1       1.529  -0.965   0.000  0.00  0.00    +0.000 NA
ATOM      7  C   UNL     1       2.348  -0.782   0.000  0.00  0.00    +0.000 C 
ATOM      8  C   UNL     1       2.722  -0.076   0.000  0.00  0.00    +0.000 C 
ATOM      9  C   UNL     1       2.306   0.652   0.000  0.00  0.00    +0.000 A 
ATOM     10  C   UNL     1       2.709   1.417   0.000  0.00  0.00    +0.000 A 
ATOM     11  C   UNL     1       2.148   1.968   0.000  0.00  0.00    +0.000 A 
ATOM     12  C   UNL     1       1.390   1.581   0.000  0.00  0.00    +0.000 A 
ATOM     13  N   UNL     1       1.544   0.762   0.000  0.00  0.00    +0.000 NA
ATOM     14  C   UNL     1       0.684   1.955   0.000  0.00  0.00    +0.000 C 
ATOM     15  C   UNL     1      -0.045   1.569   0.000  0.00  0.00    +0.000 C 
ATOM     16  N   UNL     1      -0.213   0.776   0.000  0.00  0.00    +0.000 NA
ATOM     17  C   UNL     1      -1.003   0.623   0.000  0.00  0.00    +0.000 C 
ATOM     18  C   UNL     1      -1.377  -0.141   0.000  0.00  0.00    +0.000 C 
ATOM     19  C   UNL     1      -0.990  -0.841   0.000  0.00  0.00    +0.000 A 
ATOM     20  C   UNL     1      -1.364  -1.605   0.000  0.00  0.00    +0.000 A 
ATOM     21  N   UNL     1      -0.169  -0.980   0.000  0.00  0.00    +0.000 NA
ATOM     22  C   UNL     1      -1.360   1.323   0.000  0.00  0.00    +0.000 C 
ATOM     23  C   UNL     1      -0.780   1.913   0.000  0.00  0.00    +0.000 C 
ATOM     24  C   UNL     1      -0.925   2.725   0.000  0.00  0.00    +0.000 C 
ATOM     25  C   UNL     1       2.273   2.784   0.000  0.00  0.00    +0.000 C 
ATOM     26  C   UNL     1       2.735  -1.569   0.000  0.00  0.00    +0.000 C 
ATOM     27  C   UNL     1       2.184  -2.131   0.000  0.00  0.00    +0.000 C 
ATOM     28  C   UNL     1       3.550  -1.700   0.000  0.00  0.00    +0.000 C 
ENDROOT
BRANCH  27  29
ATOM     29  C   UNL     1       2.329  -2.943   0.000  0.00  0.00    +0.000 C 
ATOM     30  C   UNL     1       1.698  -3.475   0.000  0.00  0.00    +0.000 C 
ENDBRANCH  27  29
BRANCH  10  31
ATOM     31  C   UNL     1       3.524   1.544   0.000  0.00  0.00    +0.000 C 
ATOM     32  C   UNL     1       3.822   2.313   0.000  0.00  0.00    +0.000 C 
ENDBRANCH  10  31
BRANCH  20  33
ATOM     33  C   UNL     1      -2.177  -1.744   0.000  0.00  0.00    +0.000 C 
BRANCH  33  34
ATOM     34  C   UNL     1      -2.704  -1.110   0.000  0.00  0.00    +0.000 C 
BRANCH  34  35
ATOM     35  C   UNL     1      -3.517  -1.249   0.000  0.00  0.00    +0.000 C 
ATOM     36  O   UNL     1      -4.045  -0.614   0.000  0.00  0.00    +0.000 OA
ATOM     37  O   UNL     1      -3.803  -2.023   0.000  0.00  0.00    +0.000 OA
ENDBRANCH  34  35
ENDBRANCH  33  34
ENDBRANCH  20  33
BRANCH  22  38
ATOM     38  C   UNL     1      -2.176   1.448   0.000  0.00  0.00    +0.000 C 
BRANCH  38  39
ATOM     39  C   UNL     1      -2.475   2.216   0.000  0.00  0.00    +0.000 C 
BRANCH  39  40
ATOM     40  C   UNL     1      -3.291   2.341   0.000  0.00  0.00    +0.000 C 
ATOM     41  O   UNL     1      -3.807   1.698   0.000  0.00  0.00    +0.000 OA
ATOM     42  O   UNL     1      -3.590   3.110   0.000  0.00  0.00    +0.000 OA
ENDBRANCH  39  40
ENDBRANCH  38  39
ENDBRANCH  22  38
TORSDOF 8
REMARK  Name = 
REMARK  8 active torsions:
REMARK  status: ('A' for Active; 'I' for Inactive)
REMARK    1  A    between atoms: C_10  and  C_36
REMARK    2  A    between atoms: C_20  and  C_21
REMARK    3  A    between atoms: C_21  and  C_22
REMARK    4  A    between atoms: C_22  and  C_23
REMARK    5  A    between atoms: C_27  and  C_30
REMARK    6  A    between atoms: C_30  and  C_31
REMARK    7  A    between atoms: C_31  and  C_32
REMARK    8  A    between atoms: C_39  and  C_40
REMARK                            x       y       z     vdW  Elec       q    Type
REMARK                         _______ _______ _______ _____ _____    ______ ____
ROOT
ATOM      1  O   HOH     1       7.122   0.000   0.000  0.00  0.00    +0.000 OA
ENDROOT
TORSDOF 0
REMARK  Name = 
REMARK  8 active torsions:
REMARK  status: ('A' for Active; 'I' for Inactive)
REMARK    1  A    between atoms: C_10  and  C_36
REMARK    2  A    between atoms: C_20  and  C_21
REMARK    3  A    between atoms: C_21  and  C_22
REMARK    4  A    between atoms: C_22  and  C_23
REMARK    5  A    between atoms: C_27  and  C_30
REMARK    6  A    between atoms: C_30  and  C_31
REMARK    7  A    between atoms: C_31  and  C_32
REMARK    8  A    between atoms: C_39  and  C_40
REMARK                            x       y       z     vdW  Elec       q    Type
REMARK                         _______ _______ _______ _____ _____    ______ ____
ROOT
ATOM      1 FE   UNL     1       6.297   0.000   0.000  0.00  0.00    +0.000 Fe
ENDROOT
TORSDOF 0
