REMARK  Name = 
REMARK  6 active torsions:
REMARK  status: ('A' for Active; 'I' for Inactive)
REMARK    1  A    between atoms: C_1  and  O_34
REMARK    2  A    between atoms: N_8  and  C_18
REMARK    3  A    between atoms: C_10  and  C_11
REMARK    4  A    between atoms: C_18  and  C_19
REMARK    5  A    between atoms: N_20  and  C_21
REMARK    6  A    between atoms: O_34  and  C_35
REMARK                            x       y       z     vdW  Elec       q    Type
REMARK                         _______ _______ _______ _____ _____    ______ ____
ROOT
ATOM      1  C   UNL     1      -3.550   1.243   0.000  0.00  0.00    +0.000 A 
ATOM      2  C   UNL     1      -3.550   0.410   0.000  0.00  0.00    +0.000 A 
ATOM      3  C   UNL     1      -2.833   0.003   0.000  0.00  0.00    +0.000 A 
ATOM      4  C   UNL     1      -2.123   0.414   0.000  0.00  0.00    +0.000 A 
ATOM      5  C   UNL     1      -2.123   1.243   0.000  0.00  0.00    +0.000 A 
ATOM      6  C   UNL     1      -2.835   1.655   0.000  0.00  0.00    +0.000 A 
ATOM      7  C   UNL     1      -1.410   1.654   0.000  0.00  0.00    +0.000 A 
ATOM      8  N   UNL     1      -0.690   1.242   0.000  0.00  0.00    +0.000 N 
ATOM      9  N   UNL     1      -0.690   0.417   0.000  0.00  0.00    +0.000 NA
ATOM     10  C   UNL     1      -1.405   0.000   0.000  0.00  0.00    +0.000 A 
ATOM     11  O   UNL     1      -1.410   2.478   0.000  0.00  0.00    +0.000 OA
ENDROOT
BRANCH  10  12
ATOM     12  C   UNL     1      -1.405  -0.824   0.000  0.00  0.00    +0.000 A 
ATOM     13  C   UNL     1      -0.686  -1.241   0.000  0.00  0.00    +0.000 A 
ATOM     14  C   UNL     1      -0.686  -2.062   0.000  0.00  0.00    +0.000 A 
ATOM     15  C   UNL     1      -1.406  -2.475   0.000  0.00  0.00    +0.000 A 
ATOM     16  C   UNL     1      -2.118  -2.066   0.000  0.00  0.00    +0.000 A 
ATOM     17  C   UNL     1      -2.118  -1.242   0.000  0.00  0.00    +0.000 A 
ATOM     18  F   UNL     1      -2.832  -2.478   0.000  0.00  0.00    +0.000 F 
ENDBRANCH  10  12
BRANCH   8  19
ATOM     19  C   UNL     1       0.025   1.654   0.000  0.00  0.00    +0.000 C 
BRANCH  19  20
ATOM     20  C   UNL     1       0.739   1.242   0.000  0.00  0.00    +0.000 C 
ATOM     21  N   UNL     1       1.454   1.654   0.000  0.00  0.00    +0.000 N 
ATOM     22  C   UNL     1       1.454   2.478   0.000  0.00  0.00    +0.000 C 
ATOM     23  O   UNL     1       0.739   0.413   0.000  0.00  0.00    +0.000 OA
BRANCH  21  24
ATOM     24  C   UNL     1       2.168   1.242   0.000  0.00  0.00    +0.000 A 
ATOM     25  C   UNL     1       2.888   1.654   0.000  0.00  0.00    +0.000 A 
ATOM     26  C   UNL     1       3.600   1.242   0.000  0.00  0.00    +0.000 A 
ATOM     27  C   UNL     1       3.600   0.413   0.000  0.00  0.00    +0.000 A 
ATOM     28  C   UNL     1       2.890   0.002   0.000  0.00  0.00    +0.000 A 
ATOM     29  C   UNL     1       2.168   0.409   0.000  0.00  0.00    +0.000 A 
ATOM     30  N   UNL     1       4.387   0.159   0.000  0.00  0.00    +0.000 NA
ATOM     31  C   UNL     1       4.870   0.825   0.000  0.00  0.00    +0.000 A 
ATOM     32  O   UNL     1       4.387   1.496   0.000  0.00  0.00    +0.000 OA
ATOM     33  C   UNL     1       5.699   0.825   0.000  0.00  0.00    +0.000 C 
ENDBRANCH  21  24
ENDBRANCH  19  20
ENDBRANCH   8  19
BRANCH   1  34
ATOM     34  O   UNL     1      -4.264   1.655   0.000  0.00  0.00    +0.000 OA
BRANCH  34  35
ATOM     35  C   UNL     1      -4.984   1.243   0.000  0.00  0.00    +0.000 C 
ATOM     36  C   UNL     1      -5.699   1.655   0.000  0.00  0.00    +0.000 C 
ENDBRANCH  34  35
ENDBRANCH   1  34
TORSDOF 6
