REMARK  Name = 
REMARK  1 active torsions:
REMARK  status: ('A' for Active; 'I' for Inactive)
REMARK    1  A    between atoms: C_2  and  P_5
REMARK                            x       y       z     vdW  Elec       q    Type
REMARK                         _______ _______ _______ _____ _____    ______ ____
ROOT
ATOM      1  C   UNL     1      -0.835  -0.427   0.000  0.00  0.00    +0.000 C 
ATOM      2  C   UNL     1      -0.010  -0.427   0.000  0.00  0.00    +0.000 C 
ATOM      3  O   UNL     1      -0.423   0.288   0.000  0.00  0.00    +0.000 OA
ATOM      4  C   UNL     1      -1.419   0.157   0.000  0.00  0.00    +0.000 C 
ENDROOT
BRANCH   2   5
ATOM      5  P   UNL     1       0.704  -0.014   0.000  0.00  0.00    +0.000 P 
ATOM      6  O   UNL     1       0.704   0.811   0.000  0.00  0.00    +0.000 OA
ATOM      7  O   UNL     1       0.918  -0.811   0.000  0.00  0.00    +0.000 OA
ATOM      8  O   UNL     1       1.419  -0.427   0.000  0.00  0.00    +0.000 OA
ENDBRANCH   2   5
TORSDOF 1
