REMARK  Name = 
REMARK  2 active torsions:
REMARK  status: ('A' for Active; 'I' for Inactive)
REMARK    1  A    between atoms: S_2  and  C_10
REMARK    2  A    between atoms: C_12  and  C_13
REMARK                            x       y       z     vdW  Elec       q    Type
REMARK                         _______ _______ _______ _____ _____    ______ ____
ROOT
ATOM      1  O   UNL     1       0.004   1.238   0.000  0.00  0.00    +0.000 OA
ATOM      2  O   UNL     1       1.433  -0.414   0.000  0.00  0.00    +0.000 OA
ATOM      3  O   UNL     1       0.004  -1.238   0.000  0.00  0.00    +0.000 OA
ATOM      4  O   UNL     1      -1.429  -0.414   0.000  0.00  0.00    +0.000 OA
ATOM      5  C   UNL     1       0.717  -0.002   0.000  0.00  0.00    +0.000 C 
ATOM      6  C   UNL     1       0.004  -0.414   0.000  0.00  0.00    +0.000 C 
ATOM      7  C   UNL     1       0.717   0.822   0.000  0.00  0.00    +0.000 C 
ATOM      8  C   UNL     1      -0.712  -0.002   0.000  0.00  0.00    +0.000 C 
ATOM      9  C   UNL     1      -0.712   0.822   0.000  0.00  0.00    +0.000 C 
ENDROOT
BRANCH   7  11
ATOM     10 AU   UNL     1       2.145   0.822   0.000  0.00  0.00    +0.000 Au
ATOM     11  S   UNL     1       1.433   1.238   0.000  0.00  0.00    +0.000 S 
ENDBRANCH   7  11
BRANCH   9  13
ATOM     12  O   UNL     1      -2.145   0.826   0.000  0.00  0.00    +0.000 OA
ATOM     13  C   UNL     1      -1.429   1.238   0.000  0.00  0.00    +0.000 C 
ENDBRANCH   9  13
TORSDOF 2
