REMARK  Name = 
REMARK  2 active torsions:
REMARK  status: ('A' for Active; 'I' for Inactive)
REMARK    1  A    between atoms: S_25  and  O_26
REMARK    2  A    between atoms: O_26  and  C_27
REMARK                            x       y       z     vdW  Elec       q    Type
REMARK                         _______ _______ _______ _____ _____    ______ ____
ROOT
ATOM      1  C   UNL     1       2.999  -0.211   0.000  0.00  0.00    +0.000 C 
ATOM      2  C   UNL     1       1.500  -1.194   0.000  0.00  0.00    +0.000 C 
ATOM      3  C   UNL     1       2.999   1.124   0.000  0.00  0.00    +0.000 C 
ATOM      4  C   UNL     1       1.500   1.281   0.000  0.00  0.00    +0.000 C 
ATOM      5  C   UNL     1       3.483   0.456   0.000  0.00  0.00    +0.000 C 
ATOM      6  C   UNL     1       0.070  -0.369   0.000  0.00  0.00    +0.000 A 
ATOM      7  C   UNL     1       0.785   0.869   0.000  0.00  0.00    +0.000 C 
ATOM      8  C   UNL     1       0.785  -1.606   0.000  0.00  0.00    +0.000 C 
ATOM      9  O   UNL     1       3.253   1.908   0.000  0.00  0.00    +0.000 OA
ATOM     10  C   UNL     1       0.070  -1.194   0.000  0.00  0.00    +0.000 A 
ATOM     11  C   UNL     1      -0.644   0.044   0.000  0.00  0.00    +0.000 A 
ATOM     12  C   UNL     1      -0.644  -1.606   0.000  0.00  0.00    +0.000 A 
ATOM     13  C   UNL     1      -1.358  -0.369   0.000  0.00  0.00    +0.000 A 
ATOM     14  C   UNL     1       1.500  -0.369   0.000  0.00  0.00    +0.000 C 
ATOM     15  C   UNL     1       0.785   0.044   0.000  0.00  0.00    +0.000 C 
ATOM     16  C   UNL     1       2.214   0.869   0.000  0.00  0.00    +0.000 C 
ATOM     17  C   UNL     1       2.214   1.694   0.000  0.00  0.00    +0.000 C 
ATOM     18  C   UNL     1       2.214   0.044   0.000  0.00  0.00    +0.000 C 
ATOM     19  C   UNL     1      -1.358  -1.194   0.000  0.00  0.00    +0.000 A 
ENDROOT
BRANCH  19  20
ATOM     20  O   UNL     1      -2.073  -1.606   0.000  0.00  0.00    +0.000 OA
BRANCH  20  24
ATOM     21  O   UNL     1      -2.375  -0.479   0.000  0.00  0.00    +0.000 OA
ATOM     22  O   UNL     1      -3.200  -1.908   0.000  0.00  0.00    +0.000 OA
ATOM     23  O   UNL     1      -3.483  -0.799   0.000  0.00  0.00    +0.000 OA
ATOM     24  S   UNL     1      -2.769  -1.212   0.000  0.00  0.00    +0.000 S 
ENDBRANCH  20  24
ENDBRANCH  19  20
TORSDOF 2
