REMARK  Name = 
REMARK  6 active torsions:
REMARK  status: ('A' for Active; 'I' for Inactive)
REMARK    1  A    between atoms: C_3  and  C_5
REMARK    2  A    between atoms: C_6  and  C_34
REMARK    3  A    between atoms: C_12  and  C_15
REMARK    4  A    between atoms: C_20  and  C_22
REMARK    5  A    between atoms: N_24  and  C_25
REMARK    6  A    between atoms: C_25  and  C_28
REMARK                            x       y       z     vdW  Elec       q    Type
REMARK                         _______ _______ _______ _____ _____    ______ ____
ROOT
ATOM      1  C   UNL     1      -0.143  -0.030   0.000  0.00  0.00    +0.000 A 
ATOM      2  C   UNL     1      -0.628  -0.698   0.000  0.00  0.00    +0.000 A 
ATOM      3  O   UNL     1      -0.143  -1.365   0.000  0.00  0.00    +0.000 OA
ATOM      4  C   UNL     1       0.641  -1.110   0.000  0.00  0.00    +0.000 A 
ATOM      5  C   UNL     1       0.641  -0.285   0.000  0.00  0.00    +0.000 A 
ATOM      6  C   UNL     1       1.356   0.127   0.000  0.00  0.00    +0.000 A 
ATOM      7  F   UNL     1       1.356   0.952   0.000  0.00  0.00    +0.000 F 
ATOM      8  C   UNL     1       2.070  -0.285   0.000  0.00  0.00    +0.000 A 
ATOM      9  C   UNL     1       2.070  -1.110   0.000  0.00  0.00    +0.000 A 
ATOM     10  C   UNL     1       1.356  -1.523   0.000  0.00  0.00    +0.000 A 
ENDROOT
BRANCH   2  11
ATOM     11  C   UNL     1      -1.453  -0.698   0.000  0.00  0.00    +0.000 A 
ATOM     12  C   UNL     1      -1.866  -1.412   0.000  0.00  0.00    +0.000 A 
ATOM     13  C   UNL     1      -2.691  -1.412   0.000  0.00  0.00    +0.000 A 
ATOM     14  C   UNL     1      -3.103  -0.698   0.000  0.00  0.00    +0.000 A 
ATOM     15  F   UNL     1      -3.928  -0.698   0.000  0.00  0.00    +0.000 F 
ATOM     16  C   UNL     1      -2.691   0.017   0.000  0.00  0.00    +0.000 A 
ATOM     17  C   UNL     1      -1.866   0.017   0.000  0.00  0.00    +0.000 A 
ENDBRANCH   2  11
BRANCH   8  18
ATOM     18  C   UNL     1       2.784   0.127   0.000  0.00  0.00    +0.000 A 
ATOM     19  C   UNL     1       2.784   0.952   0.000  0.00  0.00    +0.000 A 
ATOM     20  C   UNL     1       2.070   1.365   0.000  0.00  0.00    +0.000 C 
ATOM     21  C   UNL     1       3.499   1.365   0.000  0.00  0.00    +0.000 A 
ATOM     22  C   UNL     1       4.213   0.952   0.000  0.00  0.00    +0.000 A 
ATOM     23  C   UNL     1       4.213   0.127   0.000  0.00  0.00    +0.000 A 
ATOM     24  C   UNL     1       3.499  -0.285   0.000  0.00  0.00    +0.000 A 
BRANCH  23  25
ATOM     25  C   UNL     1       4.928  -0.285   0.000  0.00  0.00    +0.000 C 
ATOM     26  O   UNL     1       4.928  -1.110   0.000  0.00  0.00    +0.000 OA
ATOM     27  N   UNL     1       5.642   0.127   0.000  0.00  0.00    +0.000 NA
BRANCH  27  28
ATOM     28  C   UNL     1       6.357  -0.285   0.000  0.00  0.00    +0.000 C 
ATOM     29  C   UNL     1       6.887  -0.917   0.000  0.00  0.00    +0.000 C 
ATOM     30  C   UNL     1       6.075  -1.061   0.000  0.00  0.00    +0.000 C 
BRANCH  28  31
ATOM     31  C   UNL     1       6.887   0.346   0.000  0.00  0.00    +0.000 A 
ATOM     32  N   UNL     1       6.605   1.122   0.000  0.00  0.00    +0.000 NA
ATOM     33  C   UNL     1       7.135   1.754   0.000  0.00  0.00    +0.000 A 
ATOM     34  C   UNL     1       7.948   1.611   0.000  0.00  0.00    +0.000 A 
ATOM     35  C   UNL     1       8.230   0.835   0.000  0.00  0.00    +0.000 A 
ATOM     36  N   UNL     1       7.700   0.203   0.000  0.00  0.00    +0.000 NA
ENDBRANCH  28  31
ENDBRANCH  27  28
ENDBRANCH  23  25
ENDBRANCH   8  18
BRANCH   1  39
ATOM     37  C   UNL     1      -1.460   1.710   0.000  0.00  0.00    +0.000 C 
ATOM     38  N   UNL     1      -1.205   0.926   0.000  0.00  0.00    +0.000 NA
ATOM     39  C   UNL     1      -0.398   0.754   0.000  0.00  0.00    +0.000 C 
ATOM     40  O   UNL     1       0.154   1.367   0.000  0.00  0.00    +0.000 OA
ENDBRANCH   1  39
TORSDOF 6
