REMARK  Name = 
REMARK  24 active torsions:
REMARK  status: ('A' for Active; 'I' for Inactive)
REMARK    1  A    between atoms: O_3  and  C_4
REMARK    2  A    between atoms: O_3  and  N_28
REMARK    3  A    between atoms: C_4  and  C_35
REMARK    4  A    between atoms: C_5  and  C_10
REMARK    5  A    between atoms: C_9  and  C_10
REMARK    6  A    between atoms: CA_12  and  C_21
REMARK    7  A    between atoms: C_13  and  C_20
REMARK    8  A    between atoms: CA_18  and  N_26
REMARK    9  A    between atoms: C_20  and  N_29
REMARK   10  A    between atoms: C_35  and  C_36
REMARK   11  A    between atoms: C_36  and  N_37
REMARK   12  A    between atoms: C_40  and  C_131
REMARK   13  A    between atoms: C_51  and  N_64
REMARK   14  A    between atoms: C_53  and  O_89
REMARK   15  A    between atoms: C_54  and  O_70
REMARK   16  A    between atoms: C_60  and  O_70
REMARK   17  A    between atoms: C_76  and  C_86
REMARK   18  A    between atoms: C_77  and  O_89
REMARK   19  A    between atoms: C_78  and  C_100
REMARK   20  A    between atoms: C_79  and  C_122
REMARK   21  A    between atoms: C_86  and  C_97
REMARK   22  A    between atoms: C_100  and  C_111
REMARK   23  A    between atoms: C_100  and  N_116
REMARK   24  A    between atoms: C_111  and  C_126
REMARK                            x       y       z     vdW  Elec       q    Type
REMARK                         _______ _______ _______ _____ _____    ______ ____
ROOT
ATOM      1  C   UNL     1      -1.331  -5.379   0.000  0.00  0.00    +0.000 A 
ATOM      2  C   UNL     1      -2.040  -4.958   0.000  0.00  0.00    +0.000 A 
ATOM      3  C   UNL     1      -2.044  -4.129   0.000  0.00  0.00    +0.000 C 
ATOM      4  C   UNL     1      -1.331  -6.200   0.000  0.00  0.00    +0.000 A 
ATOM      5  C   UNL     1      -2.044  -6.608   0.000  0.00  0.00    +0.000 A 
ATOM      6  C   UNL     1      -2.756  -5.367   0.000  0.00  0.00    +0.000 A 
ATOM      7  C   UNL     1      -2.761  -6.192   0.000  0.00  0.00    +0.000 A 
ATOM      8  O   UNL     1      -0.619  -6.613   0.000  0.00  0.00    +0.000 OA
ATOM      9  O   UNL     1      -3.477  -6.600   0.000  0.00  0.00    +0.000 OA
ATOM     10  N   UNL     1      -1.340  -3.713   0.000  0.00  0.00    +0.000 NA
ATOM     11  C   UNL     1      -1.348  -2.121   0.000  0.00  0.00    +0.000 C 
ATOM     12  C   UNL     1      -0.640  -1.708   0.000  0.00  0.00    +0.000 C 
ATOM     13  O   UNL     1      -2.060  -1.714   0.000  0.00  0.00    +0.000 OA
ATOM     14  C   UNL     1       7.914  -1.683   0.000  0.00  0.00    +0.000 C 
ATOM     15  N   UNL     1       0.077  -2.121   0.000  0.00  0.00    +0.000 NA
ATOM     16  N   UNL     1       2.214  -1.700   0.000  0.00  0.00    +0.000 NA
ATOM     17  N   UNL     1       4.352  -2.108   0.000  0.00  0.00    +0.000 NA
ATOM     18  C   UNL     1       7.202  -2.100   0.000  0.00  0.00    +0.000 C 
ATOM     19  C   UNL     1       0.789  -1.700   0.000  0.00  0.00    +0.000 C 
ATOM     20  C   UNL     1       2.927  -2.112   0.000  0.00  0.00    +0.000 C 
ATOM     21  C   UNL     1       3.652   1.363   0.000  0.00  0.00    +0.000 A 
ATOM     22  N   UNL     1       6.489  -1.688   0.000  0.00  0.00    +0.000 NA
ATOM     23  C   UNL     1       3.639  -1.696   0.000  0.00  0.00    +0.000 C 
ATOM     24  C   UNL     1       2.939   0.950   0.000  0.00  0.00    +0.000 A 
ATOM     25  C   UNL     1       4.360   0.954   0.000  0.00  0.00    +0.000 A 
ATOM     26  C   UNL     1       5.064  -1.688   0.000  0.00  0.00    +0.000 C 
ATOM     27  C   UNL     1       1.502  -2.112   0.000  0.00  0.00    +0.000 C 
ATOM     28  C   UNL     1       3.648  -0.283   0.000  0.00  0.00    +0.000 A 
ATOM     29  O   UNL     1       2.227   1.363   0.000  0.00  0.00    +0.000 OA
ATOM     30  O   UNL     1       5.073   1.375   0.000  0.00  0.00    +0.000 OA
ATOM     31  C   UNL     1       5.777  -2.100   0.000  0.00  0.00    +0.000 C 
ATOM     32  C   UNL     1      -0.627  -0.287   0.000  0.00  0.00    +0.000 C 
ATOM     33  C   UNL     1       7.914  -0.275   0.000  0.00  0.00    +0.000 C 
ATOM     34  C   UNL     1       1.502  -2.938   0.000  0.00  0.00    +0.000 A 
ATOM     35  C   UNL     1       0.089   0.117   0.000  0.00  0.00    +0.000 A 
ATOM     36  C   UNL     1       7.206   0.133   0.000  0.00  0.00    +0.000 A 
ATOM     37  C   UNL     1       4.364   0.125   0.000  0.00  0.00    +0.000 A 
ATOM     38  C   UNL     1       2.939   0.129   0.000  0.00  0.00    +0.000 A 
ATOM     39  C   UNL     1       1.518   0.946   0.000  0.00  0.00    +0.000 A 
ATOM     40  C   UNL     1       5.785   0.963   0.000  0.00  0.00    +0.000 A 
ATOM     41  C   UNL     1       6.493   1.371   0.000  0.00  0.00    +0.000 A 
ATOM     42  C   UNL     1       0.802   1.358   0.000  0.00  0.00    +0.000 A 
ATOM     43  C   UNL     1       7.202   0.963   0.000  0.00  0.00    +0.000 A 
ATOM     44  C   UNL     1       0.089   0.942   0.000  0.00  0.00    +0.000 A 
ATOM     45  O   UNL     1       7.202  -2.925   0.000  0.00  0.00    +0.000 OA
ATOM     46  O   UNL     1       2.927  -2.938   0.000  0.00  0.00    +0.000 OA
ATOM     47  O   UNL     1       0.789  -0.875   0.000  0.00  0.00    +0.000 OA
ATOM     48  O   UNL     1       5.064  -0.863   0.000  0.00  0.00    +0.000 OA
ATOM     49  C   UNL     1       0.802  -0.296   0.000  0.00  0.00    +0.000 A 
ATOM     50  C   UNL     1       6.489  -0.275   0.000  0.00  0.00    +0.000 A 
ATOM     51  C   UNL     1       1.518   0.117   0.000  0.00  0.00    +0.000 A 
ATOM     52  C   UNL     1       5.781   0.138   0.000  0.00  0.00    +0.000 A 
ATOM     53 CL   UNL     1       0.797   2.188   0.000  0.00  0.00    +0.000 Cl
ATOM     54  O   UNL     1      -1.348   0.125   0.000  0.00  0.00    +0.000 OA
ATOM     55 CL   UNL     1       6.489   2.200   0.000  0.00  0.00    +0.000 Cl
ATOM     56  O   UNL     1       8.627   0.138   0.000  0.00  0.00    +0.000 OA
ATOM     57  C   UNL     1       0.785  -3.348   0.000  0.00  0.00    +0.000 A 
ATOM     58  C   UNL     1       0.785  -4.172   0.000  0.00  0.00    +0.000 A 
ATOM     59  C   UNL     1       1.500  -4.586   0.000  0.00  0.00    +0.000 A 
ATOM     60  C   UNL     1       2.217  -4.169   0.000  0.00  0.00    +0.000 A 
ATOM     61  C   UNL     1       2.213  -3.346   0.000  0.00  0.00    +0.000 A 
ATOM     62  O   UNL     1       1.501  -5.412   0.000  0.00  0.00    +0.000 OA
ENDROOT
BRANCH  14  63
ATOM     63  N   UNL     1       8.627  -2.096   0.000  0.00  0.00    +0.000 NA
ATOM     64  C   UNL     1       9.339  -1.675   0.000  0.00  0.00    +0.000 C 
ATOM     65  O   UNL     1       9.339  -0.850   0.000  0.00  0.00    +0.000 OA
BRANCH  64  66
ATOM     66  C   UNL     1      10.052  -2.087   0.000  0.00  0.00    +0.000 C 
BRANCH  66  67
ATOM     67  N   UNL     1      10.764  -1.675   0.000  0.00  0.00    +0.000 NA
ATOM     68  C   UNL     1      11.477  -2.087   0.000  0.00  0.00    +0.000 C 
ENDBRANCH  66  67
BRANCH  66  69
ATOM     69  C   UNL     1      10.052  -2.913   0.000  0.00  0.00    +0.000 C 
BRANCH  69  70
ATOM     70  C   UNL     1      10.764  -3.325   0.000  0.00  0.00    +0.000 C 
ATOM     71  C   UNL     1      11.477  -2.913   0.000  0.00  0.00    +0.000 C 
ATOM     72  C   UNL     1      10.760  -4.150   0.000  0.00  0.00    +0.000 C 
ENDBRANCH  69  70
ENDBRANCH  66  69
ENDBRANCH  64  66
ENDBRANCH  14  63
BRANCH   3  74
ATOM     73  N   UNL     1      -3.473  -4.142   0.000  0.00  0.00    +0.000 NA
ATOM     74  C   UNL     1      -2.765  -3.725   0.000  0.00  0.00    +0.000 C 
ATOM     75  O   UNL     1      -2.773  -2.903   0.000  0.00  0.00    +0.000 OA
BRANCH  73  76
ATOM     76  C   UNL     1      -4.190  -3.737   0.000  0.00  0.00    +0.000 C 
BRANCH  76  77
ATOM     77  C   UNL     1      -4.207  -1.967   0.000  0.00  0.00    +0.000 C 
BRANCH  77  78
ATOM     78  C   UNL     1      -4.923  -1.562   0.000  0.00  0.00    +0.000 C 
BRANCH  78  79
ATOM     79  O   UNL     1      -4.927  -0.738   0.000  0.00  0.00    +0.000 OA
BRANCH  79  81
ATOM     80  C   UNL     1      -4.219   0.504   0.000  0.00  0.00    +0.000 C 
ATOM     81  N   UNL     1      -4.215  -0.321   0.000  0.00  0.00    +0.000 NA
BRANCH  80  84
ATOM     82  C   UNL     1      -3.506   1.738   0.000  0.00  0.00    +0.000 A 
ATOM     83 CL   UNL     1      -4.223   2.150   0.000  0.00  0.00    +0.000 Cl
ATOM     84  C   UNL     1      -3.502   0.916   0.000  0.00  0.00    +0.000 A 
ATOM     85  N   UNL     1      -2.716   0.665   0.000  0.00  0.00    +0.000 NA
ATOM     86  C   UNL     1      -2.235   1.335   0.000  0.00  0.00    +0.000 A 
ATOM     87  S   UNL     1      -2.723   2.000   0.000  0.00  0.00    +0.000 S 
ATOM     88  N   UNL     1      -1.407   1.329   0.000  0.00  0.00    +0.000 NA
ENDBRANCH  80  84
BRANCH  80  89
ATOM     89  C   UNL     1      -4.936   0.912   0.000  0.00  0.00    +0.000 C 
ATOM     90  O   UNL     1      -4.931   1.738   0.000  0.00  0.00    +0.000 OA
ATOM     91  N   UNL     1      -5.652   0.504   0.000  0.00  0.00    +0.000 NA
BRANCH  91  98
ATOM     92  CA  UNL     1      -7.914   2.158   0.000  0.00  0.00    +0.000 C 
ATOM     93  C   UNL     1      -8.626   1.750   0.000  0.00  0.00    +0.000 C 
ATOM     94  C   UNL     1      -8.626   0.925   0.000  0.00  0.00    +0.000 C 
ATOM     95  S   UNL     1      -7.914   0.508   0.000  0.00  0.00    +0.000 S 
ATOM     96  N   UNL     1      -7.202   1.750   0.000  0.00  0.00    +0.000 N 
ATOM     97  C   UNL     1      -7.202   0.920   0.000  0.00  0.00    +0.000 C 
ATOM     98  CA  UNL     1      -6.373   0.920   0.000  0.00  0.00    +0.000 C 
ATOM     99  C   UNL     1      -6.373   1.750   0.000  0.00  0.00    +0.000 C 
ATOM    100  O   UNL     1      -5.782   2.329   0.000  0.00  0.00    +0.000 OA
BRANCH  92 101
ATOM    101  C   UNL     1      -7.907   2.983   0.000  0.00  0.00    +0.000 C 
ATOM    102  O   UNL     1      -7.190   3.392   0.000  0.00  0.00    +0.000 OA
ATOM    103  OXT UNL     1      -8.619   3.396   0.000  0.00  0.00    +0.000 OA
ENDBRANCH  92 101
BRANCH  93 104
ATOM    104  C   UNL     1      -9.336   2.163   0.000  0.00  0.00    +0.000 C 
BRANCH 104 105
ATOM    105  N   UNL     1     -10.048   1.746   0.000  0.00  0.00    +0.000 N 
ATOM    106  C   UNL     1     -11.473   0.915   0.000  0.00  0.00    +0.000 A 
ATOM    107  C   UNL     1     -10.751   0.507   0.000  0.00  0.00    +0.000 A 
ATOM    108  C   UNL     1     -10.042   0.925   0.000  0.00  0.00    +0.000 A 
ATOM    109  C   UNL     1     -11.477   1.742   0.000  0.00  0.00    +0.000 A 
ATOM    110  C   UNL     1     -10.767   2.161   0.000  0.00  0.00    +0.000 A 
ENDBRANCH 104 105
ENDBRANCH  93 104
ENDBRANCH  91  98
ENDBRANCH  80  89
ENDBRANCH  79  81
ENDBRANCH  78  79
ENDBRANCH  77  78
ENDBRANCH  76  77
ENDBRANCH  73  76
ENDBRANCH   3  74
BRANCH  31 111
ATOM    111  C   UNL     1       5.777  -3.283   0.000  0.00  0.00    +0.000 C 
BRANCH 111 112
ATOM    112  C   UNL     1       5.060  -3.688   0.000  0.00  0.00    +0.000 C 
ATOM    113  O   UNL     1       5.052  -4.513   0.000  0.00  0.00    +0.000 OA
ATOM    114  N   UNL     1       4.339  -3.275   0.000  0.00  0.00    +0.000 NA
ENDBRANCH 111 112
ENDBRANCH  31 111
BRANCH  21 115
ATOM    115  O   UNL     1       3.648   2.188   0.000  0.00  0.00    +0.000 OA
BRANCH 115 117
ATOM    116  C   UNL     1       3.660   3.621   0.000  0.00  0.00    +0.000 C 
ATOM    117  C   UNL     1       4.068   2.900   0.000  0.00  0.00    +0.000 C 
ATOM    118  C   UNL     1       4.081   4.338   0.000  0.00  0.00    +0.000 C 
ATOM    119  O   UNL     1       4.893   2.896   0.000  0.00  0.00    +0.000 OA
ATOM    120  C   UNL     1       4.910   4.325   0.000  0.00  0.00    +0.000 C 
ATOM    121  C   UNL     1       5.314   3.604   0.000  0.00  0.00    +0.000 C 
ATOM    122  O   UNL     1       3.673   5.054   0.000  0.00  0.00    +0.000 OA
ATOM    123  O   UNL     1       5.327   5.037   0.000  0.00  0.00    +0.000 OA
BRANCH 121 124
ATOM    124  C   UNL     1       6.139   3.600   0.000  0.00  0.00    +0.000 C 
ATOM    125  O   UNL     1       6.427   4.375   0.000  0.00  0.00    +0.000 OA
ENDBRANCH 121 124
BRANCH 116 126
ATOM    126  O   UNL     1       2.831   3.629   0.000  0.00  0.00    +0.000 OA
BRANCH 126 128
ATOM    127  C   UNL     1       2.410   5.788   0.000  0.00  0.00    +0.000 C 
ATOM    128  C   UNL     1       2.414   4.350   0.000  0.00  0.00    +0.000 C 
ATOM    129  C   UNL     1       2.827   5.071   0.000  0.00  0.00    +0.000 C 
ATOM    130  O   UNL     1       1.581   4.342   0.000  0.00  0.00    +0.000 OA
ATOM    131  C   UNL     1       1.577   5.784   0.000  0.00  0.00    +0.000 C 
ATOM    132  C   UNL     1       1.164   5.063   0.000  0.00  0.00    +0.000 C 
ATOM    133  N   UNL     1       2.402   6.613   0.000  0.00  0.00    +0.000 NA
ATOM    134  O   UNL     1       1.160   6.500   0.000  0.00  0.00    +0.000 OA
ATOM    135  C   UNL     1       3.235   5.788   0.000  0.00  0.00    +0.000 C 
ATOM    136  C   UNL     1       0.339   5.067   0.000  0.00  0.00    +0.000 C 
ENDBRANCH 126 128
ENDBRANCH 116 126
ENDBRANCH 115 117
ENDBRANCH  21 115
TORSDOF 24
