REMARK  Name = 
REMARK  29 active torsions:
REMARK  status: ('A' for Active; 'I' for Inactive)
REMARK    1  A    between atoms: C_2  and  C_3
REMARK    2  A    between atoms: C_3  and  C_5
REMARK    3  A    between atoms: C_5  and  N_6
REMARK    4  A    between atoms: C_5  and  C_19
REMARK    5  A    between atoms: C_7  and  C_9
REMARK    6  A    between atoms: C_9  and  C_11
REMARK    7  A    between atoms: C_11  and  C_12
REMARK    8  A    between atoms: N_21  and  C_22
REMARK    9  A    between atoms: C_27  and  C_115
REMARK   10  A    between atoms: C_31  and  C_32
REMARK   11  A    between atoms: C_32  and  C_33
REMARK   12  A    between atoms: C_33  and  C_34
REMARK   13  A    between atoms: C_34  and  N_35
REMARK   14  A    between atoms: C_42  and  C_43
REMARK   15  A    between atoms: C_43  and  C_44
REMARK   16  A    between atoms: C_62  and  C_63
REMARK   17  A    between atoms: C_63  and  C_64
REMARK   18  A    between atoms: C_76  and  C_77
REMARK   19  A    between atoms: C_77  and  C_78
REMARK   20  A    between atoms: C_84  and  C_85
REMARK   21  A    between atoms: C_85  and  C_86
REMARK   22  A    between atoms: C_86  and  C_87
REMARK   23  A    between atoms: C_93  and  C_94
REMARK   24  A    between atoms: C_94  and  C_95
REMARK   25  A    between atoms: C_108  and  C_112
REMARK   26  A    between atoms: N_117  and  C_119
REMARK   27  A    between atoms: C_119  and  C_120
REMARK   28  A    between atoms: C_119  and  C_124
REMARK   29  A    between atoms: C_120  and  C_122
REMARK                            x       y       z     vdW  Elec       q    Type
REMARK                         _______ _______ _______ _____ _____    ______ ____
ROOT
ATOM      1  C   UNL     1       3.795  -8.668   0.000  0.00  0.00    +0.000 C 
ATOM      2  C   UNL     1       3.311  -9.335   0.000  0.00  0.00    +0.000 C 
ATOM      3  S   UNL     1       2.526  -9.080   0.000  0.00  0.00    +0.000 S 
ATOM      4  S   UNL     1       2.526  -8.255   0.000  0.00  0.00    +0.000 S 
ATOM      5  C   UNL     1       1.952  -7.559   0.000  0.00  0.00    +0.000 C 
ATOM      6  C   UNL     1       2.207  -6.774   0.000  0.00  0.00    +0.000 C 
ATOM      7  N   UNL     1       1.654  -6.161   0.000  0.00  0.00    +0.000 NA
ATOM      8  C   UNL     1       1.909  -5.377   0.000  0.00  0.00    +0.000 C 
ATOM      9  O   UNL     1       2.716  -5.205   0.000  0.00  0.00    +0.000 OA
ATOM     10  C   UNL     1       1.357  -4.763   0.000  0.00  0.00    +0.000 C 
ATOM     11  N   UNL     1       1.612  -3.979   0.000  0.00  0.00    +0.000 NA
ATOM     12  C   UNL     1       1.060  -3.366   0.000  0.00  0.00    +0.000 C 
ATOM     13  O   UNL     1       0.253  -3.537   0.000  0.00  0.00    +0.000 OA
ATOM     14  C   UNL     1       1.315  -2.581   0.000  0.00  0.00    +0.000 C 
ATOM     15  N   UNL     1       0.763  -1.968   0.000  0.00  0.00    +0.000 NA
ATOM     16  C   UNL     1       1.018  -1.183   0.000  0.00  0.00    +0.000 C 
ATOM     17  O   UNL     1       1.825  -1.012   0.000  0.00  0.00    +0.000 OA
ATOM     18  C   UNL     1       0.466  -0.570   0.000  0.00  0.00    +0.000 C 
ATOM     19  C   UNL     1      -0.341  -0.742   0.000  0.00  0.00    +0.000 C 
ATOM     20  N   UNL     1       0.721   0.214   0.000  0.00  0.00    +0.000 NA
ATOM     21  C   UNL     1       0.169   0.827   0.000  0.00  0.00    +0.000 C 
ATOM     22  O   UNL     1      -0.638   0.656   0.000  0.00  0.00    +0.000 OA
ATOM     23  C   UNL     1       0.424   1.612   0.000  0.00  0.00    +0.000 C 
ATOM     24  N   UNL     1       1.231   1.784   0.000  0.00  0.00    +0.000 N 
ATOM     25  C   UNL     1       1.486   2.568   0.000  0.00  0.00    +0.000 C 
ATOM     26  C   UNL     1       1.783   1.171   0.000  0.00  0.00    +0.000 C 
ATOM     27  O   UNL     1       1.528   0.386   0.000  0.00  0.00    +0.000 OA
ATOM     28  C   UNL     1       2.590   1.342   0.000  0.00  0.00    +0.000 C 
ATOM     29  N   UNL     1       3.142   0.729   0.000  0.00  0.00    +0.000 NA
ATOM     30  C   UNL     1       2.887  -0.056   0.000  0.00  0.00    +0.000 C 
ATOM     31  O   UNL     1       2.080  -0.227   0.000  0.00  0.00    +0.000 OA
ATOM     32  C   UNL     1       3.439  -0.669   0.000  0.00  0.00    +0.000 C 
ATOM     33  N   UNL     1       3.184  -1.454   0.000  0.00  0.00    +0.000 NA
ATOM     34  C   UNL     1       3.736  -2.067   0.000  0.00  0.00    +0.000 C 
ATOM     35  O   UNL     1       4.543  -1.895   0.000  0.00  0.00    +0.000 OA
ATOM     36  C   UNL     1       3.481  -2.851   0.000  0.00  0.00    +0.000 C 
ATOM     37  N   UNL     1       4.033  -3.464   0.000  0.00  0.00    +0.000 NA
ATOM     38  C   UNL     1       3.778  -4.249   0.000  0.00  0.00    +0.000 C 
ATOM     39  O   UNL     1       2.971  -4.420   0.000  0.00  0.00    +0.000 OA
ATOM     40  C   UNL     1       4.330  -4.862   0.000  0.00  0.00    +0.000 C 
ATOM     41  N   UNL     1       4.075  -5.647   0.000  0.00  0.00    +0.000 NA
ATOM     42  C   UNL     1       4.627  -6.260   0.000  0.00  0.00    +0.000 C 
ATOM     43  O   UNL     1       5.434  -6.088   0.000  0.00  0.00    +0.000 OA
ATOM     44  C   UNL     1       4.372  -7.044   0.000  0.00  0.00    +0.000 C 
ATOM     45  N   UNL     1       4.925  -7.657   0.000  0.00  0.00    +0.000 NA
ATOM     46  C   UNL     1       4.670  -8.442   0.000  0.00  0.00    +0.000 C 
ATOM     47  O   UNL     1       5.235  -9.043   0.000  0.00  0.00    +0.000 OA
ENDROOT
BRANCH   6  48
ATOM     48  C   UNL     1       1.399  -6.946   0.000  0.00  0.00    +0.000 C 
ATOM     49  O   UNL     1       1.145  -7.730   0.000  0.00  0.00    +0.000 OA
ATOM     50  N   UNL     1       0.848  -6.333   0.000  0.00  0.00    +0.000 N 
ATOM     51  C   UNL     1       1.102  -5.548   0.000  0.00  0.00    +0.000 C 
BRANCH  50  52
ATOM     52  C   UNL     1       0.041  -6.504   0.000  0.00  0.00    +0.000 C 
BRANCH  52  53
ATOM     53  C   UNL     1      -0.214  -7.289   0.000  0.00  0.00    +0.000 C 
ATOM     54  N   UNL     1      -1.021  -7.460   0.000  0.00  0.00    +0.000 NA
ATOM     55  O   UNL     1       0.338  -7.902   0.000  0.00  0.00    +0.000 OA
ENDBRANCH  52  53
BRANCH  52  56
ATOM     56  C   UNL     1      -0.511  -5.891   0.000  0.00  0.00    +0.000 C 
ATOM     57  C   UNL     1      -0.257  -5.106   0.000  0.00  0.00    +0.000 C 
BRANCH  56  58
ATOM     58  C   UNL     1      -1.319  -6.063   0.000  0.00  0.00    +0.000 C 
ATOM     59  C   UNL     1      -1.871  -5.450   0.000  0.00  0.00    +0.000 C 
ENDBRANCH  56  58
ENDBRANCH  52  56
ENDBRANCH  50  52
ENDBRANCH   6  48
BRANCH   1  62
ATOM     60  C   UNL     1       3.901 -10.093   0.000  0.00  0.00    +0.000 C 
ATOM     61  O   UNL     1       3.079 -10.154   0.000  0.00  0.00    +0.000 OA
ATOM     62  N   UNL     1       4.260  -9.350   0.000  0.00  0.00    +0.000 NA
BRANCH  60  63
ATOM     63  C   UNL     1       4.365 -10.775   0.000  0.00  0.00    +0.000 C 
BRANCH  63  64
ATOM     64  N   UNL     1       4.007 -11.518   0.000  0.00  0.00    +0.000 NA
ATOM     65  C   UNL     1       4.471 -12.200   0.000  0.00  0.00    +0.000 C 
ATOM     66  O   UNL     1       5.294 -12.139   0.000  0.00  0.00    +0.000 OA
BRANCH  65  67
ATOM     67  C   UNL     1       4.113 -12.943   0.000  0.00  0.00    +0.000 C 
ATOM     68  N   UNL     1       3.290 -13.004   0.000  0.00  0.00    +0.000 NA
BRANCH  67  69
ATOM     69  C   UNL     1       4.577 -13.625   0.000  0.00  0.00    +0.000 C 
BRANCH  69  70
ATOM     70  C   UNL     1       4.218 -14.368   0.000  0.00  0.00    +0.000 A 
ATOM     71  C   UNL     1       4.683 -15.050   0.000  0.00  0.00    +0.000 A 
ATOM     72  C   UNL     1       4.324 -15.793   0.000  0.00  0.00    +0.000 A 
ATOM     73  C   UNL     1       3.502 -15.854   0.000  0.00  0.00    +0.000 A 
ATOM     74  O   UNL     1       3.143 -16.597   0.000  0.00  0.00    +0.000 OA
ATOM     75  C   UNL     1       3.037 -15.172   0.000  0.00  0.00    +0.000 A 
ATOM     76  C   UNL     1       3.396 -14.429   0.000  0.00  0.00    +0.000 A 
ENDBRANCH  69  70
ENDBRANCH  67  69
ENDBRANCH  65  67
ENDBRANCH  63  64
BRANCH  63  77
ATOM     77  C   UNL     1       5.188 -10.714   0.000  0.00  0.00    +0.000 C 
ATOM     78  C   UNL     1       5.547  -9.971   0.000  0.00  0.00    +0.000 C 
BRANCH  77  80
ATOM     79  C   UNL     1       6.475 -11.335   0.000  0.00  0.00    +0.000 C 
ATOM     80  C   UNL     1       5.652 -11.396   0.000  0.00  0.00    +0.000 C 
ENDBRANCH  77  80
ENDBRANCH  63  77
ENDBRANCH  60  63
ENDBRANCH   1  62
BRANCH  44  81
ATOM     81  C   UNL     1       5.179  -6.873   0.000  0.00  0.00    +0.000 C 
ATOM     82  C   UNL     1       5.731  -7.486   0.000  0.00  0.00    +0.000 C 
ATOM     83  C   UNL     1       5.847  -6.388   0.000  0.00  0.00    +0.000 C 
ENDBRANCH  44  81
BRANCH  10  84
ATOM     84  C   UNL     1       0.550  -4.935   0.000  0.00  0.00    +0.000 C 
BRANCH  84  85
ATOM     85  C   UNL     1      -0.002  -4.322   0.000  0.00  0.00    +0.000 C 
BRANCH  85  86
ATOM     86  C   UNL     1      -0.809  -4.493   0.000  0.00  0.00    +0.000 C 
BRANCH  86  87
ATOM     87  N   UNL     1      -1.361  -3.880   0.000  0.00  0.00    +0.000 NA
ATOM     88  C   UNL     1      -2.168  -4.052   0.000  0.00  0.00    +0.000 C 
ATOM     89  N   UNL     1      -2.720  -3.439   0.000  0.00  0.00    +0.000 NA
ATOM     90  N   UNL     1      -2.423  -4.837   0.000  0.00  0.00    +0.000 NA
ENDBRANCH  86  87
ENDBRANCH  85  86
ENDBRANCH  84  85
ENDBRANCH  10  84
BRANCH  36  91
ATOM     91  C   UNL     1       4.288  -2.680   0.000  0.00  0.00    +0.000 C 
BRANCH  91  92
ATOM     92  C   UNL     1       4.713  -3.488   0.000  0.00  0.00    +0.000 C 
BRANCH  92  93
ATOM     93  C   UNL     1       5.647  -3.121   0.000  0.00  0.00    +0.000 C 
ATOM     94  N   UNL     1       6.395  -3.861   0.000  0.00  0.00    +0.000 NA
ATOM     95  O   UNL     1       5.902  -2.337   0.000  0.00  0.00    +0.000 OA
ENDBRANCH  92  93
ENDBRANCH  91  92
ENDBRANCH  36  91
BRANCH  40  96
ATOM     96  C   UNL     1       5.137  -4.691   0.000  0.00  0.00    +0.000 C 
BRANCH  96  97
ATOM     97  C   UNL     1       5.392  -3.906   0.000  0.00  0.00    +0.000 A 
ATOM     98  C   UNL     1       4.907  -3.238   0.000  0.00  0.00    +0.000 A 
ATOM     99  N   UNL     1       5.392  -2.571   0.000  0.00  0.00    +0.000 N 
ATOM    100  C   UNL     1       5.137  -1.786   0.000  0.00  0.00    +0.000 C 
ATOM    101  C   UNL     1       6.177  -2.826   0.000  0.00  0.00    +0.000 A 
ATOM    102  C   UNL     1       6.177  -3.651   0.000  0.00  0.00    +0.000 A 
ATOM    103  C   UNL     1       6.891  -4.063   0.000  0.00  0.00    +0.000 A 
ATOM    104  C   UNL     1       7.606  -3.651   0.000  0.00  0.00    +0.000 A 
ATOM    105  C   UNL     1       7.606  -2.826   0.000  0.00  0.00    +0.000 A 
ATOM    106  C   UNL     1       6.891  -2.413   0.000  0.00  0.00    +0.000 A 
ENDBRANCH  96  97
ENDBRANCH  40  96
BRANCH  32 107
ATOM    107  C   UNL     1       4.246  -0.497   0.000  0.00  0.00    +0.000 C 
BRANCH 107 108
ATOM    108  C   UNL     1       4.501   0.287   0.000  0.00  0.00    +0.000 C 
ATOM    109  O   UNL     1       3.949   0.900   0.000  0.00  0.00    +0.000 OA
ATOM    110  O   UNL     1       5.308   0.459   0.000  0.00  0.00    +0.000 OA
ENDBRANCH 107 108
ENDBRANCH  32 107
BRANCH  14 111
ATOM    111  C   UNL     1       0.508  -2.753   0.000  0.00  0.00    +0.000 C 
BRANCH 111 112
ATOM    112  C   UNL     1      -0.044  -2.140   0.000  0.00  0.00    +0.000 A 
ATOM    113  C   UNL     1       0.128  -1.333   0.000  0.00  0.00    +0.000 A 
ATOM    114  N   UNL     1      -0.587  -0.920   0.000  0.00  0.00    +0.000 NA
ATOM    115  C   UNL     1      -1.200  -1.472   0.000  0.00  0.00    +0.000 A 
ATOM    116  N   UNL     1      -0.864  -2.226   0.000  0.00  0.00    +0.000 NA
ENDBRANCH 111 112
ENDBRANCH  14 111
BRANCH  28 117
ATOM    117  C   UNL     1       2.845   2.127   0.000  0.00  0.00    +0.000 C 
BRANCH 117 118
ATOM    118  C   UNL     1       3.652   2.298   0.000  0.00  0.00    +0.000 A 
ATOM    119  C   UNL     1       4.265   1.746   0.000  0.00  0.00    +0.000 A 
ATOM    120  N   UNL     1       4.979   2.159   0.000  0.00  0.00    +0.000 NA
ATOM    121  C   UNL     1       4.808   2.966   0.000  0.00  0.00    +0.000 A 
ATOM    122  C   UNL     1       3.987   3.052   0.000  0.00  0.00    +0.000 A 
ATOM    123  C   UNL     1       3.652   3.805   0.000  0.00  0.00    +0.000 A 
ATOM    124  C   UNL     1       4.137   4.473   0.000  0.00  0.00    +0.000 A 
ATOM    125  C   UNL     1       4.957   4.387   0.000  0.00  0.00    +0.000 A 
ATOM    126  C   UNL     1       5.293   3.633   0.000  0.00  0.00    +0.000 A 
ENDBRANCH 117 118
ENDBRANCH  28 117
TORSDOF 29
