REMARK  Name = 
REMARK  4 active torsions:
REMARK  status: ('A' for Active; 'I' for Inactive)
REMARK    1  A    between atoms: C_4  and  C_13
REMARK    2  A    between atoms: C_9  and  O_11
REMARK    3  A    between atoms: C_13  and  C_14
REMARK    4  A    between atoms: C_14  and  N_15
REMARK                            x       y       z     vdW  Elec       q    Type
REMARK                         _______ _______ _______ _____ _____    ______ ____
ROOT
ATOM      1  C   UNL     1       1.222  -2.137   0.000  0.00  0.00    +0.000 A 
ATOM      2  C   UNL     1       2.050  -2.145   0.000  0.00  0.00    +0.000 A 
ATOM      3  C   UNL     1       2.469  -1.434   0.000  0.00  0.00    +0.000 A 
ATOM      4  C   UNL     1       0.816  -1.421   0.000  0.00  0.00    +0.000 A 
ATOM      5  C   UNL     1       1.231  -0.710   0.000  0.00  0.00    +0.000 A 
ATOM      6  C   UNL     1       2.058  -0.716   0.000  0.00  0.00    +0.000 A 
ATOM      7  C   UNL     1       2.475  -0.004   0.000  0.00  0.00    +0.000 A 
ATOM      8  C   UNL     1       2.067   0.714   0.000  0.00  0.00    +0.000 A 
ATOM      9  C   UNL     1       1.237   0.716   0.000  0.00  0.00    +0.000 A 
ATOM     10  C   UNL     1       0.824   0.004   0.000  0.00  0.00    +0.000 A 
ENDROOT
BRANCH   9  11
ATOM     11  O   UNL     1       0.826   1.432   0.000  0.00  0.00    +0.000 OA
ATOM     12  C   UNL     1       1.241   2.145   0.000  0.00  0.00    +0.000 C 
ENDBRANCH   9  11
BRANCH   4  13
ATOM     13  C   UNL     1      -0.009  -1.417   0.000  0.00  0.00    +0.000 C 
BRANCH  13  14
ATOM     14  C   UNL     1      -0.417  -0.700   0.000  0.00  0.00    +0.000 C 
BRANCH  14  15
ATOM     15  N   UNL     1      -1.242  -0.695   0.000  0.00  0.00    +0.000 NA
ATOM     16  C   UNL     1      -1.650   0.021   0.000  0.00  0.00    +0.000 C 
ATOM     17  C   UNL     1      -2.475   0.026   0.000  0.00  0.00    +0.000 C 
ATOM     18  O   UNL     1      -1.234   0.733   0.000  0.00  0.00    +0.000 OA
ENDBRANCH  14  15
ENDBRANCH  13  14
ENDBRANCH   4  13
TORSDOF 4
