REMARK  Name = 
REMARK  6 active torsions:
REMARK  status: ('A' for Active; 'I' for Inactive)
REMARK    1  A    between atoms: S_1  and  C_7
REMARK    2  A    between atoms: C_4  and  C_10
REMARK    3  A    between atoms: C_10  and  C_11
REMARK    4  A    between atoms: C_11  and  N_12
REMARK    5  A    between atoms: C_11  and  C_13
REMARK    6  A    between atoms: C_15  and  C_16
REMARK                            x       y       z     vdW  Elec       q    Type
REMARK                         _______ _______ _______ _____ _____    ______ ____
ROOT
ATOM      1  C   UNL     1       0.000   0.770   0.000  0.00  0.00    +0.000 C 
ATOM      2  O   UNL     1       0.000   1.595   0.000  0.00  0.00    +0.000 OA
ENDROOT
BRANCH   1   3
ATOM      3  C   UNL     1      -0.714   0.357   0.000  0.00  0.00    +0.000 A 
ATOM      4  C   UNL     1      -0.714  -0.468   0.000  0.00  0.00    +0.000 A 
ATOM      5  C   UNL     1      -1.429  -0.880   0.000  0.00  0.00    +0.000 A 
ATOM      6  C   UNL     1      -2.143  -0.468   0.000  0.00  0.00    +0.000 A 
ATOM      7  C   UNL     1      -2.143   0.357   0.000  0.00  0.00    +0.000 A 
ATOM      8  C   UNL     1      -1.429   0.770   0.000  0.00  0.00    +0.000 A 
BRANCH   6   9
ATOM      9  S   UNL     1      -2.858  -0.880   0.000  0.00  0.00    +0.000 S 
ATOM     10  O   UNL     1      -2.445  -1.595   0.000  0.00  0.00    +0.000 OA
ATOM     11  O   UNL     1      -3.270  -1.595   0.000  0.00  0.00    +0.000 OA
ATOM     12  C   UNL     1      -3.572  -0.468   0.000  0.00  0.00    +0.000 C 
ENDBRANCH   6   9
ENDBRANCH   1   3
BRANCH   1  13
ATOM     13  C   UNL     1       0.714   0.357   0.000  0.00  0.00    +0.000 C 
BRANCH  13  14
ATOM     14  N   UNL     1       1.429   0.770   0.000  0.00  0.00    +0.000 NA
ATOM     15  C   UNL     1       2.143   0.357   0.000  0.00  0.00    +0.000 C 
ATOM     16  O   UNL     1       2.143  -0.468   0.000  0.00  0.00    +0.000 OA
BRANCH  15  17
ATOM     17  C   UNL     1       2.858   0.770   0.000  0.00  0.00    +0.000 C 
ATOM     18 CL   UNL     1       3.572   0.357   0.000  0.00  0.00    +0.000 Cl
ATOM     19 CL   UNL     1       2.858   1.595   0.000  0.00  0.00    +0.000 Cl
ENDBRANCH  15  17
ENDBRANCH  13  14
BRANCH  13  20
ATOM     20  C   UNL     1       0.715  -0.468   0.000  0.00  0.00    +0.000 C 
ATOM     21  F   UNL     1       1.429  -0.880   0.000  0.00  0.00    +0.000 F 
ENDBRANCH  13  20
ENDBRANCH   1  13
TORSDOF 6
