REMARK  Name = 
REMARK  8 active torsions:
REMARK  status: ('A' for Active; 'I' for Inactive)
REMARK    1  A    between atoms: C_2  and  C_3
REMARK    2  A    between atoms: C_4  and  C_24
REMARK    3  A    between atoms: N_7  and  C_8
REMARK    4  A    between atoms: C_8  and  C_9
REMARK    5  A    between atoms: C_18  and  O_19
REMARK    6  A    between atoms: O_19  and  C_20
REMARK    7  A    between atoms: C_20  and  C_21
REMARK    8  A    between atoms: C_24  and  C_26
REMARK                            x       y       z     vdW  Elec       q    Type
REMARK                         _______ _______ _______ _____ _____    ______ ____
ROOT
ATOM      1  C   UNL     1      -0.628  -0.698   0.000  0.00  0.00    +0.000 A 
ATOM      2  C   UNL     1      -0.143  -1.365   0.000  0.00  0.00    +0.000 A 
ATOM      3  C   UNL     1       0.641  -1.110   0.000  0.00  0.00    +0.000 A 
ATOM      4  C   UNL     1       0.641  -0.285   0.000  0.00  0.00    +0.000 A 
ATOM      5  N   UNL     1      -0.143  -0.030   0.000  0.00  0.00    +0.000 N 
ATOM      6  C   UNL     1       1.356   0.127   0.000  0.00  0.00    +0.000 A 
ATOM      7  C   UNL     1       2.070  -0.285   0.000  0.00  0.00    +0.000 A 
ATOM      8  C   UNL     1       2.070  -1.110   0.000  0.00  0.00    +0.000 A 
ATOM      9  C   UNL     1       1.356  -1.523   0.000  0.00  0.00    +0.000 A 
ENDROOT
BRANCH   1  11
ATOM     10  C   UNL     1      -1.866  -1.412   0.000  0.00  0.00    +0.000 C 
ATOM     11  C   UNL     1      -1.453  -0.698   0.000  0.00  0.00    +0.000 C 
ENDBRANCH   1  11
BRANCH   2  12
ATOM     12  C   UNL     1      -0.398  -2.150   0.000  0.00  0.00    +0.000 C 
ATOM     13  O   UNL     1      -1.205  -2.321   0.000  0.00  0.00    +0.000 OA
BRANCH  12  14
ATOM     14  C   UNL     1       0.154  -2.763   0.000  0.00  0.00    +0.000 C 
ATOM     15  O   UNL     1      -0.101  -3.548   0.000  0.00  0.00    +0.000 OA
ATOM     16  N   UNL     1       0.961  -2.592   0.000  0.00  0.00    +0.000 NA
ENDBRANCH  12  14
ENDBRANCH   2  12
BRANCH   5  17
ATOM     17  C   UNL     1      -0.398   0.754   0.000  0.00  0.00    +0.000 C 
BRANCH  17  18
ATOM     18  C   UNL     1      -1.205   0.926   0.000  0.00  0.00    +0.000 A 
ATOM     19  C   UNL     1      -1.758   0.313   0.000  0.00  0.00    +0.000 A 
ATOM     20  C   UNL     1      -2.564   0.484   0.000  0.00  0.00    +0.000 A 
ATOM     21  C   UNL     1      -2.819   1.269   0.000  0.00  0.00    +0.000 A 
ATOM     22  C   UNL     1      -2.267   1.882   0.000  0.00  0.00    +0.000 A 
ATOM     23  C   UNL     1      -1.460   1.710   0.000  0.00  0.00    +0.000 A 
ENDBRANCH  17  18
ENDBRANCH   5  17
BRANCH   9  24
ATOM     24  O   UNL     1       1.356  -2.348   0.000  0.00  0.00    +0.000 OA
BRANCH  24  25
ATOM     25  C   UNL     1       2.070  -2.760   0.000  0.00  0.00    +0.000 C 
BRANCH  25  26
ATOM     26  C   UNL     1       2.070  -3.585   0.000  0.00  0.00    +0.000 C 
ATOM     27  O   UNL     1       2.784  -3.998   0.000  0.00  0.00    +0.000 OA
ATOM     28  O   UNL     1       1.356  -3.998   0.000  0.00  0.00    +0.000 OA
ENDBRANCH  25  26
ENDBRANCH  24  25
ENDBRANCH   9  24
TORSDOF 8
