REMARK  Name = 
REMARK  5 active torsions:
REMARK  status: ('A' for Active; 'I' for Inactive)
REMARK    1  A    between atoms: C_2  and  O_14
REMARK    2  A    between atoms: C_8  and  C_11
REMARK    3  A    between atoms: O_14  and  C_15
REMARK    4  A    between atoms: C_15  and  C_16
REMARK    5  A    between atoms: C_20  and  N_23
REMARK                            x       y       z     vdW  Elec       q    Type
REMARK                         _______ _______ _______ _____ _____    ______ ____
ROOT
ATOM      1  C   UNL     1       1.427  -0.616   0.000  0.00  0.00    +0.000 A 
ATOM      2  C   UNL     1       0.713  -0.206   0.000  0.00  0.00    +0.000 A 
ATOM      3  C   UNL     1       0.713   0.620   0.000  0.00  0.00    +0.000 A 
ATOM      4  C   UNL     1       1.427   1.038   0.000  0.00  0.00    +0.000 A 
ATOM      5  C   UNL     1       2.140  -0.206   0.000  0.00  0.00    +0.000 A 
ATOM      6  C   UNL     1       2.138   0.619   0.000  0.00  0.00    +0.000 A 
ATOM      7  C   UNL     1       2.850   1.031   0.000  0.00  0.00    +0.000 A 
ATOM      8  C   UNL     1       3.565   0.621   0.000  0.00  0.00    +0.000 A 
ATOM      9  C   UNL     1       3.564  -0.207   0.000  0.00  0.00    +0.000 A 
ATOM     10  C   UNL     1       2.851  -0.617   0.000  0.00  0.00    +0.000 A 
ENDROOT
BRANCH   8  11
ATOM     11  C   UNL     1       4.281   1.034   0.000  0.00  0.00    +0.000 C 
ATOM     12  N   UNL     1       4.281   1.861   0.000  0.00  0.00    +0.000 NA
ATOM     13  N   UNL     1       4.997   0.621   0.000  0.00  0.00    +0.000 NA
ENDBRANCH   8  11
BRANCH   2  14
ATOM     14  O   UNL     1       0.003  -0.620   0.000  0.00  0.00    +0.000 OA
BRANCH  14  15
ATOM     15  C   UNL     1      -0.711  -0.206   0.000  0.00  0.00    +0.000 C 
ATOM     16  O   UNL     1      -0.711   0.620   0.000  0.00  0.00    +0.000 OA
BRANCH  15  17
ATOM     17  C   UNL     1      -1.425  -0.620   0.000  0.00  0.00    +0.000 A 
ATOM     18  C   UNL     1      -1.422  -1.446   0.000  0.00  0.00    +0.000 A 
ATOM     19  C   UNL     1      -2.135  -1.859   0.000  0.00  0.00    +0.000 A 
ATOM     20  C   UNL     1      -2.851  -1.448   0.000  0.00  0.00    +0.000 A 
ATOM     21  C   UNL     1      -2.849  -0.618   0.000  0.00  0.00    +0.000 A 
ATOM     22  C   UNL     1      -2.136  -0.209   0.000  0.00  0.00    +0.000 A 
BRANCH  20  23
ATOM     23  N   UNL     1      -3.567  -1.861   0.000  0.00  0.00    +0.000 NA
ATOM     24  C   UNL     1      -4.277  -1.442   0.000  0.00  0.00    +0.000 C 
ATOM     25  N   UNL     1      -4.997  -1.850   0.000  0.00  0.00    +0.000 NA
ATOM     26  N   UNL     1      -4.270  -0.616   0.000  0.00  0.00    +0.000 NA
ENDBRANCH  20  23
ENDBRANCH  15  17
ENDBRANCH  14  15
ENDBRANCH   2  14
TORSDOF 5
