REMARK  Name = 
REMARK  9 active torsions:
REMARK  status: ('A' for Active; 'I' for Inactive)
REMARK    1  A    between atoms: C_3  and  C_8
REMARK    2  A    between atoms: C_8  and  N_9
REMARK    3  A    between atoms: N_14  and  C_15
REMARK    4  A    between atoms: C_18  and  O_19
REMARK    5  A    between atoms: C_25  and  C_26
REMARK    6  A    between atoms: C_26  and  N_27
REMARK    7  A    between atoms: C_30  and  C_32
REMARK    8  A    between atoms: C_35  and  N_36
REMARK    9  A    between atoms: N_39  and  O_40
REMARK                            x       y       z     vdW  Elec       q    Type
REMARK                         _______ _______ _______ _____ _____    ______ ____
ROOT
ATOM      1  N   UNL     1      -1.504  -0.448   0.000  0.00  0.00    +0.000 N 
ATOM      2  C   UNL     1      -0.792  -0.035   0.000  0.00  0.00    +0.000 A 
ATOM      3  C   UNL     1      -0.792   0.790   0.000  0.00  0.00    +0.000 A 
ATOM      4  C   UNL     1      -1.504   1.203   0.000  0.00  0.00    +0.000 A 
ATOM      5  O   UNL     1      -1.500   1.937   0.000  0.00  0.00    +0.000 OA
ATOM      6  N   UNL     1      -2.222   0.790   0.000  0.00  0.00    +0.000 N 
ATOM      7  C   UNL     1      -2.222  -0.035   0.000  0.00  0.00    +0.000 A 
ATOM      8  O   UNL     1      -2.934  -0.448   0.000  0.00  0.00    +0.000 OA
ATOM      9  C   UNL     1      -0.007   1.043   0.000  0.00  0.00    +0.000 A 
ATOM     10  C   UNL     1       0.481   0.378   0.000  0.00  0.00    +0.000 A 
ATOM     11  S   UNL     1      -0.007  -0.293   0.000  0.00  0.00    +0.000 S 
ENDROOT
BRANCH   6  12
ATOM     12  C   UNL     1      -2.934   1.202   0.000  0.00  0.00    +0.000 A 
ATOM     13  N   UNL     1      -2.934   2.028   0.000  0.00  0.00    +0.000 NA
ATOM     14  N   UNL     1      -3.652   2.440   0.000  0.00  0.00    +0.000 NA
ATOM     15  C   UNL     1      -4.364   2.028   0.000  0.00  0.00    +0.000 A 
ATOM     16  C   UNL     1      -4.364   1.202   0.000  0.00  0.00    +0.000 A 
ATOM     17  C   UNL     1      -3.652   0.790   0.000  0.00  0.00    +0.000 A 
BRANCH  15  18
ATOM     18  O   UNL     1      -5.082   2.440   0.000  0.00  0.00    +0.000 OA
ATOM     19  C   UNL     1      -5.794   2.027   0.000  0.00  0.00    +0.000 C 
ENDBRANCH  15  18
ENDBRANCH   6  12
BRANCH  10  20
ATOM     20  C   UNL     1       1.306   0.378   0.000  0.00  0.00    +0.000 A 
ATOM     21  C   UNL     1       1.718   1.090   0.000  0.00  0.00    +0.000 A 
ATOM     22  C   UNL     1       2.544   1.090   0.000  0.00  0.00    +0.000 A 
ATOM     23  C   UNL     1       2.956   0.378   0.000  0.00  0.00    +0.000 A 
ATOM     24  C   UNL     1       2.544  -0.340   0.000  0.00  0.00    +0.000 A 
ATOM     25  C   UNL     1       1.719  -0.340   0.000  0.00  0.00    +0.000 A 
BRANCH  23  26
ATOM     26  N   UNL     1       3.781   0.378   0.000  0.00  0.00    +0.000 NA
ATOM     27  C   UNL     1       4.064  -0.397   0.000  0.00  0.00    +0.000 C 
ATOM     28  O   UNL     1       3.531  -1.033   0.000  0.00  0.00    +0.000 OA
ATOM     29  N   UNL     1       4.876  -0.541   0.000  0.00  0.00    +0.000 NA
BRANCH  29  30
ATOM     30  O   UNL     1       5.019  -1.357   0.000  0.00  0.00    +0.000 OA
ATOM     31  C   UNL     1       5.794  -1.635   0.000  0.00  0.00    +0.000 C 
ENDBRANCH  29  30
ENDBRANCH  23  26
ENDBRANCH  10  20
BRANCH   1  32
ATOM     32  C   UNL     1      -1.361  -1.263   0.000  0.00  0.00    +0.000 C 
BRANCH  32  35
ATOM     33  C   UNL     1      -3.402  -2.042   0.000  0.00  0.00    +0.000 A 
ATOM     34  C   UNL     1      -2.771  -1.509   0.000  0.00  0.00    +0.000 A 
ATOM     35  C   UNL     1      -1.996  -1.792   0.000  0.00  0.00    +0.000 A 
ATOM     36  C   UNL     1      -1.853  -2.603   0.000  0.00  0.00    +0.000 A 
ATOM     37  C   UNL     1      -2.483  -3.136   0.000  0.00  0.00    +0.000 A 
ATOM     38  C   UNL     1      -3.259  -2.853   0.000  0.00  0.00    +0.000 A 
ATOM     39  F   UNL     1      -1.077  -2.886   0.000  0.00  0.00    +0.000 F 
ATOM     40  F   UNL     1      -2.872  -0.943   0.000  0.00  0.00    +0.000 F 
ENDBRANCH  32  35
ENDBRANCH   1  32
BRANCH   9  41
ATOM     41  C   UNL     1       0.248   1.828   0.000  0.00  0.00    +0.000 C 
BRANCH  41  42
ATOM     42  N   UNL     1      -0.305   2.441   0.000  0.00  0.00    +0.000 NA
ATOM     43  C   UNL     1      -0.969   2.322   0.000  0.00  0.00    +0.000 C 
ATOM     44  C   UNL     1      -0.086   3.136   0.000  0.00  0.00    +0.000 C 
ENDBRANCH  41  42
ENDBRANCH   9  41
TORSDOF 9
