REMARK  Name = 
REMARK  2 active torsions:
REMARK  status: ('A' for Active; 'I' for Inactive)
REMARK    1  A    between atoms: C_2  and  C_11
REMARK    2  A    between atoms: C_9  and  O_13
REMARK                            x       y       z     vdW  Elec       q    Type
REMARK                         _______ _______ _______ _____ _____    ______ ____
ROOT
ATOM      1  O   UNL     1      -0.437   0.737   0.000  0.00  0.00    +0.000 OA
ATOM      2  C   UNL     1       0.387   0.825   0.000  0.00  0.00    +0.000 A 
ATOM      3  C   UNL     1      -0.612  -0.071   0.000  0.00  0.00    +0.000 A 
ATOM      4  C   UNL     1       0.108  -0.487   0.000  0.00  0.00    +0.000 A 
ATOM      5  C   UNL     1       0.725   0.067   0.000  0.00  0.00    +0.000 A 
ATOM      6  C   UNL     1      -1.325  -0.483   0.000  0.00  0.00    +0.000 A 
ATOM      7  C   UNL     1      -1.325  -1.312   0.000  0.00  0.00    +0.000 A 
ATOM      8  C   UNL     1       0.108  -1.312   0.000  0.00  0.00    +0.000 A 
ATOM      9  C   UNL     1      -0.612  -1.725   0.000  0.00  0.00    +0.000 A 
ATOM     10 BR   UNL     1      -2.037  -0.075   0.000  0.00  0.00    +0.000 Br
ENDROOT
BRANCH   2  12
ATOM     11  N   UNL     1       1.633   2.962   0.000  0.00  0.00    +0.000 NA
ATOM     12  C   UNL     1       0.800   1.537   0.000  0.00  0.00    +0.000 C 
ATOM     13  C   UNL     1       2.037   2.241   0.000  0.00  0.00    +0.000 C 
ATOM     14  C   UNL     1       0.808   2.962   0.000  0.00  0.00    +0.000 C 
ATOM     15  C   UNL     1       1.625   1.529   0.000  0.00  0.00    +0.000 C 
ATOM     16  C   UNL     1       0.387   2.250   0.000  0.00  0.00    +0.000 C 
ENDBRANCH   2  12
BRANCH   9  17
ATOM     17  O   UNL     1      -0.612  -2.550   0.000  0.00  0.00    +0.000 OA
ATOM     18  C   UNL     1      -1.325  -2.962   0.000  0.00  0.00    +0.000 C 
ENDBRANCH   9  17
TORSDOF 2
