REMARK  Name = 
REMARK  0 active torsions:
REMARK  status: ('A' for Active; 'I' for Inactive)
REMARK                            x       y       z     vdW  Elec       q    Type
REMARK                         _______ _______ _______ _____ _____    ______ ____
ROOT
ATOM      1  C   UNL     1       0.437  -0.825   0.000  0.00  0.00    +0.000 A 
ATOM      2  C   UNL     1       0.437   0.000   0.000  0.00  0.00    +0.000 A 
ATOM      3  C   UNL     1       1.222   0.255   0.000  0.00  0.00    +0.000 A 
ATOM      4  N   UNL     1       1.706  -0.412   0.000  0.00  0.00    +0.000 NA
ATOM      5  N   UNL     1       1.222  -1.080   0.000  0.00  0.00    +0.000 NA
ATOM      6  N   UNL     1      -0.277  -1.237   0.000  0.00  0.00    +0.000 NA
ATOM      7  N   UNL     1      -0.992   0.000   0.000  0.00  0.00    +0.000 NA
ATOM      8  C   UNL     1      -0.277   0.412   0.000  0.00  0.00    +0.000 A 
ATOM      9  O   UNL     1      -0.277   1.238   0.000  0.00  0.00    +0.000 OA
ATOM     10  C   UNL     1      -0.992  -0.825   0.000  0.00  0.00    +0.000 A 
ATOM     11  O   UNL     1      -1.706  -1.237   0.000  0.00  0.00    +0.000 OA
ENDROOT
TORSDOF 0
