REMARK  Name = 
REMARK  5 active torsions:
REMARK  status: ('A' for Active; 'I' for Inactive)
REMARK    1  A    between atoms: C_3  and  S_19
REMARK    2  A    between atoms: C_5  and  N_15
REMARK    3  A    between atoms: N_10  and  C_11
REMARK    4  A    between atoms: C_11  and  C_12
REMARK    5  A    between atoms: S_19  and  C_20
REMARK                            x       y       z     vdW  Elec       q    Type
REMARK                         _______ _______ _______ _____ _____    ______ ____
ROOT
ATOM      1  C   UNL     1      -0.171  -0.698   0.000  0.00  0.00    +0.000 C 
ATOM      2  C   UNL     1       0.654  -0.698   0.000  0.00  0.00    +0.000 A 
ATOM      3  C   UNL     1       1.139  -0.030   0.000  0.00  0.00    +0.000 A 
ATOM      4  C   UNL     1       1.923  -0.285   0.000  0.00  0.00    +0.000 A 
ATOM      5  C   UNL     1       2.638   0.127   0.000  0.00  0.00    +0.000 A 
ATOM      6  C   UNL     1       3.352  -0.285   0.000  0.00  0.00    +0.000 A 
ATOM      7  C   UNL     1       3.352  -1.110   0.000  0.00  0.00    +0.000 A 
ATOM      8  C   UNL     1       2.638  -1.523   0.000  0.00  0.00    +0.000 A 
ATOM      9  C   UNL     1       1.923  -1.110   0.000  0.00  0.00    +0.000 A 
ATOM     10  N   UNL     1       1.139  -1.365   0.000  0.00  0.00    +0.000 N 
ENDROOT
BRANCH   5  11
ATOM     11  N   UNL     1       2.638   0.952   0.000  0.00  0.00    +0.000 NA
ATOM     12  C   UNL     1       3.352   1.365   0.000  0.00  0.00    +0.000 C 
ATOM     13  O   UNL     1       4.067   0.952   0.000  0.00  0.00    +0.000 OA
ATOM     14  C   UNL     1       3.352   2.190   0.000  0.00  0.00    +0.000 C 
ENDBRANCH   5  11
BRANCH  10  15
ATOM     15  C   UNL     1       0.884  -2.150   0.000  0.00  0.00    +0.000 C 
BRANCH  15  16
ATOM     16  C   UNL     1       1.436  -2.763   0.000  0.00  0.00    +0.000 C 
ATOM     17  O   UNL     1       1.181  -3.548   0.000  0.00  0.00    +0.000 OA
ATOM     18  O   UNL     1       2.243  -2.592   0.000  0.00  0.00    +0.000 OA
ENDBRANCH  15  16
ENDBRANCH  10  15
BRANCH   3  19
ATOM     19  S   UNL     1       0.884   0.754   0.000  0.00  0.00    +0.000 S 
BRANCH  19  20
ATOM     20  C   UNL     1       0.077   0.926   0.000  0.00  0.00    +0.000 A 
ATOM     21  C   UNL     1      -0.475   0.313   0.000  0.00  0.00    +0.000 A 
ATOM     22  C   UNL     1      -1.282   0.484   0.000  0.00  0.00    +0.000 A 
ATOM     23  C   UNL     1      -1.537   1.269   0.000  0.00  0.00    +0.000 A 
ATOM     24  C   UNL     1      -0.985   1.882   0.000  0.00  0.00    +0.000 A 
ATOM     25  C   UNL     1      -0.178   1.710   0.000  0.00  0.00    +0.000 A 
ATOM     26 CL   UNL     1      -2.344   1.440   0.000  0.00  0.00    +0.000 Cl
ENDBRANCH  19  20
ENDBRANCH   3  19
TORSDOF 5
