REMARK  Name = 
REMARK  0 active torsions:
REMARK  status: ('A' for Active; 'I' for Inactive)
REMARK                            x       y       z     vdW  Elec       q    Type
REMARK                         _______ _______ _______ _____ _____    ______ ____
ROOT
ATOM      1  O   UNL     1      -1.141  -1.429   0.000  0.00  0.00    +0.000 OA
ATOM      2  C   UNL     1      -0.729  -0.715   0.000  0.00  0.00    +0.000 C 
ATOM      3  C   UNL     1      -1.141   0.000   0.000  0.00  0.00    +0.000 C 
ATOM      4  C   UNL     1      -0.729   0.715   0.000  0.00  0.00    +0.000 C 
ATOM      5  C   UNL     1      -1.141   1.429   0.000  0.00  0.00    +0.000 C 
ATOM      6  C   UNL     1       0.097   0.715   0.000  0.00  0.00    +0.000 C 
ATOM      7  C   UNL     1      -0.316   0.000   0.000  0.00  0.00    +0.000 C 
ATOM      8  C   UNL     1       0.097  -0.715   0.000  0.00  0.00    +0.000 C 
ATOM      9  C   UNL     1       0.509   0.000   0.000  0.00  0.00    +0.000 C 
ATOM     10  C   UNL     1       1.141  -0.530   0.000  0.00  0.00    +0.000 C 
ATOM     11  C   UNL     1       1.141   0.530   0.000  0.00  0.00    +0.000 C 
ENDROOT
TORSDOF 0
