REMARK  Name = 
REMARK  3 active torsions:
REMARK  status: ('A' for Active; 'I' for Inactive)
REMARK    1  A    between atoms: C_6  and  N_13
REMARK    2  A    between atoms: C_7  and  C_10
REMARK    3  A    between atoms: N_13  and  C_14
REMARK                            x       y       z     vdW  Elec       q    Type
REMARK                         _______ _______ _______ _____ _____    ______ ____
ROOT
ATOM      1  C   UNL     1      -1.002  -0.887   0.000  0.00  0.00    +0.000 A 
ATOM      2  C   UNL     1      -1.506  -0.234   0.000  0.00  0.00    +0.000 A 
ATOM      3  N   UNL     1      -2.283  -0.511   0.000  0.00  0.00    +0.000 NA
ATOM      4  C   UNL     1      -2.259  -1.336   0.000  0.00  0.00    +0.000 A 
ATOM      5  C   UNL     1      -1.467  -1.568   0.000  0.00  0.00    +0.000 A 
ATOM      6  C   UNL     1      -1.272  -2.370   0.000  0.00  0.00    +0.000 A 
ATOM      7  C   UNL     1      -1.869  -2.939   0.000  0.00  0.00    +0.000 A 
ATOM      8  C   UNL     1      -2.661  -2.707   0.000  0.00  0.00    +0.000 A 
ATOM      9  N   UNL     1      -2.856  -1.905   0.000  0.00  0.00    +0.000 NA
ENDROOT
BRANCH   7  10
ATOM     10  C   UNL     1      -1.674  -3.741   0.000  0.00  0.00    +0.000 C 
ATOM     11  O   UNL     1      -2.271  -4.310   0.000  0.00  0.00    +0.000 OA
ATOM     12  N   UNL     1      -0.883  -3.973   0.000  0.00  0.00    +0.000 NA
ENDBRANCH   7  10
BRANCH   6  13
ATOM     13  N   UNL     1      -0.481  -2.602   0.000  0.00  0.00    +0.000 NA
BRANCH  13  14
ATOM     14  C   UNL     1       0.116  -2.032   0.000  0.00  0.00    +0.000 C 
ATOM     15  C   UNL     1       0.852  -1.659   0.000  0.00  0.00    +0.000 C 
ATOM     16  C   UNL     1       0.852  -0.911   0.000  0.00  0.00    +0.000 C 
ATOM     17  C   UNL     1       1.301  -0.121   0.000  0.00  0.00    +0.000 C 
ATOM     18  C   UNL     1       0.566  -0.494   0.000  0.00  0.00    +0.000 C 
ATOM     19  C   UNL     1       0.566  -1.242   0.000  0.00  0.00    +0.000 C 
ATOM     20  C   UNL     1       1.301  -1.616   0.000  0.00  0.00    +0.000 C 
ATOM     21  C   UNL     1       2.037  -1.242   0.000  0.00  0.00    +0.000 C 
ATOM     22  C   UNL     1       1.587  -2.032   0.000  0.00  0.00    +0.000 C 
ATOM     23  C   UNL     1       2.037  -0.494   0.000  0.00  0.00    +0.000 C 
ATOM     24  O   UNL     1       2.834  -1.453   0.000  0.00  0.00    +0.000 OA
ENDBRANCH  13  14
ENDBRANCH   6  13
TORSDOF 3
