REMARK  Name = 
REMARK  2 active torsions:
REMARK  status: ('A' for Active; 'I' for Inactive)
REMARK    1  A    between atoms: C_3  and  C_10
REMARK    2  A    between atoms: C_6  and  C_7
REMARK                            x       y       z     vdW  Elec       q    Type
REMARK                         _______ _______ _______ _____ _____    ______ ____
ROOT
ATOM      1  C   UNL     1       0.042   2.182   0.000  0.00  0.00    +0.000 A 
ATOM      2  C   UNL     1       0.297   1.398   0.000  0.00  0.00    +0.000 A 
ATOM      3  C   UNL     1      -0.255   0.785   0.000  0.00  0.00    +0.000 A 
ATOM      4  C   UNL     1      -1.062   0.956   0.000  0.00  0.00    +0.000 A 
ATOM      5  C   UNL     1      -1.317   1.741   0.000  0.00  0.00    +0.000 A 
ATOM      6  C   UNL     1      -0.765   2.354   0.000  0.00  0.00    +0.000 A 
ATOM      7  F   UNL     1      -1.614   0.343   0.000  0.00  0.00    +0.000 F 
ENDROOT
BRANCH   3   8
ATOM      8  C   UNL     1       0.000   0.000   0.000  0.00  0.00    +0.000 C 
ATOM      9  C   UNL     1      -0.485  -0.667   0.000  0.00  0.00    +0.000 C 
ATOM     10  C   UNL     1       0.000  -1.335   0.000  0.00  0.00    +0.000 C 
ATOM     11  C   UNL     1       0.785  -1.080   0.000  0.00  0.00    +0.000 A 
ATOM     12  N   UNL     1       0.785  -0.255   0.000  0.00  0.00    +0.000 N 
ATOM     13  C   UNL     1       1.569   0.000   0.000  0.00  0.00    +0.000 A 
ATOM     14  N   UNL     1       2.054  -0.667   0.000  0.00  0.00    +0.000 NA
ATOM     15  C   UNL     1       1.569  -1.335   0.000  0.00  0.00    +0.000 A 
ENDBRANCH   3   8
BRANCH   6  16
ATOM     16  C   UNL     1      -1.020   3.139   0.000  0.00  0.00    +0.000 C 
ATOM     17  N   UNL     1      -1.275   3.923   0.000  0.00  0.00    +0.000 NA
ENDBRANCH   6  16
TORSDOF 2
