REMARK  Name = 
REMARK  4 active torsions:
REMARK  status: ('A' for Active; 'I' for Inactive)
REMARK    1  A    between atoms: C_5  and  C_10
REMARK    2  A    between atoms: C_10  and  C_14
REMARK    3  A    between atoms: C_13  and  C_17
REMARK    4  A    between atoms: C_17  and  C_20
REMARK                            x       y       z     vdW  Elec       q    Type
REMARK                         _______ _______ _______ _____ _____    ______ ____
ROOT
ATOM      1  O   UNL     1      -0.636  -0.994   0.000  0.00  0.00    +0.000 OA
ATOM      2  C   UNL     1       0.065  -0.577   0.000  0.00  0.00    +0.000 A 
ATOM      3  C   UNL     1       0.052   0.248   0.000  0.00  0.00    +0.000 A 
ATOM      4  C   UNL     1       0.761   0.669   0.000  0.00  0.00    +0.000 A 
ATOM      5  C   UNL     1      -1.361  -0.594   0.000  0.00  0.00    +0.000 C 
ATOM      6  C   UNL     1       1.486   0.269   0.000  0.00  0.00    +0.000 A 
ATOM      7  C   UNL     1       0.786  -0.982   0.000  0.00  0.00    +0.000 A 
ATOM      8  C   UNL     1      -0.661   0.648   0.000  0.00  0.00    +0.000 C 
ATOM      9  C   UNL     1       1.490  -0.565   0.000  0.00  0.00    +0.000 A 
ATOM     10  C   UNL     1      -1.365   0.231   0.000  0.00  0.00    +0.000 C 
ENDROOT
BRANCH   6  11
ATOM     11  C   UNL     1       2.190   0.686   0.000  0.00  0.00    +0.000 C 
BRANCH  11  16
ATOM     12  N   UNL     1       4.224   0.023   0.000  0.00  0.00    +0.000 NA
ATOM     13  C   UNL     1       3.816  -0.694   0.000  0.00  0.00    +0.000 C 
ATOM     14  C   UNL     1       3.661   0.631   0.000  0.00  0.00    +0.000 C 
ATOM     15  S   UNL     1       3.011  -0.531   0.000  0.00  0.00    +0.000 S 
ATOM     16  C   UNL     1       2.915   0.281   0.000  0.00  0.00    +0.000 C 
ATOM     17  O   UNL     1       4.166  -1.444   0.000  0.00  0.00    +0.000 OA
ATOM     18  O   UNL     1       3.824   1.444   0.000  0.00  0.00    +0.000 OA
ENDBRANCH  11  16
ENDBRANCH   6  11
BRANCH   5  19
ATOM     19  C   UNL     1      -2.065  -1.019   0.000  0.00  0.00    +0.000 C 
BRANCH  19  20
ATOM     20  C   UNL     1      -2.786  -0.615   0.000  0.00  0.00    +0.000 A 
ATOM     21  C   UNL     1      -2.790   0.219   0.000  0.00  0.00    +0.000 A 
ATOM     22  C   UNL     1      -3.490  -1.032   0.000  0.00  0.00    +0.000 A 
ATOM     23  C   UNL     1      -4.212  -0.631   0.000  0.00  0.00    +0.000 A 
ATOM     24  C   UNL     1      -3.511   0.619   0.000  0.00  0.00    +0.000 A 
ATOM     25  C   UNL     1      -4.224   0.198   0.000  0.00  0.00    +0.000 A 
ENDBRANCH  19  20
ENDBRANCH   5  19
TORSDOF 4
