REMARK  Name = 
REMARK  6 active torsions:
REMARK  status: ('A' for Active; 'I' for Inactive)
REMARK    1  A    between atoms: O_2  and  C_3
REMARK    2  A    between atoms: C_4  and  O_5
REMARK    3  A    between atoms: N_15  and  C_16
REMARK    4  A    between atoms: C_16  and  C_17
REMARK    5  A    between atoms: C_17  and  N_18
REMARK    6  A    between atoms: N_25  and  C_26
REMARK                            x       y       z     vdW  Elec       q    Type
REMARK                         _______ _______ _______ _____ _____    ______ ____
ROOT
ATOM      1  C   UNL     1       4.014   0.412   0.000  0.00  0.00    +0.000 A 
ATOM      2  C   UNL     1       3.602   1.127   0.000  0.00  0.00    +0.000 A 
ATOM      3  C   UNL     1       2.777   1.127   0.000  0.00  0.00    +0.000 A 
ATOM      4  C   UNL     1       2.365   0.412   0.000  0.00  0.00    +0.000 A 
ATOM      5  C   UNL     1       2.777  -0.302   0.000  0.00  0.00    +0.000 A 
ATOM      6  C   UNL     1       2.365  -1.016   0.000  0.00  0.00    +0.000 C 
ATOM      7  C   UNL     1       1.540  -1.016   0.000  0.00  0.00    +0.000 C 
ATOM      8  N   UNL     1       1.127  -0.302   0.000  0.00  0.00    +0.000 N 
ATOM      9  C   UNL     1       0.302  -0.302   0.000  0.00  0.00    +0.000 A 
ATOM     10  O   UNL     1      -0.111  -1.016   0.000  0.00  0.00    +0.000 OA
ATOM     11  N   UNL     1      -0.111   0.412   0.000  0.00  0.00    +0.000 N 
ATOM     12  C   UNL     1       0.302   1.127   0.000  0.00  0.00    +0.000 A 
ATOM     13  C   UNL     1       1.127   1.127   0.000  0.00  0.00    +0.000 A 
ATOM     14  C   UNL     1       1.540   0.412   0.000  0.00  0.00    +0.000 A 
ATOM     15  N   UNL     1      -0.111   1.841   0.000  0.00  0.00    +0.000 NA
ATOM     16  C   UNL     1       3.602  -0.302   0.000  0.00  0.00    +0.000 A 
ENDROOT
BRANCH  15  17
ATOM     17  C   UNL     1       0.302   2.556   0.000  0.00  0.00    +0.000 A 
ATOM     18  C   UNL     1      -0.111   3.270   0.000  0.00  0.00    +0.000 A 
ATOM     19  C   UNL     1      -0.935   3.270   0.000  0.00  0.00    +0.000 C 
ATOM     20  C   UNL     1       0.302   3.985   0.000  0.00  0.00    +0.000 A 
ATOM     21  C   UNL     1       1.127   3.985   0.000  0.00  0.00    +0.000 A 
ATOM     22  C   UNL     1       1.540   4.699   0.000  0.00  0.00    +0.000 C 
ATOM     23  C   UNL     1       1.540   3.270   0.000  0.00  0.00    +0.000 A 
ATOM     24  C   UNL     1       1.127   2.556   0.000  0.00  0.00    +0.000 A 
ATOM     25  C   UNL     1       1.540   1.841   0.000  0.00  0.00    +0.000 C 
ENDBRANCH  15  17
BRANCH   1  27
ATOM     26  C   UNL     1       5.252  -0.302   0.000  0.00  0.00    +0.000 C 
ATOM     27  O   UNL     1       4.840   0.412   0.000  0.00  0.00    +0.000 OA
ENDBRANCH   1  27
BRANCH   2  28
ATOM     28  O   UNL     1       4.014   1.841   0.000  0.00  0.00    +0.000 OA
ATOM     29  C   UNL     1       3.602   2.556   0.000  0.00  0.00    +0.000 C 
ENDBRANCH   2  28
BRANCH  11  30
ATOM     30  C   UNL     1      -0.935   0.412   0.000  0.00  0.00    +0.000 C 
BRANCH  30  31
ATOM     31  C   UNL     1      -1.348   1.127   0.000  0.00  0.00    +0.000 C 
BRANCH  31  32
ATOM     32  N   UNL     1      -2.173   1.127   0.000  0.00  0.00    +0.000 NA
ATOM     33  C   UNL     1      -2.586   1.841   0.000  0.00  0.00    +0.000 C 
ATOM     34  N   UNL     1      -3.410   1.841   0.000  0.00  0.00    +0.000 NA
ATOM     35  O   UNL     1      -2.173   2.556   0.000  0.00  0.00    +0.000 OA
ENDBRANCH  31  32
ENDBRANCH  30  31
ENDBRANCH  11  30
TORSDOF 6
