REMARK  Name = 
REMARK  13 active torsions:
REMARK  status: ('A' for Active; 'I' for Inactive)
REMARK    1  A    between atoms: C_1  and  C_3
REMARK    2  A    between atoms: C_2  and  C_7
REMARK    3  A    between atoms: C_3  and  C_5
REMARK    4  A    between atoms: C_7  and  C_12
REMARK    5  A    between atoms: C_9  and  O_20
REMARK    6  A    between atoms: C_12  and  O_17
REMARK    7  A    between atoms: O_17  and  C_25
REMARK    8  A    between atoms: O_20  and  C_23
REMARK    9  A    between atoms: N_21  and  C_26
REMARK   10  A    between atoms: N_21  and  C_27
REMARK   11  A    between atoms: N_21  and  C_28
REMARK   12  A    between atoms: C_23  and  C_26
REMARK   13  A    between atoms: C_25  and  C_29
REMARK                            x       y       z     vdW  Elec       q    Type
REMARK                         _______ _______ _______ _____ _____    ______ ____
ROOT
ATOM      1  C   UNL     1       0.549   0.715   0.000  0.00  0.00    +0.000 C 
ATOM      2  O   UNL     1       1.321   1.003   0.000  0.00  0.00    +0.000 OA
ENDROOT
BRANCH   1   3
ATOM      3  C   UNL     1      -0.092   1.242   0.000  0.00  0.00    +0.000 A 
ATOM      4  C   UNL     1      -0.038   2.068   0.000  0.00  0.00    +0.000 A 
ATOM      5  O   UNL     1      -0.808   2.370   0.000  0.00  0.00    +0.000 OA
ATOM      6  C   UNL     1      -0.891   1.037   0.000  0.00  0.00    +0.000 A 
ATOM      7  C   UNL     1      -1.334   1.734   0.000  0.00  0.00    +0.000 A 
ATOM      8  C   UNL     1      -1.272   0.305   0.000  0.00  0.00    +0.000 A 
ATOM      9  C   UNL     1      -2.158   1.700   0.000  0.00  0.00    +0.000 A 
ATOM     10  C   UNL     1      -2.099   0.269   0.000  0.00  0.00    +0.000 A 
ATOM     11  C   UNL     1      -2.542   0.967   0.000  0.00  0.00    +0.000 A 
BRANCH   4  12
ATOM     12  C   UNL     1       0.659   2.511   0.000  0.00  0.00    +0.000 C 
BRANCH  12  13
ATOM     13  C   UNL     1       0.625   3.335   0.000  0.00  0.00    +0.000 C 
ATOM     14  O   UNL     1       1.323   3.778   0.000  0.00  0.00    +0.000 OA
BRANCH  13  15
ATOM     15  O   UNL     1      -0.108   3.719   0.000  0.00  0.00    +0.000 OA
BRANCH  15  16
ATOM     16  C   UNL     1      -0.142   4.543   0.000  0.00  0.00    +0.000 C 
ATOM     17  C   UNL     1       0.239   5.275   0.000  0.00  0.00    +0.000 C 
BRANCH  16  18
ATOM     18  C   UNL     1      -0.876   4.928   0.000  0.00  0.00    +0.000 C 
ATOM     19  C   UNL     1      -0.909   5.752   0.000  0.00  0.00    +0.000 C 
ENDBRANCH  16  18
ENDBRANCH  15  16
ENDBRANCH  13  15
ENDBRANCH  12  13
ENDBRANCH   4  12
ENDBRANCH   1   3
BRANCH   1  20
ATOM     20  C   UNL     1       0.409  -0.100   0.000  0.00  0.00    +0.000 A 
ATOM     21  C   UNL     1       0.134  -1.729   0.000  0.00  0.00    +0.000 A 
ATOM     22  C   UNL     1      -0.502  -1.203   0.000  0.00  0.00    +0.000 A 
ATOM     23  C   UNL     1       0.909  -1.439   0.000  0.00  0.00    +0.000 A 
ATOM     24  C   UNL     1      -0.362  -0.387   0.000  0.00  0.00    +0.000 A 
ATOM     25  C   UNL     1       1.045  -0.626   0.000  0.00  0.00    +0.000 A 
ATOM     26  I   UNL     1       1.545  -1.965   0.000  0.00  0.00    +0.000 I 
ATOM     27  I   UNL     1      -1.279  -1.489   0.000  0.00  0.00    +0.000 I 
BRANCH  21  28
ATOM     28  O   UNL     1      -0.002  -2.542   0.000  0.00  0.00    +0.000 OA
BRANCH  28  29
ATOM     29  C   UNL     1       0.633  -3.068   0.000  0.00  0.00    +0.000 C 
BRANCH  29  30
ATOM     30  C   UNL     1       0.496  -3.887   0.000  0.00  0.00    +0.000 C 
BRANCH  30  31
ATOM     31  N   UNL     1       1.135  -4.410   0.000  0.00  0.00    +0.000 NA
BRANCH  31  32
ATOM     32  C   UNL     1       0.996  -5.226   0.000  0.00  0.00    +0.000 C 
ATOM     33  C   UNL     1       1.631  -5.752   0.000  0.00  0.00    +0.000 C 
ENDBRANCH  31  32
BRANCH  31  34
ATOM     34  C   UNL     1       1.907  -4.123   0.000  0.00  0.00    +0.000 C 
ATOM     35  C   UNL     1       2.542  -4.649   0.000  0.00  0.00    +0.000 C 
ENDBRANCH  31  34
ENDBRANCH  30  31
ENDBRANCH  29  30
ENDBRANCH  28  29
ENDBRANCH  21  28
ENDBRANCH   1  20
TORSDOF 13
