REMARK  Name = 
REMARK  2 active torsions:
REMARK  status: ('A' for Active; 'I' for Inactive)
REMARK    1  A    between atoms: C_7  and  S_8
REMARK    2  A    between atoms: S_8  and  C_9
REMARK                            x       y       z     vdW  Elec       q    Type
REMARK                         _______ _______ _______ _____ _____    ______ ____
ROOT
ATOM      1  C   UNL     1      -1.429   0.000   0.000  0.00  0.00    +0.000 C 
ATOM      2  C   UNL     1      -0.715  -0.412   0.000  0.00  0.00    +0.000 A 
ATOM      3  C   UNL     1      -0.715  -1.238   0.000  0.00  0.00    +0.000 A 
ATOM      4  C   UNL     1       0.000  -1.650   0.000  0.00  0.00    +0.000 A 
ATOM      5  C   UNL     1       0.715  -1.238   0.000  0.00  0.00    +0.000 A 
ATOM      6  C   UNL     1       0.715  -0.412   0.000  0.00  0.00    +0.000 A 
ATOM      7  C   UNL     1       0.000   0.000   0.000  0.00  0.00    +0.000 A 
ATOM      8  C   UNL     1       1.429   0.000   0.000  0.00  0.00    +0.000 A 
ATOM      9  O   UNL     1       1.429   0.825   0.000  0.00  0.00    +0.000 OA
ATOM     10  N   UNL     1       2.143  -0.412   0.000  0.00  0.00    +0.000 NA
ATOM     11  C   UNL     1       2.143  -1.238   0.000  0.00  0.00    +0.000 A 
ATOM     12  N   UNL     1       1.429  -1.650   0.000  0.00  0.00    +0.000 NA
ATOM     13  N   UNL     1       2.858  -1.650   0.000  0.00  0.00    +0.000 NA
ENDROOT
BRANCH   7  14
ATOM     14  S   UNL     1       0.000   0.825   0.000  0.00  0.00    +0.000 S 
BRANCH  14  15
ATOM     15  C   UNL     1      -0.715   1.238   0.000  0.00  0.00    +0.000 A 
ATOM     16  C   UNL     1      -1.429   0.825   0.000  0.00  0.00    +0.000 A 
ATOM     17  C   UNL     1      -2.143   1.238   0.000  0.00  0.00    +0.000 A 
ATOM     18  N   UNL     1      -2.143   2.062   0.000  0.00  0.00    +0.000 NA
ATOM     19  C   UNL     1      -1.429   2.475   0.000  0.00  0.00    +0.000 A 
ATOM     20  C   UNL     1      -0.715   2.062   0.000  0.00  0.00    +0.000 A 
ENDBRANCH  14  15
ENDBRANCH   7  14
TORSDOF 2
