REMARK  Name = 
REMARK  4 active torsions:
REMARK  status: ('A' for Active; 'I' for Inactive)
REMARK    1  A    between atoms: C_17  and  C_18
REMARK    2  A    between atoms: C_18  and  C_20
REMARK    3  A    between atoms: C_20  and  O_21
REMARK    4  A    between atoms: O_21  and  C_22
REMARK                            x       y       z     vdW  Elec       q    Type
REMARK                         _______ _______ _______ _____ _____    ______ ____
ROOT
ATOM      1  C   UNL     1      -2.145  -1.341   0.000  0.00  0.00    +0.000 C 
ATOM      2  C   UNL     1      -2.145  -2.166   0.000  0.00  0.00    +0.000 C 
ATOM      3  C   UNL     1      -1.430  -2.579   0.000  0.00  0.00    +0.000 C 
ATOM      4  C   UNL     1      -0.716  -2.166   0.000  0.00  0.00    +0.000 C 
ATOM      5  C   UNL     1      -0.716  -1.341   0.000  0.00  0.00    +0.000 C 
ATOM      6  C   UNL     1      -1.430  -0.928   0.000  0.00  0.00    +0.000 C 
ATOM      7  C   UNL     1      -0.001  -2.579   0.000  0.00  0.00    +0.000 C 
ATOM      8  C   UNL     1       0.713  -2.166   0.000  0.00  0.00    +0.000 C 
ATOM      9  C   UNL     1       0.713  -1.341   0.000  0.00  0.00    +0.000 C 
ATOM     10  C   UNL     1      -0.001  -0.928   0.000  0.00  0.00    +0.000 C 
ATOM     11  C   UNL     1       1.428  -0.928   0.000  0.00  0.00    +0.000 C 
ATOM     12  C   UNL     1       1.428  -0.103   0.000  0.00  0.00    +0.000 C 
ATOM     13  C   UNL     1       0.713   0.309   0.000  0.00  0.00    +0.000 C 
ATOM     14  C   UNL     1      -0.001  -0.103   0.000  0.00  0.00    +0.000 C 
ATOM     15  C   UNL     1       2.857  -0.928   0.000  0.00  0.00    +0.000 C 
ATOM     16  C   UNL     1       2.857  -0.103   0.000  0.00  0.00    +0.000 C 
ATOM     17  C   UNL     1       2.142   0.309   0.000  0.00  0.00    +0.000 C 
ATOM     18  O   UNL     1      -2.859  -2.579   0.000  0.00  0.00    +0.000 OA
ATOM     19  C   UNL     1       1.428   0.722   0.000  0.00  0.00    +0.000 C 
ATOM     20  C   UNL     1      -0.716  -0.516   0.000  0.00  0.00    +0.000 C 
ENDROOT
BRANCH  17  21
ATOM     21  C   UNL     1       2.142   1.341   0.000  0.00  0.00    +0.000 C 
ATOM     22  O   UNL     1       2.859   1.755   0.000  0.00  0.00    +0.000 OA
BRANCH  21  23
ATOM     23  C   UNL     1       1.430   1.752   0.000  0.00  0.00    +0.000 C 
BRANCH  23  24
ATOM     24  O   UNL     1       0.727   1.346   0.000  0.00  0.00    +0.000 OA
BRANCH  24  25
ATOM     25  C   UNL     1       0.026   1.750   0.000  0.00  0.00    +0.000 C 
ATOM     26  C   UNL     1      -0.675   1.345   0.000  0.00  0.00    +0.000 C 
ATOM     27  O   UNL     1       0.026   2.579   0.000  0.00  0.00    +0.000 OA
ENDBRANCH  24  25
ENDBRANCH  23  24
ENDBRANCH  21  23
ENDBRANCH  17  21
TORSDOF 4
