REMARK  Name = 
REMARK  9 active torsions:
REMARK  status: ('A' for Active; 'I' for Inactive)
REMARK    1  A    between atoms: O_2  and  C_3
REMARK    2  A    between atoms: C_3  and  C_4
REMARK    3  A    between atoms: C_4  and  O_5
REMARK    4  A    between atoms: O_5  and  C_6
REMARK    5  A    between atoms: C_6  and  C_7
REMARK    6  A    between atoms: C_7  and  O_8
REMARK    7  A    between atoms: O_8  and  C_9
REMARK    8  A    between atoms: C_13  and  C_16
REMARK    9  A    between atoms: C_18  and  C_22
REMARK                            x       y       z     vdW  Elec       q    Type
REMARK                         _______ _______ _______ _____ _____    ______ ____
ROOT
ATOM      1  C   UNL     1       7.859  -5.362   0.000  0.00  0.00    +0.000 A 
ATOM      2  C   UNL     1       8.574  -4.950   0.000  0.00  0.00    +0.000 A 
ATOM      3  C   UNL     1       9.288  -5.362   0.000  0.00  0.00    +0.000 A 
ATOM      4  O   UNL     1      10.003  -4.950   0.000  0.00  0.00    +0.000 OA
ATOM      5  C   UNL     1       9.288  -6.188   0.000  0.00  0.00    +0.000 A 
ATOM      6  C   UNL     1       8.574  -6.600   0.000  0.00  0.00    +0.000 A 
ATOM      7  C   UNL     1       7.859  -6.188   0.000  0.00  0.00    +0.000 A 
ENDROOT
BRANCH   5   8
ATOM      8  C   UNL     1      10.003  -6.600   0.000  0.00  0.00    +0.000 C 
ATOM      9  N   UNL     1      10.756  -6.264   0.000  0.00  0.00    +0.000 NA
ATOM     10  C   UNL     1      11.308  -6.878   0.000  0.00  0.00    +0.000 C 
ATOM     11  C   UNL     1      11.860  -6.264   0.000  0.00  0.00    +0.000 C 
ATOM     12  C   UNL     1      10.896  -7.592   0.000  0.00  0.00    +0.000 C 
ATOM     13  S   UNL     1      10.089  -7.420   0.000  0.00  0.00    +0.000 S 
BRANCH  10  14
ATOM     14  C   UNL     1      11.976  -7.362   0.000  0.00  0.00    +0.000 C 
ATOM     15  O   UNL     1      12.729  -7.027   0.000  0.00  0.00    +0.000 OA
ATOM     16  O   UNL     1      11.889  -8.183   0.000  0.00  0.00    +0.000 OA
ENDBRANCH  10  14
ENDBRANCH   5   8
BRANCH   1  17
ATOM     17  O   UNL     1       7.145  -4.950   0.000  0.00  0.00    +0.000 OA
BRANCH  17  18
ATOM     18  C   UNL     1       6.430  -5.362   0.000  0.00  0.00    +0.000 C 
BRANCH  18  19
ATOM     19  C   UNL     1       5.716  -4.950   0.000  0.00  0.00    +0.000 C 
BRANCH  19  20
ATOM     20  O   UNL     1       5.001  -5.362   0.000  0.00  0.00    +0.000 OA
BRANCH  20  21
ATOM     21  C   UNL     1       4.287  -4.950   0.000  0.00  0.00    +0.000 C 
BRANCH  21  22
ATOM     22  C   UNL     1       3.572  -5.362   0.000  0.00  0.00    +0.000 C 
BRANCH  22  24
ATOM     23  C   UNL     1       2.143  -5.362   0.000  0.00  0.00    +0.000 C 
ATOM     24  O   UNL     1       2.858  -4.950   0.000  0.00  0.00    +0.000 OA
ENDBRANCH  22  24
ENDBRANCH  21  22
ENDBRANCH  20  21
ENDBRANCH  19  20
ENDBRANCH  18  19
ENDBRANCH  17  18
ENDBRANCH   1  17
TORSDOF 9
