REMARK  Name = 
REMARK  8 active torsions:
REMARK  status: ('A' for Active; 'I' for Inactive)
REMARK    1  A    between atoms: C_1  and  O_7
REMARK    2  A    between atoms: C_5  and  C_19
REMARK    3  A    between atoms: O_7  and  C_8
REMARK    4  A    between atoms: C_8  and  C_9
REMARK    5  A    between atoms: C_8  and  C_13
REMARK    6  A    between atoms: C_9  and  C_11
REMARK    7  A    between atoms: C_13  and  C_15
REMARK    8  A    between atoms: C_15  and  C_17
REMARK                            x       y       z     vdW  Elec       q    Type
REMARK                         _______ _______ _______ _____ _____    ______ ____
ROOT
ATOM      1  O   UNL     1      -0.715   0.825   0.000  0.00  0.00    +0.000 OA
ENDROOT
BRANCH   1   2
ATOM      2  C   UNL     1      -0.715   0.000   0.000  0.00  0.00    +0.000 C 
ATOM      3  C   UNL     1      -1.429  -0.412   0.000  0.00  0.00    +0.000 C 
ATOM      4  C   UNL     1      -1.429  -1.237   0.000  0.00  0.00    +0.000 C 
ATOM      5  C   UNL     1      -0.715  -1.650   0.000  0.00  0.00    +0.000 C 
ATOM      6  C   UNL     1       0.000  -1.237   0.000  0.00  0.00    +0.000 C 
ATOM      7  O   UNL     1       0.000  -0.412   0.000  0.00  0.00    +0.000 OA
ATOM      8  O   UNL     1      -0.715  -2.475   0.000  0.00  0.00    +0.000 OA
ATOM      9  O   UNL     1      -2.143  -1.650   0.000  0.00  0.00    +0.000 OA
ATOM     10  O   UNL     1      -2.143   0.000   0.000  0.00  0.00    +0.000 OA
BRANCH   6  11
ATOM     11  C   UNL     1       0.714  -1.650   0.000  0.00  0.00    +0.000 C 
ATOM     12  O   UNL     1       1.429  -1.237   0.000  0.00  0.00    +0.000 OA
ENDBRANCH   6  11
ENDBRANCH   1   2
BRANCH   1  13
ATOM     13  C   UNL     1       0.000   1.238   0.000  0.00  0.00    +0.000 C 
BRANCH  13  14
ATOM     14  C   UNL     1       0.714   0.825   0.000  0.00  0.00    +0.000 C 
ATOM     15  O   UNL     1       0.714   0.000   0.000  0.00  0.00    +0.000 OA
BRANCH  14  16
ATOM     16  C   UNL     1       1.429   1.238   0.000  0.00  0.00    +0.000 C 
ATOM     17  O   UNL     1       1.429   2.062   0.000  0.00  0.00    +0.000 OA
BRANCH  16  18
ATOM     18  C   UNL     1       2.143   0.825   0.000  0.00  0.00    +0.000 C 
ATOM     19  O   UNL     1       2.143   0.000   0.000  0.00  0.00    +0.000 OA
ENDBRANCH  16  18
ENDBRANCH  14  16
ENDBRANCH  13  14
BRANCH  13  20
ATOM     20  C   UNL     1       0.000   2.062   0.000  0.00  0.00    +0.000 C 
ATOM     21  O   UNL     1       0.714   2.475   0.000  0.00  0.00    +0.000 OA
BRANCH  20  22
ATOM     22  C   UNL     1      -0.715   2.475   0.000  0.00  0.00    +0.000 C 
ATOM     23  O   UNL     1      -1.429   2.062   0.000  0.00  0.00    +0.000 OA
ENDBRANCH  20  22
ENDBRANCH  13  20
ENDBRANCH   1  13
TORSDOF 8
