REMARK  Name = 
REMARK  6 active torsions:
REMARK  status: ('A' for Active; 'I' for Inactive)
REMARK    1  A    between atoms: C_2  and  C_3
REMARK    2  A    between atoms: C_3  and  N_4
REMARK    3  A    between atoms: C_5  and  C_7
REMARK    4  A    between atoms: C_9  and  C_12
REMARK    5  A    between atoms: C_15  and  C_18
REMARK    6  A    between atoms: C_18  and  N_19
REMARK                            x       y       z     vdW  Elec       q    Type
REMARK                         _______ _______ _______ _____ _____    ______ ____
ROOT
ATOM      1  C   UNL     1       6.558  -5.338   0.000  0.00  0.00    +0.000 A 
ATOM      2  C   UNL     1       7.383  -5.360   0.000  0.00  0.00    +0.000 A 
ATOM      3  C   UNL     1       7.777  -6.085   0.000  0.00  0.00    +0.000 A 
ATOM      4  C   UNL     1       7.346  -6.788   0.000  0.00  0.00    +0.000 A 
ATOM      5  C   UNL     1       6.521  -6.767   0.000  0.00  0.00    +0.000 A 
ATOM      6  C   UNL     1       6.127  -6.042   0.000  0.00  0.00    +0.000 A 
ATOM      7  F   UNL     1       8.601  -6.107   0.000  0.00  0.00    +0.000 F 
ENDROOT
BRANCH   1  10
ATOM      8  C   UNL     1       5.154  -4.030   0.000  0.00  0.00    +0.000 C 
ATOM      9  C   UNL     1       5.951  -3.817   0.000  0.00  0.00    +0.000 C 
ATOM     10  C   UNL     1       6.165  -4.613   0.000  0.00  0.00    +0.000 C 
ATOM     11  C   UNL     1       5.368  -4.827   0.000  0.00  0.00    +0.000 C 
ATOM     12  F   UNL     1       6.989  -4.592   0.000  0.00  0.00    +0.000 F 
BRANCH   8  14
ATOM     13  N   UNL     1       3.725  -4.030   0.000  0.00  0.00    +0.000 NA
ATOM     14  C   UNL     1       4.440  -3.618   0.000  0.00  0.00    +0.000 C 
ATOM     15  O   UNL     1       4.440  -2.793   0.000  0.00  0.00    +0.000 OA
BRANCH  13  16
ATOM     16  C   UNL     1       3.011  -3.618   0.000  0.00  0.00    +0.000 C 
BRANCH  16  18
ATOM     17  C   UNL     1       1.582  -3.618   0.000  0.00  0.00    +0.000 C 
ATOM     18  C   UNL     1       2.296  -4.030   0.000  0.00  0.00    +0.000 C 
ATOM     19  C   UNL     1       2.296  -4.855   0.000  0.00  0.00    +0.000 C 
ENDBRANCH  16  18
ENDBRANCH  13  16
ENDBRANCH   8  14
ENDBRANCH   1  10
BRANCH   4  20
ATOM     20  C   UNL     1       7.739  -7.513   0.000  0.00  0.00    +0.000 C 
BRANCH  20  21
ATOM     21  N   UNL     1       8.564  -7.535   0.000  0.00  0.00    +0.000 NA
ATOM     22  C   UNL     1       9.066  -6.881   0.000  0.00  0.00    +0.000 C 
ATOM     23  C   UNL     1       9.844  -7.156   0.000  0.00  0.00    +0.000 C 
ATOM     24  C   UNL     1       9.822  -7.981   0.000  0.00  0.00    +0.000 C 
ATOM     25  C   UNL     1       9.031  -8.215   0.000  0.00  0.00    +0.000 C 
ENDBRANCH  20  21
ENDBRANCH   4  20
TORSDOF 6
