REMARK  Name = 
REMARK  0 active torsions:
REMARK  status: ('A' for Active; 'I' for Inactive)
REMARK                            x       y       z     vdW  Elec       q    Type
REMARK                         _______ _______ _______ _____ _____    ______ ____
ROOT
ATOM      1 FE   UNL     1      -0.128  -1.050   0.000  0.00  0.00    +0.000 Fe
ENDROOT
TORSDOF 0
REMARK  Name = 
REMARK  0 active torsions:
REMARK  status: ('A' for Active; 'I' for Inactive)
REMARK                            x       y       z     vdW  Elec       q    Type
REMARK                         _______ _______ _______ _____ _____    ______ ____
ROOT
ATOM      1  S   UNL     1       0.000   0.467   0.000  0.00  0.00    +0.000 S 
ATOM      2  O   UNL     1       0.583   1.050   0.000  0.00  0.00    +0.000 OA
ATOM      3  O   UNL     1      -0.583  -0.116   0.000  0.00  0.00    +0.000 OA
ATOM      4  O   UNL     1      -0.583   1.050   0.000  0.00  0.00    +0.000 OA
ATOM      5  O   UNL     1       0.583  -0.116   0.000  0.00  0.00    +0.000 OA
ENDROOT
TORSDOF 0
