REMARK  Name = 
REMARK  5 active torsions:
REMARK  status: ('A' for Active; 'I' for Inactive)
REMARK    1  A    between atoms: C_1  and  C_2
REMARK    2  A    between atoms: C_2  and  C_3
REMARK    3  A    between atoms: C_3  and  C_4
REMARK    4  A    between atoms: C_4  and  C_5
REMARK    5  A    between atoms: C_5  and  C_12
REMARK                            x       y       z     vdW  Elec       q    Type
REMARK                         _______ _______ _______ _____ _____    ______ ____
ROOT
ATOM      1  C   UNL     1       0.357   0.206   0.000  0.00  0.00    +0.000 C 
ATOM      2  O   UNL     1       0.357   1.031   0.000  0.00  0.00    +0.000 OA
ENDROOT
BRANCH   1   3
ATOM      3  C   UNL     1       1.072  -0.206   0.000  0.00  0.00    +0.000 C 
ATOM      4  O   UNL     1       1.072  -1.031   0.000  0.00  0.00    +0.000 OA
BRANCH   3   5
ATOM      5  C   UNL     1       1.786   0.206   0.000  0.00  0.00    +0.000 C 
ATOM      6  O   UNL     1       1.786   1.031   0.000  0.00  0.00    +0.000 OA
ENDBRANCH   3   5
ENDBRANCH   1   3
BRANCH   1   7
ATOM      7  C   UNL     1      -0.357  -0.206   0.000  0.00  0.00    +0.000 C 
ATOM      8  O   UNL     1      -0.357  -1.031   0.000  0.00  0.00    +0.000 OA
BRANCH   7   9
ATOM      9  C   UNL     1      -1.072   0.206   0.000  0.00  0.00    +0.000 C 
ATOM     10  O   UNL     1      -1.072   1.031   0.000  0.00  0.00    +0.000 OA
BRANCH   9  11
ATOM     11  C   UNL     1      -1.786  -0.206   0.000  0.00  0.00    +0.000 C 
ATOM     12  O   UNL     1      -2.501   0.206   0.000  0.00  0.00    +0.000 OA
ENDBRANCH   9  11
ENDBRANCH   7   9
ENDBRANCH   1   7
TORSDOF 5
