REMARK  Name = 
REMARK  9 active torsions:
REMARK  status: ('A' for Active; 'I' for Inactive)
REMARK    1  A    between atoms: N_5  and  C_14
REMARK    2  A    between atoms: C_9  and  C_10
REMARK    3  A    between atoms: C_19  and  C_21
REMARK    4  A    between atoms: C_21  and  O_23
REMARK    5  A    between atoms: O_23  and  C_24
REMARK    6  A    between atoms: C_24  and  C_27
REMARK    7  A    between atoms: C_27  and  O_29
REMARK    8  A    between atoms: O_29  and  C_30
REMARK    9  A    between atoms: C_30  and  C_31
REMARK                            x       y       z     vdW  Elec       q    Type
REMARK                         _______ _______ _______ _____ _____    ______ ____
ROOT
ATOM      1  C   UNL     1       2.143  -2.888   0.000  0.00  0.00    +0.000 A 
ATOM      2  C   UNL     1       2.858  -2.475   0.000  0.00  0.00    +0.000 A 
ATOM      3  C   UNL     1       3.572  -2.888   0.000  0.00  0.00    +0.000 A 
ATOM      4  C   UNL     1       3.572  -3.712   0.000  0.00  0.00    +0.000 A 
ATOM      5 CL   UNL     1       4.287  -4.125   0.000  0.00  0.00    +0.000 Cl
ATOM      6  C   UNL     1       2.858  -4.125   0.000  0.00  0.00    +0.000 A 
ATOM      7  C   UNL     1       2.143  -3.712   0.000  0.00  0.00    +0.000 A 
ENDROOT
BRANCH   1  12
ATOM      8  C   UNL     1       0.715  -0.412   0.000  0.00  0.00    +0.000 C 
ATOM      9  N   UNL     1       0.715  -1.238   0.000  0.00  0.00    +0.000 N 
ATOM     10  C   UNL     1       1.429  -1.650   0.000  0.00  0.00    +0.000 A 
ATOM     11  O   UNL     1       2.143  -1.238   0.000  0.00  0.00    +0.000 OA
ATOM     12  N   UNL     1       1.429  -2.475   0.000  0.00  0.00    +0.000 N 
ATOM     13  C   UNL     1       0.715  -2.888   0.000  0.00  0.00    +0.000 A 
ATOM     14  O   UNL     1       0.715  -3.712   0.000  0.00  0.00    +0.000 OA
ATOM     15  C   UNL     1       0.000  -2.475   0.000  0.00  0.00    +0.000 A 
ATOM     16  C   UNL     1       0.000  -1.650   0.000  0.00  0.00    +0.000 A 
BRANCH  16  17
ATOM     17  C   UNL     1      -0.715  -1.238   0.000  0.00  0.00    +0.000 C 
ATOM     18  F   UNL     1      -1.429  -0.825   0.000  0.00  0.00    +0.000 F 
ATOM     19  F   UNL     1      -1.127  -1.952   0.000  0.00  0.00    +0.000 F 
ATOM     20  F   UNL     1      -0.302  -0.523   0.000  0.00  0.00    +0.000 F 
ENDBRANCH  16  17
ENDBRANCH   1  12
BRANCH   6  21
ATOM     21  C   UNL     1       2.858  -4.950   0.000  0.00  0.00    +0.000 C 
ATOM     22  O   UNL     1       3.572  -5.362   0.000  0.00  0.00    +0.000 OA
BRANCH  21  23
ATOM     23  O   UNL     1       2.143  -5.362   0.000  0.00  0.00    +0.000 OA
BRANCH  23  24
ATOM     24  C   UNL     1       2.143  -6.188   0.000  0.00  0.00    +0.000 C 
ATOM     25  C   UNL     1       1.318  -6.188   0.000  0.00  0.00    +0.000 C 
ATOM     26  C   UNL     1       2.968  -6.188   0.000  0.00  0.00    +0.000 C 
BRANCH  24  27
ATOM     27  C   UNL     1       2.143  -7.013   0.000  0.00  0.00    +0.000 C 
ATOM     28  O   UNL     1       2.858  -7.425   0.000  0.00  0.00    +0.000 OA
BRANCH  27  29
ATOM     29  O   UNL     1       1.429  -7.425   0.000  0.00  0.00    +0.000 OA
BRANCH  29  30
ATOM     30  C   UNL     1       1.429  -8.250   0.000  0.00  0.00    +0.000 C 
BRANCH  30  31
ATOM     31  C   UNL     1       0.715  -8.662   0.000  0.00  0.00    +0.000 C 
ATOM     32  C   UNL     1       0.715  -9.488   0.000  0.00  0.00    +0.000 C 
ENDBRANCH  30  31
ENDBRANCH  29  30
ENDBRANCH  27  29
ENDBRANCH  24  27
ENDBRANCH  23  24
ENDBRANCH  21  23
ENDBRANCH   6  21
TORSDOF 9
