REMARK  Name = 
REMARK  15 active torsions:
REMARK  status: ('A' for Active; 'I' for Inactive)
REMARK    1  A    between atoms: C_10  and  O_31
REMARK    2  A    between atoms: C_13  and  O_31
REMARK    3  A    between atoms: C_14  and  O_32
REMARK    4  A    between atoms: C_20  and  O_50
REMARK    5  A    between atoms: C_22  and  O_32
REMARK    6  A    between atoms: C_26  and  O_51
REMARK    7  A    between atoms: C_27  and  C_47
REMARK    8  A    between atoms: C_76  and  O_97
REMARK    9  A    between atoms: C_79  and  O_97
REMARK   10  A    between atoms: C_80  and  O_98
REMARK   11  A    between atoms: C_86  and  O_116
REMARK   12  A    between atoms: C_88  and  O_98
REMARK   13  A    between atoms: C_92  and  O_117
REMARK   14  A    between atoms: C_93  and  C_113
REMARK   15  A    between atoms: C_113  and  C_124
REMARK                            x       y       z     vdW  Elec       q    Type
REMARK                         _______ _______ _______ _____ _____    ______ ____
ROOT
ATOM      1  C   UNL     1       3.023  -5.219   0.000  0.00  0.00    +0.000 C 
ATOM      2  C   UNL     1       2.286  -5.660   0.000  0.00  0.00    +0.000 C 
ATOM      3  C   UNL     1       2.286  -6.485   0.000  0.00  0.00    +0.000 C 
ATOM      4  C   UNL     1       3.008  -4.371   0.000  0.00  0.00    +0.000 C 
ATOM      5  C   UNL     1       3.702  -5.617   0.000  0.00  0.00    +0.000 C 
ATOM      6  C   UNL     1       4.468  -1.908   0.000  0.00  0.00    +0.000 C 
ATOM      7  C   UNL     1       3.702  -6.485   0.000  0.00  0.00    +0.000 C 
ATOM      8  O   UNL     1       1.491  -6.771   0.000  0.00  0.00    +0.000 OA
ATOM      9  C   UNL     1       1.491  -5.428   0.000  0.00  0.00    +0.000 C 
ATOM     10  C   UNL     1       3.023  -6.882   0.000  0.00  0.00    +0.000 C 
ATOM     11  O   UNL     1       5.219  -2.344   0.000  0.00  0.00    +0.000 OA
ATOM     12  O   UNL     1       3.702  -3.993   0.000  0.00  0.00    +0.000 OA
ATOM     13  C   UNL     1       0.114  -1.855   0.000  0.00  0.00    +0.000 C 
ATOM     14  C   UNL     1       4.468  -2.747   0.000  0.00  0.00    +0.000 C 
ATOM     15  O   UNL     1       3.726  -1.496   0.000  0.00  0.00    +0.000 OA
ATOM     16  C   UNL     1       5.854  -1.927   0.000  0.00  0.00    +0.000 C 
ATOM     17  C   UNL     1       3.702  -3.154   0.000  0.00  0.00    +0.000 C 
ATOM     18  C   UNL     1       0.856  -1.447   0.000  0.00  0.00    +0.000 C 
ATOM     19  C   UNL     1       1.573  -1.855   0.000  0.00  0.00    +0.000 C 
ATOM     20  C   UNL     1       1.016  -6.044   0.000  0.00  0.00    +0.000 C 
ATOM     21  C   UNL     1       1.491  -4.589   0.000  0.00  0.00    +0.000 C 
ATOM     22  O   UNL     1       2.286  -3.949   0.000  0.00  0.00    +0.000 OA
ATOM     23  C   UNL     1       0.938  -4.182   0.000  0.00  0.00    +0.000 C 
ATOM     24  C   UNL     1       3.023  -2.737   0.000  0.00  0.00    +0.000 C 
ATOM     25  C   UNL     1       3.023  -1.869   0.000  0.00  0.00    +0.000 C 
ATOM     26  C   UNL     1       0.114  -2.747   0.000  0.00  0.00    +0.000 C 
ATOM     27  C   UNL     1       5.854  -1.147   0.000  0.00  0.00    +0.000 C 
ATOM     28  C   UNL     1       0.938  -3.285   0.000  0.00  0.00    +0.000 C 
ATOM     29  O   UNL     1       2.300  -4.822   0.000  0.00  0.00    +0.000 OA
ATOM     30  C   UNL     1       4.478  -1.147   0.000  0.00  0.00    +0.000 C 
ATOM     31  C   UNL     1       5.219  -0.730   0.000  0.00  0.00    +0.000 C 
ATOM     32  C   UNL     1       2.300  -1.447   0.000  0.00  0.00    +0.000 C 
ATOM     33  O   UNL     1       3.037  -7.706   0.000  0.00  0.00    +0.000 OA
ATOM     34  C   UNL     1       4.400  -6.916   0.000  0.00  0.00    +0.000 C 
ATOM     35  C   UNL     1       0.856  -0.628   0.000  0.00  0.00    +0.000 C 
ATOM     36  C   UNL     1      -0.604  -3.154   0.000  0.00  0.00    +0.000 C 
ATOM     37  C   UNL     1       6.553  -0.715   0.000  0.00  0.00    +0.000 C 
ENDROOT
BRANCH  16  38
ATOM     38  C   UNL     1       6.509  -2.305   0.000  0.00  0.00    +0.000 C 
ATOM     39  C   UNL     1       6.509  -3.062   0.000  0.00  0.00    +0.000 C 
ATOM     40  C   UNL     1       7.163  -1.927   0.000  0.00  0.00    +0.000 C 
ENDBRANCH  16  38
BRANCH  13  41
ATOM     41  O   UNL     1      -0.652  -1.404   0.000  0.00  0.00    +0.000 OA
BRANCH  41  43
ATOM     42  C   UNL     1      -3.013  -1.821   0.000  0.00  0.00    +0.000 C 
ATOM     43  C   UNL     1      -1.360  -1.821   0.000  0.00  0.00    +0.000 C 
ATOM     44  O   UNL     1      -1.772  -1.108   0.000  0.00  0.00    +0.000 OA
ATOM     45  C   UNL     1      -1.772  -2.533   0.000  0.00  0.00    +0.000 C 
ATOM     46  C   UNL     1      -2.596  -2.533   0.000  0.00  0.00    +0.000 C 
ATOM     47  C   UNL     1      -2.596  -1.108   0.000  0.00  0.00    +0.000 C 
ATOM     48  C   UNL     1      -3.009  -0.395   0.000  0.00  0.00    +0.000 C 
BRANCH  46  49
ATOM     49  O   UNL     1      -3.009  -3.246   0.000  0.00  0.00    +0.000 OA
ATOM     50  C   UNL     1      -2.591  -3.959   0.000  0.00  0.00    +0.000 C 
ENDBRANCH  46  49
BRANCH  42  51
ATOM     51  O   UNL     1      -3.833  -1.825   0.000  0.00  0.00    +0.000 OA
BRANCH  51  52
ATOM     52  C   UNL     1      -4.545  -2.242   0.000  0.00  0.00    +0.000 C 
ATOM     53  O   UNL     1      -4.953  -1.530   0.000  0.00  0.00    +0.000 OA
ATOM     54  C   UNL     1      -4.953  -2.955   0.000  0.00  0.00    +0.000 C 
ATOM     55  C   UNL     1      -6.194  -2.242   0.000  0.00  0.00    +0.000 C 
ATOM     56  C   UNL     1      -5.777  -2.955   0.000  0.00  0.00    +0.000 C 
ATOM     57  C   UNL     1      -5.777  -1.530   0.000  0.00  0.00    +0.000 C 
ATOM     58  O   UNL     1      -7.018  -2.242   0.000  0.00  0.00    +0.000 OA
ATOM     59  C   UNL     1      -6.189  -0.812   0.000  0.00  0.00    +0.000 C 
BRANCH  56  60
ATOM     60  O   UNL     1      -6.189  -3.668   0.000  0.00  0.00    +0.000 OA
ATOM     61  C   UNL     1      -5.777  -4.380   0.000  0.00  0.00    +0.000 C 
ENDBRANCH  56  60
ENDBRANCH  51  52
ENDBRANCH  42  51
ENDBRANCH  41  43
ENDBRANCH  13  41
TORSDOF 7
REMARK  Name = 
REMARK  15 active torsions:
REMARK  status: ('A' for Active; 'I' for Inactive)
REMARK    1  A    between atoms: C_10  and  O_31
REMARK    2  A    between atoms: C_13  and  O_31
REMARK    3  A    between atoms: C_14  and  O_32
REMARK    4  A    between atoms: C_20  and  O_50
REMARK    5  A    between atoms: C_22  and  O_32
REMARK    6  A    between atoms: C_26  and  O_51
REMARK    7  A    between atoms: C_27  and  C_47
REMARK    8  A    between atoms: C_76  and  O_97
REMARK    9  A    between atoms: C_79  and  O_97
REMARK   10  A    between atoms: C_80  and  O_98
REMARK   11  A    between atoms: C_86  and  O_116
REMARK   12  A    between atoms: C_88  and  O_98
REMARK   13  A    between atoms: C_92  and  O_117
REMARK   14  A    between atoms: C_93  and  C_113
REMARK   15  A    between atoms: C_113  and  C_124
REMARK                            x       y       z     vdW  Elec       q    Type
REMARK                         _______ _______ _______ _____ _____    ______ ____
ROOT
ATOM      1  C   UNL     1       2.877   2.882   0.000  0.00  0.00    +0.000 C 
ATOM      2  C   UNL     1       2.140   2.441   0.000  0.00  0.00    +0.000 C 
ATOM      3  C   UNL     1       2.140   1.617   0.000  0.00  0.00    +0.000 C 
ATOM      4  C   UNL     1       2.863   3.731   0.000  0.00  0.00    +0.000 C 
ATOM      5  C   UNL     1       3.556   2.485   0.000  0.00  0.00    +0.000 C 
ATOM      6  C   UNL     1       4.322   6.194   0.000  0.00  0.00    +0.000 C 
ATOM      7  C   UNL     1       3.556   1.617   0.000  0.00  0.00    +0.000 C 
ATOM      8  O   UNL     1       1.345   1.331   0.000  0.00  0.00    +0.000 OA
ATOM      9  C   UNL     1       1.345   2.674   0.000  0.00  0.00    +0.000 C 
ATOM     10  C   UNL     1       2.877   1.219   0.000  0.00  0.00    +0.000 C 
ATOM     11  O   UNL     1       5.074   5.757   0.000  0.00  0.00    +0.000 OA
ATOM     12  O   UNL     1       3.556   4.109   0.000  0.00  0.00    +0.000 OA
ATOM     13  C   UNL     1      -0.031   6.247   0.000  0.00  0.00    +0.000 C 
ATOM     14  C   UNL     1       4.322   5.355   0.000  0.00  0.00    +0.000 C 
ATOM     15  O   UNL     1       3.580   6.606   0.000  0.00  0.00    +0.000 OA
ATOM     16  C   UNL     1       5.709   6.174   0.000  0.00  0.00    +0.000 C 
ATOM     17  C   UNL     1       3.556   4.948   0.000  0.00  0.00    +0.000 C 
ATOM     18  C   UNL     1       0.710   6.654   0.000  0.00  0.00    +0.000 C 
ATOM     19  C   UNL     1       1.428   6.247   0.000  0.00  0.00    +0.000 C 
ATOM     20  C   UNL     1       0.870   2.058   0.000  0.00  0.00    +0.000 C 
ATOM     21  C   UNL     1       1.345   3.513   0.000  0.00  0.00    +0.000 C 
ATOM     22  O   UNL     1       2.140   4.153   0.000  0.00  0.00    +0.000 OA
ATOM     23  C   UNL     1       0.793   3.920   0.000  0.00  0.00    +0.000 C 
ATOM     24  C   UNL     1       2.877   5.365   0.000  0.00  0.00    +0.000 C 
ATOM     25  C   UNL     1       2.877   6.232   0.000  0.00  0.00    +0.000 C 
ATOM     26  C   UNL     1      -0.031   5.355   0.000  0.00  0.00    +0.000 C 
ATOM     27  C   UNL     1       5.709   6.955   0.000  0.00  0.00    +0.000 C 
ATOM     28  C   UNL     1       0.793   4.817   0.000  0.00  0.00    +0.000 C 
ATOM     29  O   UNL     1       2.155   3.280   0.000  0.00  0.00    +0.000 OA
ATOM     30  C   UNL     1       4.332   6.955   0.000  0.00  0.00    +0.000 C 
ATOM     31  C   UNL     1       5.074   7.372   0.000  0.00  0.00    +0.000 C 
ATOM     32  C   UNL     1       2.155   6.654   0.000  0.00  0.00    +0.000 C 
ATOM     33  O   UNL     1       2.892   0.395   0.000  0.00  0.00    +0.000 OA
ATOM     34  C   UNL     1       4.254   1.185   0.000  0.00  0.00    +0.000 C 
ATOM     35  C   UNL     1       0.710   7.474   0.000  0.00  0.00    +0.000 C 
ATOM     36  C   UNL     1      -0.749   4.948   0.000  0.00  0.00    +0.000 C 
ATOM     37  C   UNL     1       6.407   7.386   0.000  0.00  0.00    +0.000 C 
ENDROOT
BRANCH  16  38
ATOM     38  C   UNL     1       6.363   5.796   0.000  0.00  0.00    +0.000 C 
ATOM     39  C   UNL     1       7.018   6.174   0.000  0.00  0.00    +0.000 C 
BRANCH  38  40
ATOM     40  C   UNL     1       6.363   5.040   0.000  0.00  0.00    +0.000 C 
ATOM     41  C   UNL     1       7.018   4.662   0.000  0.00  0.00    +0.000 C 
ENDBRANCH  38  40
ENDBRANCH  16  38
BRANCH  13  42
ATOM     42  O   UNL     1      -0.797   6.698   0.000  0.00  0.00    +0.000 OA
BRANCH  42  44
ATOM     43  C   UNL     1      -3.159   6.281   0.000  0.00  0.00    +0.000 C 
ATOM     44  C   UNL     1      -1.505   6.281   0.000  0.00  0.00    +0.000 C 
ATOM     45  O   UNL     1      -1.917   6.994   0.000  0.00  0.00    +0.000 OA
ATOM     46  C   UNL     1      -1.917   5.568   0.000  0.00  0.00    +0.000 C 
ATOM     47  C   UNL     1      -2.742   5.568   0.000  0.00  0.00    +0.000 C 
ATOM     48  C   UNL     1      -2.742   6.994   0.000  0.00  0.00    +0.000 C 
ATOM     49  C   UNL     1      -3.154   7.706   0.000  0.00  0.00    +0.000 C 
BRANCH  47  50
ATOM     50  O   UNL     1      -3.154   4.856   0.000  0.00  0.00    +0.000 OA
ATOM     51  C   UNL     1      -2.737   4.143   0.000  0.00  0.00    +0.000 C 
ENDBRANCH  47  50
BRANCH  43  52
ATOM     52  O   UNL     1      -3.978   6.276   0.000  0.00  0.00    +0.000 OA
BRANCH  52  53
ATOM     53  C   UNL     1      -4.691   5.859   0.000  0.00  0.00    +0.000 C 
ATOM     54  O   UNL     1      -5.098   6.572   0.000  0.00  0.00    +0.000 OA
ATOM     55  C   UNL     1      -5.098   5.146   0.000  0.00  0.00    +0.000 C 
ATOM     56  C   UNL     1      -6.339   5.859   0.000  0.00  0.00    +0.000 C 
ATOM     57  C   UNL     1      -5.922   5.146   0.000  0.00  0.00    +0.000 C 
ATOM     58  C   UNL     1      -5.922   6.572   0.000  0.00  0.00    +0.000 C 
ATOM     59  O   UNL     1      -7.163   5.859   0.000  0.00  0.00    +0.000 OA
ATOM     60  C   UNL     1      -6.335   7.290   0.000  0.00  0.00    +0.000 C 
BRANCH  57  61
ATOM     61  O   UNL     1      -6.335   4.434   0.000  0.00  0.00    +0.000 OA
ATOM     62  C   UNL     1      -5.922   3.721   0.000  0.00  0.00    +0.000 C 
ENDBRANCH  57  61
ENDBRANCH  52  53
ENDBRANCH  43  52
ENDBRANCH  42  44
ENDBRANCH  13  42
TORSDOF 8
