REMARK  Name = 
REMARK  5 active torsions:
REMARK  status: ('A' for Active; 'I' for Inactive)
REMARK    1  A    between atoms: C_5  and  C_8
REMARK    2  A    between atoms: C_8  and  O_9
REMARK    3  A    between atoms: O_9  and  C_10
REMARK    4  A    between atoms: C_15  and  C_19
REMARK    5  A    between atoms: C_19  and  N_20
REMARK                            x       y       z     vdW  Elec       q    Type
REMARK                         _______ _______ _______ _____ _____    ______ ____
ROOT
ATOM      1  C   UNL     1       2.858  -9.900   0.000  0.00  0.00    +0.000 C 
ATOM      2  O   UNL     1       3.572 -10.312   0.000  0.00  0.00    +0.000 OA
ATOM      3  N   UNL     1       2.143 -10.312   0.000  0.00  0.00    +0.000 N 
ATOM      4  C   UNL     1       2.143 -11.137   0.000  0.00  0.00    +0.000 C 
ATOM      5  C   UNL     1       1.429 -11.550   0.000  0.00  0.00    +0.000 C 
ATOM      6  C   UNL     1       0.715 -11.137   0.000  0.00  0.00    +0.000 C 
ATOM      7  C   UNL     1       0.715 -10.312   0.000  0.00  0.00    +0.000 C 
ATOM      8  C   UNL     1       1.429  -9.900   0.000  0.00  0.00    +0.000 C 
ATOM      9  F   UNL     1       0.000  -9.900   0.000  0.00  0.00    +0.000 F 
ENDROOT
BRANCH   1  10
ATOM     10  O   UNL     1       2.858  -9.075   0.000  0.00  0.00    +0.000 OA
BRANCH  10  11
ATOM     11  C   UNL     1       3.572  -8.662   0.000  0.00  0.00    +0.000 C 
BRANCH  11  16
ATOM     12  C   UNL     1       3.572  -5.362   0.000  0.00  0.00    +0.000 C 
ATOM     13  C   UNL     1       3.572  -6.188   0.000  0.00  0.00    +0.000 A 
ATOM     14  C   UNL     1       4.287  -6.600   0.000  0.00  0.00    +0.000 A 
ATOM     15  C   UNL     1       4.287  -7.425   0.000  0.00  0.00    +0.000 A 
ATOM     16  C   UNL     1       3.572  -7.838   0.000  0.00  0.00    +0.000 A 
ATOM     17  C   UNL     1       2.858  -7.425   0.000  0.00  0.00    +0.000 A 
ATOM     18  C   UNL     1       2.858  -6.600   0.000  0.00  0.00    +0.000 A 
ENDBRANCH  11  16
ENDBRANCH  10  11
ENDBRANCH   1  10
BRANCH   6  19
ATOM     19  C   UNL     1       0.000 -11.550   0.000  0.00  0.00    +0.000 C 
BRANCH  19  20
ATOM     20  N   UNL     1       0.000 -12.375   0.000  0.00  0.00    +0.000 NA
ATOM     21  C   UNL     1      -0.715 -12.787   0.000  0.00  0.00    +0.000 A 
ATOM     22  N   UNL     1      -0.715 -13.613   0.000  0.00  0.00    +0.000 NA
ATOM     23  C   UNL     1      -1.429 -14.025   0.000  0.00  0.00    +0.000 A 
ATOM     24  C   UNL     1      -2.143 -13.613   0.000  0.00  0.00    +0.000 A 
ATOM     25  C   UNL     1      -2.143 -12.787   0.000  0.00  0.00    +0.000 A 
ATOM     26  N   UNL     1      -1.429 -12.375   0.000  0.00  0.00    +0.000 NA
ENDBRANCH  19  20
ENDBRANCH   6  19
TORSDOF 5
