REMARK  Name = 
REMARK  20 active torsions:
REMARK  status: ('A' for Active; 'I' for Inactive)
REMARK    1  A    between atoms: C_2  and  C_3
REMARK    2  A    between atoms: C_3  and  C_4
REMARK    3  A    between atoms: C_4  and  C_5
REMARK    4  A    between atoms: C_5  and  C_6
REMARK    5  A    between atoms: C_6  and  C_7
REMARK    6  A    between atoms: C_7  and  C_8
REMARK    7  A    between atoms: C_8  and  C_9
REMARK    8  A    between atoms: C_10  and  C_11
REMARK    9  A    between atoms: C_11  and  C_12
REMARK   10  A    between atoms: C_12  and  C_13
REMARK   11  A    between atoms: C_13  and  C_14
REMARK   12  A    between atoms: C_14  and  C_15
REMARK   13  A    between atoms: C_15  and  C_16
REMARK   14  A    between atoms: C_16  and  C_17
REMARK   15  A    between atoms: C_17  and  C_18
REMARK   16  A    between atoms: C_18  and  O_20
REMARK   17  A    between atoms: O_20  and  C_21
REMARK   18  A    between atoms: C_21  and  C_22
REMARK   19  A    between atoms: C_24  and  N_29
REMARK   20  A    between atoms: C_32  and  C_34
REMARK                            x       y       z     vdW  Elec       q    Type
REMARK                         _______ _______ _______ _____ _____    ______ ____
ROOT
ATOM      1  C   UNL     1       6.260  -8.750   0.000  0.00  0.00    +0.000 C 
ATOM      2  O   UNL     1       6.260  -7.925   0.000  0.00  0.00    +0.000 OA
ENDROOT
BRANCH   1   3
ATOM      3  C   UNL     1       5.545  -9.162   0.000  0.00  0.00    +0.000 C 
BRANCH   3   4
ATOM      4  C   UNL     1       4.831  -8.750   0.000  0.00  0.00    +0.000 C 
BRANCH   4   5
ATOM      5  C   UNL     1       4.116  -9.162   0.000  0.00  0.00    +0.000 C 
BRANCH   5   6
ATOM      6  C   UNL     1       3.402  -8.750   0.000  0.00  0.00    +0.000 C 
BRANCH   6   7
ATOM      7  C   UNL     1       2.688  -9.162   0.000  0.00  0.00    +0.000 C 
BRANCH   7   8
ATOM      8  C   UNL     1       1.973  -8.750   0.000  0.00  0.00    +0.000 C 
BRANCH   8   9
ATOM      9  C   UNL     1       1.258  -9.162   0.000  0.00  0.00    +0.000 C 
BRANCH   9  11
ATOM     10  C   UNL     1       0.544  -7.925   0.000  0.00  0.00    +0.000 C 
ATOM     11  C   UNL     1       0.544  -8.750   0.000  0.00  0.00    +0.000 C 
BRANCH  10  12
ATOM     12  C   UNL     1      -0.170  -7.512   0.000  0.00  0.00    +0.000 C 
BRANCH  12  13
ATOM     13  C   UNL     1      -0.170  -6.687   0.000  0.00  0.00    +0.000 C 
BRANCH  13  14
ATOM     14  C   UNL     1      -0.885  -6.275   0.000  0.00  0.00    +0.000 C 
BRANCH  14  15
ATOM     15  C   UNL     1      -0.885  -5.450   0.000  0.00  0.00    +0.000 C 
BRANCH  15  16
ATOM     16  C   UNL     1      -1.599  -5.037   0.000  0.00  0.00    +0.000 C 
BRANCH  16  17
ATOM     17  C   UNL     1      -1.599  -4.212   0.000  0.00  0.00    +0.000 C 
BRANCH  17  19
ATOM     18  C   UNL     1      -2.314  -2.975   0.000  0.00  0.00    +0.000 C 
ATOM     19  C   UNL     1      -2.314  -3.800   0.000  0.00  0.00    +0.000 C 
ENDBRANCH  17  19
ENDBRANCH  16  17
ENDBRANCH  15  16
ENDBRANCH  14  15
ENDBRANCH  13  14
ENDBRANCH  12  13
ENDBRANCH  10  12
ENDBRANCH   9  11
ENDBRANCH   8   9
ENDBRANCH   7   8
ENDBRANCH   6   7
ENDBRANCH   5   6
ENDBRANCH   4   5
ENDBRANCH   3   4
ENDBRANCH   1   3
BRANCH   1  20
ATOM     20  O   UNL     1       6.974  -9.162   0.000  0.00  0.00    +0.000 OA
BRANCH  20  21
ATOM     21  C   UNL     1       7.689  -8.750   0.000  0.00  0.00    +0.000 C 
BRANCH  21  22
ATOM     22  C   UNL     1       8.403  -9.162   0.000  0.00  0.00    +0.000 C 
ATOM     23  O   UNL     1       9.157  -8.827   0.000  0.00  0.00    +0.000 OA
ATOM     24  C   UNL     1       9.709  -9.440   0.000  0.00  0.00    +0.000 C 
ATOM     25  C   UNL     1       9.296 -10.154   0.000  0.00  0.00    +0.000 C 
ATOM     26  O   UNL     1       9.632 -10.908   0.000  0.00  0.00    +0.000 OA
ATOM     27  C   UNL     1       8.489  -9.983   0.000  0.00  0.00    +0.000 C 
ATOM     28  O   UNL     1       7.876 -10.535   0.000  0.00  0.00    +0.000 OA
BRANCH  24  29
ATOM     29  N   UNL     1      10.529  -9.354   0.000  0.00  0.00    +0.000 N 
ATOM     30  C   UNL     1      10.942  -8.639   0.000  0.00  0.00    +0.000 A 
ATOM     31  N   UNL     1      11.749  -8.811   0.000  0.00  0.00    +0.000 NA
ATOM     32  C   UNL     1      11.835  -9.631   0.000  0.00  0.00    +0.000 A 
ATOM     33  N   UNL     1      11.082  -9.967   0.000  0.00  0.00    +0.000 NA
BRANCH  32  34
ATOM     34  C   UNL     1      12.550 -10.044   0.000  0.00  0.00    +0.000 C 
ATOM     35  N   UNL     1      13.264  -9.631   0.000  0.00  0.00    +0.000 NA
ATOM     36  O   UNL     1      12.550 -10.869   0.000  0.00  0.00    +0.000 OA
ENDBRANCH  32  34
ENDBRANCH  24  29
ENDBRANCH  21  22
ENDBRANCH  20  21
ENDBRANCH   1  20
TORSDOF 20
