REMARK  Name = 
REMARK  5 active torsions:
REMARK  status: ('A' for Active; 'I' for Inactive)
REMARK    1  A    between atoms: N_1  and  C_10
REMARK    2  A    between atoms: P_6  and  C_12
REMARK    3  A    between atoms: C_10  and  C_15
REMARK    4  A    between atoms: C_12  and  O_13
REMARK    5  A    between atoms: O_13  and  C_15
REMARK                            x       y       z     vdW  Elec       q    Type
REMARK                         _______ _______ _______ _____ _____    ______ ____
ROOT
ATOM      1  N   UNL     1      -0.772  -0.302   0.000  0.00  0.00    +0.000 N 
ATOM      2  C   UNL     1      -1.185   0.967   0.000  0.00  0.00    +0.000 A 
ATOM      3  C   UNL     1      -1.440   0.182   0.000  0.00  0.00    +0.000 A 
ATOM      4  N   UNL     1      -0.360   0.967   0.000  0.00  0.00    +0.000 NA
ATOM      5  C   UNL     1      -0.105   0.182   0.000  0.00  0.00    +0.000 A 
ATOM      6  C   UNL     1      -1.737   1.580   0.000  0.00  0.00    +0.000 A 
ATOM      7  N   UNL     1      -2.247   0.011   0.000  0.00  0.00    +0.000 NA
ATOM      8  N   UNL     1      -2.544   1.409   0.000  0.00  0.00    +0.000 NA
ATOM      9  C   UNL     1      -2.799   0.624   0.000  0.00  0.00    +0.000 A 
ATOM     10  N   UNL     1      -1.482   2.365   0.000  0.00  0.00    +0.000 NA
ENDROOT
BRANCH   1  11
ATOM     11  C   UNL     1      -0.772  -1.127   0.000  0.00  0.00    +0.000 C 
BRANCH  11  12
ATOM     12  C   UNL     1      -0.058  -1.540   0.000  0.00  0.00    +0.000 C 
ATOM     13  C   UNL     1      -0.058  -2.365   0.000  0.00  0.00    +0.000 C 
BRANCH  12  14
ATOM     14  O   UNL     1       0.657  -1.127   0.000  0.00  0.00    +0.000 OA
BRANCH  14  15
ATOM     15  C   UNL     1       1.371  -1.540   0.000  0.00  0.00    +0.000 C 
BRANCH  15  16
ATOM     16  P   UNL     1       2.086  -1.127   0.000  0.00  0.00    +0.000 P 
ATOM     17  O   UNL     1       2.799  -1.533   0.000  0.00  0.00    +0.000 OA
ATOM     18  O   UNL     1       2.083  -0.301   0.000  0.00  0.00    +0.000 OA
ATOM     19  O   UNL     1       2.302  -1.921   0.000  0.00  0.00    +0.000 OA
ENDBRANCH  15  16
ENDBRANCH  14  15
ENDBRANCH  12  14
ENDBRANCH  11  12
ENDBRANCH   1  11
TORSDOF 5
