REMARK  Name = 
REMARK  13 active torsions:
REMARK  status: ('A' for Active; 'I' for Inactive)
REMARK    1  A    between atoms: N_2  and  C_3
REMARK    2  A    between atoms: C_3  and  C_4
REMARK    3  A    between atoms: C_10  and  O_12
REMARK    4  A    between atoms: O_12  and  C_13
REMARK    5  A    between atoms: C_16  and  C_17
REMARK    6  A    between atoms: C_17  and  N_18
REMARK    7  A    between atoms: C_19  and  C_21
REMARK    8  A    between atoms: C_21  and  C_22
REMARK    9  A    between atoms: C_22  and  C_23
REMARK   10  A    between atoms: C_23  and  C_24
REMARK   11  A    between atoms: C_24  and  C_25
REMARK   12  A    between atoms: C_26  and  C_27
REMARK   13  A    between atoms: C_31  and  O_32
REMARK                            x       y       z     vdW  Elec       q    Type
REMARK                         _______ _______ _______ _____ _____    ______ ____
ROOT
ATOM      1  C   UNL     1      -1.429   3.300   0.000  0.00  0.00    +0.000 A 
ATOM      2  C   UNL     1      -0.715   3.712   0.000  0.00  0.00    +0.000 A 
ATOM      3  C   UNL     1       0.000   3.300   0.000  0.00  0.00    +0.000 A 
ATOM      4  C   UNL     1       0.000   2.475   0.000  0.00  0.00    +0.000 A 
ATOM      5  C   UNL     1      -0.715   2.062   0.000  0.00  0.00    +0.000 A 
ATOM      6  C   UNL     1      -1.429   2.475   0.000  0.00  0.00    +0.000 A 
ENDROOT
BRANCH   6   7
ATOM      7  O   UNL     1      -2.143   2.062   0.000  0.00  0.00    +0.000 OA
ATOM      8  C   UNL     1      -2.858   2.475   0.000  0.00  0.00    +0.000 C 
ENDBRANCH   6   7
BRANCH   1   9
ATOM      9  O   UNL     1      -2.143   3.712   0.000  0.00  0.00    +0.000 OA
BRANCH   9  16
ATOM     10  C   UNL     1      -1.429   5.775   0.000  0.00  0.00    +0.000 C 
ATOM     11  C   UNL     1      -0.715   6.188   0.000  0.00  0.00    +0.000 C 
ATOM     12  C   UNL     1       0.000   5.775   0.000  0.00  0.00    +0.000 C 
ATOM     13  C   UNL     1       0.000   4.950   0.000  0.00  0.00    +0.000 C 
ATOM     14  C   UNL     1      -0.715   4.537   0.000  0.00  0.00    +0.000 C 
ATOM     15  N   UNL     1      -1.429   4.950   0.000  0.00  0.00    +0.000 N 
ATOM     16  C   UNL     1      -2.143   4.537   0.000  0.00  0.00    +0.000 C 
ATOM     17  O   UNL     1      -2.858   4.950   0.000  0.00  0.00    +0.000 OA
BRANCH  10  18
ATOM     18  C   UNL     1      -2.143   6.188   0.000  0.00  0.00    +0.000 C 
BRANCH  18  20
ATOM     19  C   UNL     1      -2.858   7.425   0.000  0.00  0.00    +0.000 C 
ATOM     20  N   UNL     1      -2.143   7.013   0.000  0.00  0.00    +0.000 NA
ENDBRANCH  18  20
ENDBRANCH  10  18
ENDBRANCH   9  16
ENDBRANCH   1   9
BRANCH   4  21
ATOM     21  C   UNL     1       0.715   2.062   0.000  0.00  0.00    +0.000 C 
BRANCH  21  22
ATOM     22  N   UNL     1       1.429   2.475   0.000  0.00  0.00    +0.000 NA
ATOM     23  C   UNL     1       2.143   2.062   0.000  0.00  0.00    +0.000 C 
ATOM     24  O   UNL     1       2.143   1.238   0.000  0.00  0.00    +0.000 OA
BRANCH  23  25
ATOM     25  C   UNL     1       2.858   2.475   0.000  0.00  0.00    +0.000 C 
BRANCH  25  26
ATOM     26  C   UNL     1       3.572   2.062   0.000  0.00  0.00    +0.000 C 
BRANCH  26  27
ATOM     27  C   UNL     1       4.287   2.475   0.000  0.00  0.00    +0.000 C 
BRANCH  27  28
ATOM     28  C   UNL     1       5.001   2.062   0.000  0.00  0.00    +0.000 C 
BRANCH  28  29
ATOM     29  C   UNL     1       5.001   1.238   0.000  0.00  0.00    +0.000 C 
ATOM     30  C   UNL     1       4.287   0.825   0.000  0.00  0.00    +0.000 C 
BRANCH  30  31
ATOM     31  C   UNL     1       4.287   0.000   0.000  0.00  0.00    +0.000 C 
ATOM     32  C   UNL     1       3.572  -0.412   0.000  0.00  0.00    +0.000 C 
ATOM     33  C   UNL     1       5.001  -0.412   0.000  0.00  0.00    +0.000 C 
ENDBRANCH  30  31
ENDBRANCH  28  29
ENDBRANCH  27  28
ENDBRANCH  26  27
ENDBRANCH  25  26
ENDBRANCH  23  25
ENDBRANCH  21  22
ENDBRANCH   4  21
TORSDOF 13
