REMARK  Name = 
REMARK  40 active torsions:
REMARK  status: ('A' for Active; 'I' for Inactive)
REMARK    1  A    between atoms: C_1  and  C_2
REMARK    2  A    between atoms: C_1  and  O_8
REMARK    3  A    between atoms: C_2  and  C_12
REMARK    4  A    between atoms: P_3  and  O_8
REMARK    5  A    between atoms: P_3  and  O_10
REMARK    6  A    between atoms: C_4  and  C_5
REMARK    7  A    between atoms: C_4  and  C_6
REMARK    8  A    between atoms: C_4  and  O_15
REMARK    9  A    between atoms: C_5  and  O_9
REMARK   10  A    between atoms: C_6  and  O_10
REMARK   11  A    between atoms: C_7  and  O_9
REMARK   12  A    between atoms: C_7  and  C_11
REMARK   13  A    between atoms: C_11  and  C_17
REMARK   14  A    between atoms: C_13  and  O_15
REMARK   15  A    between atoms: C_13  and  C_24
REMARK   16  A    between atoms: C_17  and  C_18
REMARK   17  A    between atoms: C_18  and  C_19
REMARK   18  A    between atoms: C_19  and  C_20
REMARK   19  A    between atoms: C_20  and  C_21
REMARK   20  A    between atoms: C_21  and  C_22
REMARK   21  A    between atoms: C_22  and  C_23
REMARK   22  A    between atoms: C_23  and  C_34
REMARK   23  A    between atoms: C_24  and  C_25
REMARK   24  A    between atoms: C_25  and  C_26
REMARK   25  A    between atoms: C_26  and  C_27
REMARK   26  A    between atoms: C_27  and  C_28
REMARK   27  A    between atoms: C_28  and  C_29
REMARK   28  A    between atoms: C_29  and  C_30
REMARK   29  A    between atoms: C_30  and  C_31
REMARK   30  A    between atoms: C_31  and  C_39
REMARK   31  A    between atoms: C_34  and  C_35
REMARK   32  A    between atoms: C_35  and  C_36
REMARK   33  A    between atoms: C_36  and  C_37
REMARK   34  A    between atoms: C_37  and  C_38
REMARK   35  A    between atoms: C_38  and  C_46
REMARK   36  A    between atoms: C_39  and  C_40
REMARK   37  A    between atoms: C_40  and  C_41
REMARK   38  A    between atoms: C_41  and  C_42
REMARK   39  A    between atoms: C_42  and  C_43
REMARK   40  A    between atoms: C_43  and  C_48
REMARK                            x       y       z     vdW  Elec       q    Type
REMARK                         _______ _______ _______ _____ _____    ______ ____
ROOT
ATOM      1  C   UNL     1      12.959  -8.916   0.000  0.00  0.00    +0.000 C 
ENDROOT
BRANCH   1   2
ATOM      2  C   UNL     1      13.674  -8.504   0.000  0.00  0.00    +0.000 C 
BRANCH   2   3
ATOM      3  O   UNL     1      14.388  -8.916   0.000  0.00  0.00    +0.000 OA
BRANCH   3   4
ATOM      4  P   UNL     1      15.102  -8.504   0.000  0.00  0.00    +0.000 P 
ATOM      5  O   UNL     1      15.103  -7.679   0.000  0.00  0.00    +0.000 OA
ATOM      6  O   UNL     1      15.102  -9.329   0.000  0.00  0.00    +0.000 OA
BRANCH   4   7
ATOM      7  O   UNL     1      15.817  -8.916   0.000  0.00  0.00    +0.000 OA
BRANCH   7   8
ATOM      8  C   UNL     1      16.532  -8.504   0.000  0.00  0.00    +0.000 C 
BRANCH   8   9
ATOM      9  C   UNL     1      17.246  -8.916   0.000  0.00  0.00    +0.000 C 
ATOM     10  O   UNL     1      17.246  -9.741   0.000  0.00  0.00    +0.000 OA
BRANCH   9  11
ATOM     11  C   UNL     1      17.960  -8.504   0.000  0.00  0.00    +0.000 C 
ATOM     12  O   UNL     1      18.675  -8.916   0.000  0.00  0.00    +0.000 OA
ENDBRANCH   9  11
ENDBRANCH   8   9
ENDBRANCH   7   8
ENDBRANCH   4   7
ENDBRANCH   3   4
ENDBRANCH   2   3
ENDBRANCH   1   2
BRANCH   1  13
ATOM     13  C   UNL     1      12.245  -8.504   0.000  0.00  0.00    +0.000 C 
BRANCH  13  14
ATOM     14  O   UNL     1      11.530  -8.916   0.000  0.00  0.00    +0.000 OA
BRANCH  14  15
ATOM     15  C   UNL     1      10.816  -8.504   0.000  0.00  0.00    +0.000 C 
ATOM     16  O   UNL     1      10.816  -7.679   0.000  0.00  0.00    +0.000 OA
BRANCH  15  17
ATOM     17  C   UNL     1      10.101  -8.916   0.000  0.00  0.00    +0.000 C 
BRANCH  17  18
ATOM     18  C   UNL     1       9.387  -8.504   0.000  0.00  0.00    +0.000 C 
BRANCH  18  19
ATOM     19  C   UNL     1       8.672  -8.916   0.000  0.00  0.00    +0.000 C 
BRANCH  19  20
ATOM     20  C   UNL     1       7.958  -8.504   0.000  0.00  0.00    +0.000 C 
BRANCH  20  21
ATOM     21  C   UNL     1       7.243  -8.916   0.000  0.00  0.00    +0.000 C 
BRANCH  21  22
ATOM     22  C   UNL     1       6.529  -8.504   0.000  0.00  0.00    +0.000 C 
BRANCH  22  23
ATOM     23  C   UNL     1       5.814  -8.916   0.000  0.00  0.00    +0.000 C 
BRANCH  23  24
ATOM     24  C   UNL     1       5.100  -8.504   0.000  0.00  0.00    +0.000 C 
BRANCH  24  25
ATOM     25  C   UNL     1       5.100  -7.679   0.000  0.00  0.00    +0.000 C 
BRANCH  25  26
ATOM     26  C   UNL     1       5.814  -7.266   0.000  0.00  0.00    +0.000 C 
BRANCH  26  27
ATOM     27  C   UNL     1       6.529  -7.679   0.000  0.00  0.00    +0.000 C 
BRANCH  27  28
ATOM     28  C   UNL     1       7.243  -7.266   0.000  0.00  0.00    +0.000 C 
BRANCH  28  29
ATOM     29  C   UNL     1       7.958  -7.679   0.000  0.00  0.00    +0.000 C 
BRANCH  29  30
ATOM     30  C   UNL     1       8.672  -7.266   0.000  0.00  0.00    +0.000 C 
ATOM     31  C   UNL     1       9.387  -7.679   0.000  0.00  0.00    +0.000 C 
ENDBRANCH  29  30
ENDBRANCH  28  29
ENDBRANCH  27  28
ENDBRANCH  26  27
ENDBRANCH  25  26
ENDBRANCH  24  25
ENDBRANCH  23  24
ENDBRANCH  22  23
ENDBRANCH  21  22
ENDBRANCH  20  21
ENDBRANCH  19  20
ENDBRANCH  18  19
ENDBRANCH  17  18
ENDBRANCH  15  17
ENDBRANCH  14  15
ENDBRANCH  13  14
ENDBRANCH   1  13
BRANCH   1  32
ATOM     32  O   UNL     1      12.959  -9.741   0.000  0.00  0.00    +0.000 OA
BRANCH  32  33
ATOM     33  C   UNL     1      12.245 -10.153   0.000  0.00  0.00    +0.000 C 
ATOM     34  O   UNL     1      12.245 -10.978   0.000  0.00  0.00    +0.000 OA
BRANCH  33  35
ATOM     35  C   UNL     1      11.530  -9.741   0.000  0.00  0.00    +0.000 C 
BRANCH  35  36
ATOM     36  C   UNL     1      10.816 -10.153   0.000  0.00  0.00    +0.000 C 
BRANCH  36  37
ATOM     37  C   UNL     1      10.101  -9.741   0.000  0.00  0.00    +0.000 C 
BRANCH  37  38
ATOM     38  C   UNL     1       9.387 -10.153   0.000  0.00  0.00    +0.000 C 
BRANCH  38  39
ATOM     39  C   UNL     1       8.672  -9.741   0.000  0.00  0.00    +0.000 C 
BRANCH  39  40
ATOM     40  C   UNL     1       7.958 -10.153   0.000  0.00  0.00    +0.000 C 
BRANCH  40  41
ATOM     41  C   UNL     1       7.243  -9.741   0.000  0.00  0.00    +0.000 C 
BRANCH  41  42
ATOM     42  C   UNL     1       6.529 -10.153   0.000  0.00  0.00    +0.000 C 
BRANCH  42  43
ATOM     43  C   UNL     1       6.529 -10.978   0.000  0.00  0.00    +0.000 C 
BRANCH  43  44
ATOM     44  C   UNL     1       7.244 -11.391   0.000  0.00  0.00    +0.000 C 
BRANCH  44  45
ATOM     45  C   UNL     1       7.958 -10.978   0.000  0.00  0.00    +0.000 C 
BRANCH  45  46
ATOM     46  C   UNL     1       8.672 -11.391   0.000  0.00  0.00    +0.000 C 
BRANCH  46  47
ATOM     47  C   UNL     1       9.387 -10.978   0.000  0.00  0.00    +0.000 C 
BRANCH  47  48
ATOM     48  C   UNL     1      10.101 -11.391   0.000  0.00  0.00    +0.000 C 
ATOM     49  C   UNL     1      10.816 -10.978   0.000  0.00  0.00    +0.000 C 
ENDBRANCH  47  48
ENDBRANCH  46  47
ENDBRANCH  45  46
ENDBRANCH  44  45
ENDBRANCH  43  44
ENDBRANCH  42  43
ENDBRANCH  41  42
ENDBRANCH  40  41
ENDBRANCH  39  40
ENDBRANCH  38  39
ENDBRANCH  37  38
ENDBRANCH  36  37
ENDBRANCH  35  36
ENDBRANCH  33  35
ENDBRANCH  32  33
ENDBRANCH   1  32
TORSDOF 40
