REMARK  Name = 
REMARK  17 active torsions:
REMARK  status: ('A' for Active; 'I' for Inactive)
REMARK    1  A    between atoms: O_2  and  C_10
REMARK    2  A    between atoms: O_2  and  C_17
REMARK    3  A    between atoms: C_9  and  C_14
REMARK    4  A    between atoms: C_12  and  C_15
REMARK    5  A    between atoms: C_14  and  C_16
REMARK    6  A    between atoms: C_17  and  C_18
REMARK    7  A    between atoms: C_18  and  C_19
REMARK    8  A    between atoms: C_19  and  C_20
REMARK    9  A    between atoms: C_20  and  C_21
REMARK   10  A    between atoms: C_21  and  C_22
REMARK   11  A    between atoms: C_22  and  C_23
REMARK   12  A    between atoms: C_23  and  C_24
REMARK   13  A    between atoms: C_24  and  C_25
REMARK   14  A    between atoms: C_25  and  C_26
REMARK   15  A    between atoms: C_26  and  C_27
REMARK   16  A    between atoms: C_27  and  C_28
REMARK   17  A    between atoms: C_28  and  C_29
REMARK                            x       y       z     vdW  Elec       q    Type
REMARK                         _______ _______ _______ _____ _____    ______ ____
ROOT
ATOM      1  O   UNL     1      -1.786  -2.681   0.000  0.00  0.00    +0.000 OA
ENDROOT
BRANCH   1   5
ATOM      2  O   UNL     1      -1.786  -5.156   0.000  0.00  0.00    +0.000 OA
ATOM      3  O   UNL     1      -3.215  -3.506   0.000  0.00  0.00    +0.000 OA
ATOM      4  C   UNL     1      -1.072  -3.919   0.000  0.00  0.00    +0.000 C 
ATOM      5  C   UNL     1      -1.786  -3.506   0.000  0.00  0.00    +0.000 C 
ATOM      6  C   UNL     1      -2.501  -3.919   0.000  0.00  0.00    +0.000 C 
ATOM      7  C   UNL     1      -2.501  -4.744   0.000  0.00  0.00    +0.000 C 
ATOM      8  C   UNL     1      -1.072  -4.744   0.000  0.00  0.00    +0.000 C 
BRANCH   7  10
ATOM      9  O   UNL     1      -3.215  -5.981   0.000  0.00  0.00    +0.000 OA
ATOM     10  C   UNL     1      -3.215  -5.156   0.000  0.00  0.00    +0.000 C 
ENDBRANCH   7  10
BRANCH   4  11
ATOM     11  C   UNL     1      -0.357  -3.506   0.000  0.00  0.00    +0.000 C 
BRANCH  11  15
ATOM     12  O   UNL     1       0.357  -4.744   0.000  0.00  0.00    +0.000 OA
ATOM     13  O   UNL     1       1.786  -3.919   0.000  0.00  0.00    +0.000 OA
ATOM     14  N   UNL     1       1.072  -3.506   0.000  0.00  0.00    +0.000 N 
ATOM     15  C   UNL     1       0.357  -3.919   0.000  0.00  0.00    +0.000 C 
ATOM     16  H   UNL     1       1.072  -2.995   0.000  0.00  0.00    +0.000 HD
ENDBRANCH  11  15
ENDBRANCH   4  11
ENDBRANCH   1   5
BRANCH   1  18
ATOM     17  O   UNL     1      -0.357  -2.681   0.000  0.00  0.00    +0.000 OA
ATOM     18  C   UNL     1      -1.072  -2.269   0.000  0.00  0.00    +0.000 C 
BRANCH  18  19
ATOM     19  C   UNL     1      -1.072  -1.444   0.000  0.00  0.00    +0.000 C 
BRANCH  19  20
ATOM     20  C   UNL     1      -0.357  -1.031   0.000  0.00  0.00    +0.000 C 
BRANCH  20  21
ATOM     21  C   UNL     1      -0.357  -0.206   0.000  0.00  0.00    +0.000 C 
BRANCH  21  22
ATOM     22  C   UNL     1       0.357   0.206   0.000  0.00  0.00    +0.000 C 
BRANCH  22  23
ATOM     23  C   UNL     1       0.357   1.031   0.000  0.00  0.00    +0.000 C 
BRANCH  23  24
ATOM     24  C   UNL     1       1.072   1.444   0.000  0.00  0.00    +0.000 C 
BRANCH  24  25
ATOM     25  C   UNL     1       1.072   2.269   0.000  0.00  0.00    +0.000 C 
BRANCH  25  26
ATOM     26  C   UNL     1       1.786   2.681   0.000  0.00  0.00    +0.000 C 
BRANCH  26  27
ATOM     27  C   UNL     1       1.786   3.506   0.000  0.00  0.00    +0.000 C 
BRANCH  27  28
ATOM     28  C   UNL     1       2.501   3.919   0.000  0.00  0.00    +0.000 C 
BRANCH  28  29
ATOM     29  C   UNL     1       2.501   4.744   0.000  0.00  0.00    +0.000 C 
BRANCH  29  30
ATOM     30  C   UNL     1       3.215   5.156   0.000  0.00  0.00    +0.000 C 
ATOM     31  C   UNL     1       3.215   5.981   0.000  0.00  0.00    +0.000 C 
ENDBRANCH  29  30
ENDBRANCH  28  29
ENDBRANCH  27  28
ENDBRANCH  26  27
ENDBRANCH  25  26
ENDBRANCH  24  25
ENDBRANCH  23  24
ENDBRANCH  22  23
ENDBRANCH  21  22
ENDBRANCH  20  21
ENDBRANCH  19  20
ENDBRANCH  18  19
ENDBRANCH   1  18
TORSDOF 17
