REMARK  Name = 
REMARK  3 active torsions:
REMARK  status: ('A' for Active; 'I' for Inactive)
REMARK    1  A    between atoms: C_17  and  C_18
REMARK    2  A    between atoms: C_19  and  C_23
REMARK    3  A    between atoms: C_22  and  C_24
REMARK                            x       y       z     vdW  Elec       q    Type
REMARK                         _______ _______ _______ _____ _____    ______ ____
ROOT
ATOM      1  S   UNK     1       0.345  -0.800   0.000  0.00  0.00    +0.000 S 
ATOM      2  N   UNK     1       2.132  -1.293   0.000  0.00  0.00    +0.000 NA
ATOM      3  C   UNK     1       0.736  -0.073   0.000  0.00  0.00    +0.000 C 
ATOM      4  C   UNK     1       1.547   0.074   0.000  0.00  0.00    +0.000 C 
ATOM      5  C   UNK     1       0.669  -1.558   0.000  0.00  0.00    +0.000 C 
ATOM      6  C   UNK     1       2.169  -0.469   0.000  0.00  0.00    +0.000 C 
ATOM      7  C   UNK     1       1.464  -1.778   0.000  0.00  0.00    +0.000 C 
ENDROOT
BRANCH   3  18
ATOM      8  S   UNK     1      -0.412   2.643   0.000  0.00  0.00    +0.000 S 
ATOM      9  N   UNK     1      -0.825   1.373   0.000  0.00  0.00    +0.000 N 
ATOM     10  N   UNK     1       0.505   1.374   0.000  0.00  0.00    +0.000 NA
ATOM     11  C   UNK     1      -1.492   1.858   0.000  0.00  0.00    +0.000 A 
ATOM     12  C   UNK     1      -2.313   1.860   0.000  0.00  0.00    +0.000 C 
ATOM     13  C   UNK     1      -2.565   2.640   0.000  0.00  0.00    +0.000 C 
ATOM     14  C   UNK     1      -1.902   3.123   0.000  0.00  0.00    +0.000 C 
ATOM     15  C   UNK     1      -1.238   2.643   0.000  0.00  0.00    +0.000 A 
ATOM     16  C   UNK     1      -0.157   1.858   0.000  0.00  0.00    +0.000 A 
ATOM     17  C   UNK     1      -0.569   0.594   0.000  0.00  0.00    +0.000 A 
ATOM     18  C   UNK     1       0.251   0.594   0.000  0.00  0.00    +0.000 A 
ENDBRANCH   3  18
BRANCH   4  21
ATOM     19  O   UNK     1       2.565   1.077   0.000  0.00  0.00    +0.000 OA
ATOM     20  O   UNK     1       1.188   1.457   0.000  0.00  0.00    +0.000 OA
ATOM     21  C   UNK     1       1.767   0.870   0.000  0.00  0.00    +0.000 C 
ENDBRANCH   4  21
BRANCH   7  24
ATOM     22  O   UNK     1       2.388  -2.868   0.000  0.00  0.00    +0.000 OA
ATOM     23  O   UNK     1       0.982  -3.123   0.000  0.00  0.00    +0.000 OA
ATOM     24  C   UNK     1       1.611  -2.590   0.000  0.00  0.00    +0.000 C 
ENDBRANCH   7  24
TORSDOF 3
