REMARK  Name = 
REMARK  21 active torsions:
REMARK  status: ('A' for Active; 'I' for Inactive)
REMARK    1  A    between atoms: C_5  and  C_42
REMARK    2  A    between atoms: C_6  and  O_8
REMARK    3  A    between atoms: O_8  and  C_9
REMARK    4  A    between atoms: C_9  and  C_11
REMARK    5  A    between atoms: C_11  and  N_12
REMARK    6  A    between atoms: N_12  and  C_15
REMARK    7  A    between atoms: C_15  and  C_16
REMARK    8  A    between atoms: C_16  and  C_17
REMARK    9  A    between atoms: C_17  and  C_18
REMARK   10  A    between atoms: C_18  and  C_19
REMARK   11  A    between atoms: C_19  and  C_20
REMARK   12  A    between atoms: C_20  and  C_21
REMARK   13  A    between atoms: C_21  and  C_22
REMARK   14  A    between atoms: C_22  and  C_23
REMARK   15  A    between atoms: C_23  and  C_24
REMARK   16  A    between atoms: C_24  and  N_25
REMARK   17  A    between atoms: N_25  and  C_28
REMARK   18  A    between atoms: C_28  and  C_29
REMARK   19  A    between atoms: C_29  and  O_31
REMARK   20  A    between atoms: O_31  and  C_32
REMARK   21  A    between atoms: C_37  and  C_38
REMARK                            x       y       z     vdW  Elec       q    Type
REMARK                         _______ _______ _______ _____ _____    ______ ____
ROOT
ATOM      1  C   UNL     1      -0.238   0.651   0.000  0.00  0.00    +0.000 C 
ENDROOT
BRANCH   1   2
ATOM      2  C   UNL     1      -0.952   0.239   0.000  0.00  0.00    +0.000 C 
BRANCH   2   3
ATOM      3  C   UNL     1      -1.667   0.651   0.000  0.00  0.00    +0.000 C 
BRANCH   3   4
ATOM      4  C   UNL     1      -2.381   0.239   0.000  0.00  0.00    +0.000 C 
BRANCH   4   5
ATOM      5  C   UNL     1      -3.096   0.651   0.000  0.00  0.00    +0.000 C 
BRANCH   5   6
ATOM      6  N   UNL     1      -3.810   0.239   0.000  0.00  0.00    +0.000 N 
ATOM      7  C   UNL     1      -3.398  -0.475   0.000  0.00  0.00    +0.000 C 
ATOM      8  C   UNL     1      -4.223   0.954   0.000  0.00  0.00    +0.000 C 
BRANCH   6   9
ATOM      9  C   UNL     1      -4.525  -0.173   0.000  0.00  0.00    +0.000 C 
BRANCH   9  10
ATOM     10  C   UNL     1      -5.239   0.239   0.000  0.00  0.00    +0.000 C 
ATOM     11  O   UNL     1      -5.239   1.064   0.000  0.00  0.00    +0.000 OA
BRANCH  10  12
ATOM     12  O   UNL     1      -5.954  -0.173   0.000  0.00  0.00    +0.000 OA
BRANCH  12  18
ATOM     13  C   UNL     1      -7.383   2.301   0.000  0.00  0.00    +0.000 C 
ATOM     14  C   UNL     1      -7.383   1.476   0.000  0.00  0.00    +0.000 C 
ATOM     15  C   UNL     1      -8.097   1.064   0.000  0.00  0.00    +0.000 C 
ATOM     16  C   UNL     1      -8.097   0.239   0.000  0.00  0.00    +0.000 C 
ATOM     17  C   UNL     1      -7.383  -0.173   0.000  0.00  0.00    +0.000 C 
ATOM     18  C   UNL     1      -6.668   0.239   0.000  0.00  0.00    +0.000 C 
ATOM     19  C   UNL     1      -6.668   1.064   0.000  0.00  0.00    +0.000 C 
BRANCH  17  20
ATOM     20  C   UNL     1      -7.383  -0.999   0.000  0.00  0.00    +0.000 C 
ATOM     21  C   UNL     1      -6.668  -1.411   0.000  0.00  0.00    +0.000 C 
ATOM     22  C   UNL     1      -8.097  -1.411   0.000  0.00  0.00    +0.000 C 
ENDBRANCH  17  20
ENDBRANCH  12  18
ENDBRANCH  10  12
ENDBRANCH   9  10
ENDBRANCH   6   9
ENDBRANCH   5   6
ENDBRANCH   4   5
ENDBRANCH   3   4
ENDBRANCH   2   3
ENDBRANCH   1   2
BRANCH   1  23
ATOM     23  C   UNL     1       0.477   0.239   0.000  0.00  0.00    +0.000 C 
BRANCH  23  24
ATOM     24  C   UNL     1       1.191   0.651   0.000  0.00  0.00    +0.000 C 
BRANCH  24  25
ATOM     25  C   UNL     1       1.905   0.239   0.000  0.00  0.00    +0.000 C 
BRANCH  25  26
ATOM     26  C   UNL     1       2.620   0.651   0.000  0.00  0.00    +0.000 C 
BRANCH  26  27
ATOM     27  C   UNL     1       3.334   0.239   0.000  0.00  0.00    +0.000 C 
BRANCH  27  28
ATOM     28  N   UNL     1       4.049   0.651   0.000  0.00  0.00    +0.000 N 
ATOM     29  C   UNL     1       4.763   1.064   0.000  0.00  0.00    +0.000 C 
ATOM     30  C   UNL     1       3.636   1.366   0.000  0.00  0.00    +0.000 C 
BRANCH  28  31
ATOM     31  C   UNL     1       4.461  -0.063   0.000  0.00  0.00    +0.000 C 
BRANCH  31  32
ATOM     32  C   UNL     1       5.286  -0.063   0.000  0.00  0.00    +0.000 C 
ATOM     33  O   UNL     1       5.699   0.651   0.000  0.00  0.00    +0.000 OA
BRANCH  32  34
ATOM     34  O   UNL     1       5.699  -0.777   0.000  0.00  0.00    +0.000 OA
BRANCH  34  35
ATOM     35  C   UNL     1       6.524  -0.777   0.000  0.00  0.00    +0.000 C 
ATOM     36  C   UNL     1       6.936  -0.063   0.000  0.00  0.00    +0.000 C 
ATOM     37  C   UNL     1       7.761  -0.063   0.000  0.00  0.00    +0.000 C 
ATOM     38  C   UNL     1       8.174  -0.777   0.000  0.00  0.00    +0.000 C 
ATOM     39  C   UNL     1       7.761  -1.492   0.000  0.00  0.00    +0.000 C 
ATOM     40  C   UNL     1       6.936  -1.492   0.000  0.00  0.00    +0.000 C 
ATOM     41  C   UNL     1       8.174   0.651   0.000  0.00  0.00    +0.000 C 
BRANCH  40  42
ATOM     42  C   UNL     1       6.524  -2.206   0.000  0.00  0.00    +0.000 C 
ATOM     43  C   UNL     1       5.699  -2.206   0.000  0.00  0.00    +0.000 C 
ATOM     44  C   UNL     1       6.936  -2.921   0.000  0.00  0.00    +0.000 C 
ENDBRANCH  40  42
ENDBRANCH  34  35
ENDBRANCH  32  34
ENDBRANCH  31  32
ENDBRANCH  28  31
ENDBRANCH  27  28
ENDBRANCH  26  27
ENDBRANCH  25  26
ENDBRANCH  24  25
ENDBRANCH  23  24
ENDBRANCH   1  23
TORSDOF 21
REMARK  Name = 
REMARK  21 active torsions:
REMARK  status: ('A' for Active; 'I' for Inactive)
REMARK    1  A    between atoms: C_5  and  C_42
REMARK    2  A    between atoms: C_6  and  O_8
REMARK    3  A    between atoms: O_8  and  C_9
REMARK    4  A    between atoms: C_9  and  C_11
REMARK    5  A    between atoms: C_11  and  N_12
REMARK    6  A    between atoms: N_12  and  C_15
REMARK    7  A    between atoms: C_15  and  C_16
REMARK    8  A    between atoms: C_16  and  C_17
REMARK    9  A    between atoms: C_17  and  C_18
REMARK   10  A    between atoms: C_18  and  C_19
REMARK   11  A    between atoms: C_19  and  C_20
REMARK   12  A    between atoms: C_20  and  C_21
REMARK   13  A    between atoms: C_21  and  C_22
REMARK   14  A    between atoms: C_22  and  C_23
REMARK   15  A    between atoms: C_23  and  C_24
REMARK   16  A    between atoms: C_24  and  N_25
REMARK   17  A    between atoms: N_25  and  C_28
REMARK   18  A    between atoms: C_28  and  C_29
REMARK   19  A    between atoms: C_29  and  O_31
REMARK   20  A    between atoms: O_31  and  C_32
REMARK   21  A    between atoms: C_37  and  C_38
REMARK                            x       y       z     vdW  Elec       q    Type
REMARK                         _______ _______ _______ _____ _____    ______ ____
ROOT
ATOM      1 CL   UNL     1      10.531   0.000   0.000  0.00  0.00    +0.000 Cl
ENDROOT
TORSDOF 0
REMARK  Name = 
REMARK  21 active torsions:
REMARK  status: ('A' for Active; 'I' for Inactive)
REMARK    1  A    between atoms: C_5  and  C_42
REMARK    2  A    between atoms: C_6  and  O_8
REMARK    3  A    between atoms: O_8  and  C_9
REMARK    4  A    between atoms: C_9  and  C_11
REMARK    5  A    between atoms: C_11  and  N_12
REMARK    6  A    between atoms: N_12  and  C_15
REMARK    7  A    between atoms: C_15  and  C_16
REMARK    8  A    between atoms: C_16  and  C_17
REMARK    9  A    between atoms: C_17  and  C_18
REMARK   10  A    between atoms: C_18  and  C_19
REMARK   11  A    between atoms: C_19  and  C_20
REMARK   12  A    between atoms: C_20  and  C_21
REMARK   13  A    between atoms: C_21  and  C_22
REMARK   14  A    between atoms: C_22  and  C_23
REMARK   15  A    between atoms: C_23  and  C_24
REMARK   16  A    between atoms: C_24  and  N_25
REMARK   17  A    between atoms: N_25  and  C_28
REMARK   18  A    between atoms: C_28  and  C_29
REMARK   19  A    between atoms: C_29  and  O_31
REMARK   20  A    between atoms: O_31  and  C_32
REMARK   21  A    between atoms: C_37  and  C_38
REMARK                            x       y       z     vdW  Elec       q    Type
REMARK                         _______ _______ _______ _____ _____    ______ ____
ROOT
ATOM      1 CL   UNL     1       0.000  -4.571   0.000  0.00  0.00    +0.000 Cl
ENDROOT
TORSDOF 0
