REMARK  Name = 
REMARK  10 active torsions:
REMARK  status: ('A' for Active; 'I' for Inactive)
REMARK    1  A    between atoms: P_1  and  O_2
REMARK    2  A    between atoms: P_1  and  C_7
REMARK    3  A    between atoms: O_2  and  C_9
REMARK    4  A    between atoms: C_5  and  C_9
REMARK    5  A    between atoms: C_5  and  C_10
REMARK    6  A    between atoms: C_6  and  C_7
REMARK    7  A    between atoms: C_6  and  C_8
REMARK    8  A    between atoms: C_8  and  C_11
REMARK    9  A    between atoms: C_10  and  C_14
REMARK   10  A    between atoms: C_11  and  C_13
REMARK                            x       y       z     vdW  Elec       q    Type
REMARK                         _______ _______ _______ _____ _____    ______ ____
ROOT
ATOM      1  O   UNL     1       0.000  -0.206   0.000  0.00  0.00    +0.000 OA
ENDROOT
BRANCH   1   2
ATOM      2  P   UNL     1       0.000   0.619   0.000  0.00  0.00    +0.000 P 
ATOM      3  O   UNL     1       0.825   0.619   0.000  0.00  0.00    +0.000 OA
ATOM      4  O   UNL     1      -0.825   0.619   0.000  0.00  0.00    +0.000 OA
BRANCH   2   5
ATOM      5  C   UNL     1       0.000   1.444   0.000  0.00  0.00    +0.000 C 
BRANCH   5   6
ATOM      6  C   UNL     1       0.714   1.856   0.000  0.00  0.00    +0.000 C 
BRANCH   6   7
ATOM      7  C   UNL     1       0.714   2.681   0.000  0.00  0.00    +0.000 C 
BRANCH   7   8
ATOM      8  C   UNL     1       1.429   3.094   0.000  0.00  0.00    +0.000 C 
BRANCH   8   9
ATOM      9  C   UNL     1       1.429   3.919   0.000  0.00  0.00    +0.000 C 
ATOM     10  C   UNL     1       2.143   4.331   0.000  0.00  0.00    +0.000 C 
ENDBRANCH   8   9
ENDBRANCH   7   8
ENDBRANCH   6   7
ENDBRANCH   5   6
ENDBRANCH   2   5
ENDBRANCH   1   2
BRANCH   1  11
ATOM     11  C   UNL     1      -0.714  -0.619   0.000  0.00  0.00    +0.000 C 
BRANCH  11  12
ATOM     12  C   UNL     1      -0.714  -1.444   0.000  0.00  0.00    +0.000 C 
ATOM     13  C   UNL     1       0.000  -1.856   0.000  0.00  0.00    +0.000 C 
BRANCH  12  14
ATOM     14  C   UNL     1      -1.429  -1.856   0.000  0.00  0.00    +0.000 C 
BRANCH  14  15
ATOM     15  C   UNL     1      -1.429  -2.681   0.000  0.00  0.00    +0.000 A 
ATOM     16  C   UNL     1      -0.714  -3.094   0.000  0.00  0.00    +0.000 A 
ATOM     17  C   UNL     1      -2.143  -3.094   0.000  0.00  0.00    +0.000 A 
ATOM     18  C   UNL     1      -0.714  -3.919   0.000  0.00  0.00    +0.000 A 
ATOM     19  C   UNL     1      -2.143  -3.919   0.000  0.00  0.00    +0.000 A 
ATOM     20  C   UNL     1      -1.429  -4.331   0.000  0.00  0.00    +0.000 A 
ENDBRANCH  14  15
ENDBRANCH  12  14
ENDBRANCH  11  12
ENDBRANCH   1  11
TORSDOF 10
