REMARK  Name = 
REMARK  5 active torsions:
REMARK  status: ('A' for Active; 'I' for Inactive)
REMARK    1  A    between atoms: C_2  and  O_3
REMARK    2  A    between atoms: C_2  and  C_16
REMARK    3  A    between atoms: O_3  and  C_4
REMARK    4  A    between atoms: C_7  and  C_10
REMARK    5  A    between atoms: C_19  and  C_21
REMARK                            x       y       z     vdW  Elec       q    Type
REMARK                         _______ _______ _______ _____ _____    ______ ____
ROOT
ATOM      1  C   UNL     1       3.603  -3.637   0.000  0.00  0.00    +0.000 C 
ATOM      2  C   UNL     1       2.888  -3.224   0.000  0.00  0.00    +0.000 C 
ENDROOT
BRANCH   2   3
ATOM      3  C   UNL     1       2.888  -2.399   0.000  0.00  0.00    +0.000 A 
ATOM      4  N   UNL     1       2.221  -1.914   0.000  0.00  0.00    +0.000 NA
ATOM      5  O   UNL     1       2.476  -1.129   0.000  0.00  0.00    +0.000 OA
ATOM      6  C   UNL     1       3.301  -1.129   0.000  0.00  0.00    +0.000 A 
ATOM      7  C   UNL     1       3.556  -1.914   0.000  0.00  0.00    +0.000 A 
BRANCH   6   8
ATOM      8  C   UNL     1       3.786  -0.462   0.000  0.00  0.00    +0.000 A 
ATOM      9  C   UNL     1       3.450   0.292   0.000  0.00  0.00    +0.000 A 
ATOM     10  C   UNL     1       3.935   0.959   0.000  0.00  0.00    +0.000 A 
ATOM     11 CL   UNL     1       3.599   1.713   0.000  0.00  0.00    +0.000 Cl
ATOM     12  C   UNL     1       4.755   0.873   0.000  0.00  0.00    +0.000 A 
ATOM     13  C   UNL     1       5.091   0.119   0.000  0.00  0.00    +0.000 A 
ATOM     14  C   UNL     1       4.606  -0.548   0.000  0.00  0.00    +0.000 A 
ENDBRANCH   6   8
ENDBRANCH   2   3
BRANCH   2  15
ATOM     15  O   UNL     1       2.174  -3.637   0.000  0.00  0.00    +0.000 OA
BRANCH  15  16
ATOM     16  C   UNL     1       2.174  -4.462   0.000  0.00  0.00    +0.000 A 
ATOM     17  N   UNL     1       2.841  -4.947   0.000  0.00  0.00    +0.000 NA
ATOM     18  N   UNL     1       2.586  -5.731   0.000  0.00  0.00    +0.000 NA
ATOM     19  C   UNL     1       1.761  -5.731   0.000  0.00  0.00    +0.000 A 
ATOM     20  N   UNL     1       1.506  -4.947   0.000  0.00  0.00    +0.000 N 
ATOM     21  C   UNL     1       0.722  -4.692   0.000  0.00  0.00    +0.000 C 
BRANCH  19  22
ATOM     22  C   UNL     1       1.276  -6.399   0.000  0.00  0.00    +0.000 A 
ATOM     23  C   UNL     1       1.612  -7.152   0.000  0.00  0.00    +0.000 A 
ATOM     24  C   UNL     1       1.127  -7.820   0.000  0.00  0.00    +0.000 A 
ATOM     25  N   UNL     1       0.306  -7.733   0.000  0.00  0.00    +0.000 NA
ATOM     26  C   UNL     1      -0.029  -6.980   0.000  0.00  0.00    +0.000 A 
ATOM     27  C   UNL     1       0.456  -6.312   0.000  0.00  0.00    +0.000 A 
ENDBRANCH  19  22
ENDBRANCH  15  16
ENDBRANCH   2  15
TORSDOF 5
