REMARK  Name = 
REMARK  0 active torsions:
REMARK  status: ('A' for Active; 'I' for Inactive)
REMARK                            x       y       z     vdW  Elec       q    Type
REMARK                         _______ _______ _______ _____ _____    ______ ____
ROOT
ATOM      1  C   UNL     1       0.000  -1.456   0.000  0.00  0.00    +0.000 C 
ATOM      2  N   UNL     1       0.000  -0.631   0.000  0.00  0.00    +0.000 N 
ATOM      3  C   UNL     1       0.715  -0.218   0.000  0.00  0.00    +0.000 A 
ATOM      4  C   UNL     1       1.429  -0.631   0.000  0.00  0.00    +0.000 A 
ATOM      5  C   UNL     1       2.143  -0.218   0.000  0.00  0.00    +0.000 A 
ATOM      6  C   UNL     1       2.143   0.607   0.000  0.00  0.00    +0.000 A 
ATOM      7  C   UNL     1       1.429   1.019   0.000  0.00  0.00    +0.000 A 
ATOM      8  C   UNL     1       0.715   0.607   0.000  0.00  0.00    +0.000 A 
ATOM      9  C   UNL     1       0.000   1.019   0.000  0.00  0.00    +0.000 A 
ATOM     10  C   UNL     1      -0.715   0.607   0.000  0.00  0.00    +0.000 A 
ATOM     11  C   UNL     1      -0.715  -0.218   0.000  0.00  0.00    +0.000 A 
ATOM     12  C   UNL     1      -1.429  -0.631   0.000  0.00  0.00    +0.000 A 
ATOM     13  C   UNL     1      -2.143  -0.218   0.000  0.00  0.00    +0.000 A 
ATOM     14  C   UNL     1      -2.143   0.607   0.000  0.00  0.00    +0.000 A 
ATOM     15  C   UNL     1      -1.429   1.019   0.000  0.00  0.00    +0.000 A 
ATOM     16  N   UNL     1      -2.858  -0.631   0.000  0.00  0.00    +0.000 NA
ATOM     17  N   UNL     1       2.858  -0.631   0.000  0.00  0.00    +0.000 NA
ENDROOT
TORSDOF 0
REMARK  Name = 
REMARK  0 active torsions:
REMARK  status: ('A' for Active; 'I' for Inactive)
REMARK                            x       y       z     vdW  Elec       q    Type
REMARK                         _______ _______ _______ _____ _____    ______ ____
ROOT
ATOM      1 CL   UNL     1       5.215   0.000   0.000  0.00  0.00    +0.000 Cl
ENDROOT
TORSDOF 0
