REMARK  Name = 
REMARK  7 active torsions:
REMARK  status: ('A' for Active; 'I' for Inactive)
REMARK    1  A    between atoms: C_1  and  C_3
REMARK    2  A    between atoms: C_2  and  O_5
REMARK    3  A    between atoms: C_3  and  C_7
REMARK    4  A    between atoms: O_5  and  C_11
REMARK    5  A    between atoms: C_7  and  C_13
REMARK    6  A    between atoms: C_13  and  C_17
REMARK    7  A    between atoms: C_18  and  C_24
REMARK                            x       y       z     vdW  Elec       q    Type
REMARK                         _______ _______ _______ _____ _____    ______ ____
ROOT
ATOM      1  C   UNL     1      -0.418   1.179   0.000  0.00  0.00    +0.000 A 
ATOM      2  C   UNL     1      -1.135   0.764   0.000  0.00  0.00    +0.000 A 
ATOM      3  C   UNL     1      -0.421   2.010   0.000  0.00  0.00    +0.000 A 
ATOM      4  C   UNL     1      -1.850   1.179   0.000  0.00  0.00    +0.000 A 
ATOM      5  C   UNL     1      -1.139   2.421   0.000  0.00  0.00    +0.000 A 
ATOM      6  O   UNL     1       0.293   2.425   0.000  0.00  0.00    +0.000 OA
ATOM      7  C   UNL     1      -1.850   2.007   0.000  0.00  0.00    +0.000 A 
ATOM      8  O   UNL     1      -2.564   2.418   0.000  0.00  0.00    +0.000 OA
ENDROOT
BRANCH   1   9
ATOM      9  C   UNL     1       0.290   0.771   0.000  0.00  0.00    +0.000 C 
ATOM     10  O   UNL     1       0.293  -0.053   0.000  0.00  0.00    +0.000 OA
BRANCH   9  11
ATOM     11  C   UNL     1       1.004   1.186   0.000  0.00  0.00    +0.000 C 
BRANCH  11  12
ATOM     12  C   UNL     1       1.715   0.775   0.000  0.00  0.00    +0.000 C 
BRANCH  12  13
ATOM     13  C   UNL     1       2.430   1.189   0.000  0.00  0.00    +0.000 A 
ATOM     14  C   UNL     1       3.144   0.775   0.000  0.00  0.00    +0.000 A 
ATOM     15  C   UNL     1       2.426   2.007   0.000  0.00  0.00    +0.000 A 
ATOM     16  C   UNL     1       3.855   1.186   0.000  0.00  0.00    +0.000 A 
ATOM     17  C   UNL     1       3.137   2.425   0.000  0.00  0.00    +0.000 A 
ATOM     18  C   UNL     1       3.855   2.010   0.000  0.00  0.00    +0.000 A 
ATOM     19  O   UNL     1       4.570   2.428   0.000  0.00  0.00    +0.000 OA
ENDBRANCH  12  13
ENDBRANCH  11  12
ENDBRANCH   9  11
ENDBRANCH   1   9
BRANCH   2  20
ATOM     20  O   UNL     1      -1.135  -0.060   0.000  0.00  0.00    +0.000 OA
BRANCH  20  21
ATOM     21  C   UNL     1      -2.091  -0.999   0.000  0.00  0.00    +0.000 C 
ATOM     22  O   UNL     1      -2.499  -0.285   0.000  0.00  0.00    +0.000 OA
ATOM     23  C   UNL     1      -2.516  -1.710   0.000  0.00  0.00    +0.000 C 
ATOM     24  C   UNL     1      -3.327  -0.274   0.000  0.00  0.00    +0.000 C 
ATOM     25  C   UNL     1      -3.341  -1.700   0.000  0.00  0.00    +0.000 C 
ATOM     26  O   UNL     1      -2.112  -2.428   0.000  0.00  0.00    +0.000 OA
ATOM     27  C   UNL     1      -3.741  -0.982   0.000  0.00  0.00    +0.000 C 
ATOM     28  O   UNL     1      -3.762  -2.407   0.000  0.00  0.00    +0.000 OA
ATOM     29  O   UNL     1      -4.570  -0.972   0.000  0.00  0.00    +0.000 OA
BRANCH  24  30
ATOM     30  C   UNL     1      -3.731   0.444   0.000  0.00  0.00    +0.000 C 
ATOM     31  O   UNL     1      -3.310   1.154   0.000  0.00  0.00    +0.000 OA
ENDBRANCH  24  30
ENDBRANCH  20  21
ENDBRANCH   2  20
TORSDOF 7
