REMARK  Name = 
REMARK  2 active torsions:
REMARK  status: ('A' for Active; 'I' for Inactive)
REMARK    1  A    between atoms: C_4  and  C_7
REMARK    2  A    between atoms: C_7  and  N_8
REMARK                            x       y       z     vdW  Elec       q    Type
REMARK                         _______ _______ _______ _____ _____    ______ ____
ROOT
ATOM      1  N   UNL     1       1.139  -0.030   0.000  0.00  0.00    +0.000 N 
ATOM      2  C   UNL     1       1.923  -0.285   0.000  0.00  0.00    +0.000 A 
ATOM      3  C   UNL     1       2.638   0.127   0.000  0.00  0.00    +0.000 A 
ATOM      4  C   UNL     1       3.352  -0.285   0.000  0.00  0.00    +0.000 A 
ATOM      5  C   UNL     1       3.352  -1.110   0.000  0.00  0.00    +0.000 A 
ATOM      6  C   UNL     1       2.638  -1.523   0.000  0.00  0.00    +0.000 A 
ATOM      7  C   UNL     1       1.923  -1.110   0.000  0.00  0.00    +0.000 A 
ATOM      8  N   UNL     1       1.139  -1.365   0.000  0.00  0.00    +0.000 NA
ATOM      9  C   UNL     1       0.654  -0.698   0.000  0.00  0.00    +0.000 A 
ATOM     10  N   UNL     1      -0.171  -0.698   0.000  0.00  0.00    +0.000 N 
ATOM     11  C   UNL     1      -0.584  -1.412   0.000  0.00  0.00    +0.000 C 
ATOM     12  C   UNL     1      -1.409  -1.412   0.000  0.00  0.00    +0.000 C 
ATOM     13  N   UNL     1      -1.821  -0.698   0.000  0.00  0.00    +0.000 NA
ATOM     14  C   UNL     1      -1.409   0.017   0.000  0.00  0.00    +0.000 C 
ATOM     15  C   UNL     1      -0.584   0.017   0.000  0.00  0.00    +0.000 C 
ENDROOT
BRANCH   1  16
ATOM     16  C   UNL     1       0.884   0.754   0.000  0.00  0.00    +0.000 C 
BRANCH  16  20
ATOM     17  C   UNL     1       2.540   2.593   0.000  0.00  0.00    +0.000 A 
ATOM     18  C   UNL     1       2.795   1.809   0.000  0.00  0.00    +0.000 A 
ATOM     19  C   UNL     1       2.243   1.196   0.000  0.00  0.00    +0.000 A 
ATOM     20  C   UNL     1       1.436   1.367   0.000  0.00  0.00    +0.000 A 
ATOM     21  C   UNL     1       1.181   2.152   0.000  0.00  0.00    +0.000 A 
ATOM     22  C   UNL     1       1.733   2.765   0.000  0.00  0.00    +0.000 A 
ENDBRANCH  16  20
ENDBRANCH   1  16
TORSDOF 2
