REMARK  Name = 
REMARK  2 active torsions:
REMARK  status: ('A' for Active; 'I' for Inactive)
REMARK    1  A    between atoms: C_17  and  C_19
REMARK    2  A    between atoms: C_19  and  C_20
REMARK                            x       y       z     vdW  Elec       q    Type
REMARK                         _______ _______ _______ _____ _____    ______ ____
ROOT
ATOM      1  C   UNL     1      16.118 -17.034   0.000  0.00  0.00    +0.000 C 
ATOM      2  C   UNL     1      16.118 -17.858   0.000  0.00  0.00    +0.000 C 
ATOM      3  C   UNL     1      16.833 -18.271   0.000  0.00  0.00    +0.000 C 
ATOM      4  C   UNL     1      17.547 -17.858   0.000  0.00  0.00    +0.000 C 
ATOM      5  C   UNL     1      17.547 -17.034   0.000  0.00  0.00    +0.000 C 
ATOM      6  C   UNL     1      16.833 -16.621   0.000  0.00  0.00    +0.000 C 
ATOM      7  C   UNL     1      18.262 -18.271   0.000  0.00  0.00    +0.000 C 
ATOM      8  C   UNL     1      18.976 -17.858   0.000  0.00  0.00    +0.000 C 
ATOM      9  C   UNL     1      18.976 -17.034   0.000  0.00  0.00    +0.000 C 
ATOM     10  C   UNL     1      18.262 -16.621   0.000  0.00  0.00    +0.000 C 
ATOM     11  C   UNL     1      19.691 -16.621   0.000  0.00  0.00    +0.000 C 
ATOM     12  C   UNL     1      19.691 -15.796   0.000  0.00  0.00    +0.000 C 
ATOM     13  C   UNL     1      18.976 -15.383   0.000  0.00  0.00    +0.000 C 
ATOM     14  C   UNL     1      18.262 -15.796   0.000  0.00  0.00    +0.000 C 
ATOM     15  C   UNL     1      21.120 -16.621   0.000  0.00  0.00    +0.000 C 
ATOM     16  C   UNL     1      21.120 -15.796   0.000  0.00  0.00    +0.000 C 
ATOM     17  C   UNL     1      20.405 -15.383   0.000  0.00  0.00    +0.000 C 
ATOM     18  O   UNL     1      15.404 -18.271   0.000  0.00  0.00    +0.000 OA
ATOM     19  O   UNL     1      21.120 -15.053   0.000  0.00  0.00    +0.000 OA
ATOM     20  O   UNL     1      17.547 -15.383   0.000  0.00  0.00    +0.000 OA
ATOM     21  C   UNL     1      17.547 -16.208   0.000  0.00  0.00    +0.000 C 
ATOM     22  C   UNL     1      19.691 -14.953   0.000  0.00  0.00    +0.000 C 
ENDROOT
BRANCH  17  23
ATOM     23  C   UNL     1      20.405 -14.558   0.000  0.00  0.00    +0.000 C 
ATOM     24  O   UNL     1      19.693 -14.147   0.000  0.00  0.00    +0.000 OA
BRANCH  23  25
ATOM     25  C   UNL     1      21.122 -14.145   0.000  0.00  0.00    +0.000 C 
ATOM     26  S   UNL     1      21.828 -14.552   0.000  0.00  0.00    +0.000 S 
ENDBRANCH  23  25
ENDBRANCH  17  23
TORSDOF 2
