REMARK  Name = 
REMARK  5 active torsions:
REMARK  status: ('A' for Active; 'I' for Inactive)
REMARK    1  A    between atoms: N_5  and  C_8
REMARK    2  A    between atoms: C_11  and  C_14
REMARK    3  A    between atoms: C_25  and  C_27
REMARK    4  A    between atoms: C_27  and  C_28
REMARK    5  A    between atoms: C_27  and  O_34
REMARK                            x       y       z     vdW  Elec       q    Type
REMARK                         _______ _______ _______ _____ _____    ______ ____
ROOT
ATOM      1  C   UNL     1      -1.062  -2.291   0.000  0.00  0.00    +0.000 C 
ATOM      2  O   UNL     1      -1.614  -1.678   0.000  0.00  0.00    +0.000 OA
ATOM      3  N   UNL     1      -0.255  -2.119   0.000  0.00  0.00    +0.000 NA
ATOM      4  C   UNL     1       0.000  -1.335   0.000  0.00  0.00    +0.000 A 
ATOM      5  C   UNL     1       0.785  -1.080   0.000  0.00  0.00    +0.000 A 
ATOM      6  C   UNL     1       0.785  -0.255   0.000  0.00  0.00    +0.000 A 
ATOM      7  N   UNL     1       0.000   0.000   0.000  0.00  0.00    +0.000 NA
ATOM      8  N   UNL     1      -0.485  -0.667   0.000  0.00  0.00    +0.000 NA
ATOM      9  C   UNL     1       1.569   0.000   0.000  0.00  0.00    +0.000 C 
ATOM     10  N   UNL     1       2.054  -0.667   0.000  0.00  0.00    +0.000 N 
ATOM     11  C   UNL     1       1.569  -1.335   0.000  0.00  0.00    +0.000 C 
ATOM     12  C   UNL     1       2.879  -0.667   0.000  0.00  0.00    +0.000 C 
ATOM     13  O   UNL     1       3.292  -1.382   0.000  0.00  0.00    +0.000 OA
ENDROOT
BRANCH   1  17
ATOM     14  C   UNL     1      -1.827  -4.645   0.000  0.00  0.00    +0.000 A 
ATOM     15  C   UNL     1      -2.379  -4.032   0.000  0.00  0.00    +0.000 A 
ATOM     16  C   UNL     1      -2.124  -3.247   0.000  0.00  0.00    +0.000 A 
ATOM     17  C   UNL     1      -1.317  -3.076   0.000  0.00  0.00    +0.000 A 
ATOM     18  C   UNL     1      -0.765  -3.689   0.000  0.00  0.00    +0.000 A 
ATOM     19  C   UNL     1      -1.020  -4.473   0.000  0.00  0.00    +0.000 A 
BRANCH  14  24
ATOM     20  C   UNL     1      -2.846  -7.783   0.000  0.00  0.00    +0.000 C 
ATOM     21  N   UNL     1      -2.591  -6.999   0.000  0.00  0.00    +0.000 NA
ATOM     22  C   UNL     1      -3.144  -6.386   0.000  0.00  0.00    +0.000 C 
ATOM     23  C   UNL     1      -2.889  -5.601   0.000  0.00  0.00    +0.000 C 
ATOM     24  N   UNL     1      -2.082  -5.429   0.000  0.00  0.00    +0.000 N 
ATOM     25  C   UNL     1      -1.530  -6.043   0.000  0.00  0.00    +0.000 C 
ATOM     26  C   UNL     1      -1.785  -6.827   0.000  0.00  0.00    +0.000 C 
ENDBRANCH  14  24
ENDBRANCH   1  17
BRANCH  12  27
ATOM     27  C   UNL     1       3.292   0.047   0.000  0.00  0.00    +0.000 C 
BRANCH  27  28
ATOM     28  C   UNL     1       4.117   0.047   0.000  0.00  0.00    +0.000 A 
ATOM     29  C   UNL     1       4.529   0.761   0.000  0.00  0.00    +0.000 A 
ATOM     30  C   UNL     1       5.354   0.761   0.000  0.00  0.00    +0.000 A 
ATOM     31  C   UNL     1       5.767   0.047   0.000  0.00  0.00    +0.000 A 
ATOM     32  C   UNL     1       5.354  -0.667   0.000  0.00  0.00    +0.000 A 
ATOM     33  C   UNL     1       4.529  -0.667   0.000  0.00  0.00    +0.000 A 
ENDBRANCH  27  28
BRANCH  27  34
ATOM     34  O   UNL     1       2.879   0.761   0.000  0.00  0.00    +0.000 OA
ATOM     35  C   UNL     1       3.292   1.476   0.000  0.00  0.00    +0.000 C 
ENDBRANCH  27  34
ENDBRANCH  12  27
TORSDOF 5
