REMARK  Name = 
REMARK  9 active torsions:
REMARK  status: ('A' for Active; 'I' for Inactive)
REMARK    1  A    between atoms: O_1  and  C_14
REMARK    2  A    between atoms: O_1  and  C_16
REMARK    3  A    between atoms: O_2  and  C_15
REMARK    4  A    between atoms: O_2  and  C_17
REMARK    5  A    between atoms: N_5  and  C_13
REMARK    6  A    between atoms: N_6  and  C_18
REMARK    7  A    between atoms: N_7  and  C_19
REMARK    8  A    between atoms: C_13  and  C_14
REMARK    9  A    between atoms: C_14  and  C_15
REMARK                            x       y       z     vdW  Elec       q    Type
REMARK                         _______ _______ _______ _____ _____    ______ ____
ROOT
ATOM      1  C   UNL     1      -1.072   0.825   0.000  0.00  0.00    +0.000 C 
ENDROOT
BRANCH   1   2
ATOM      2  O   UNL     1      -1.786   0.412   0.000  0.00  0.00    +0.000 OA
BRANCH   2   5
ATOM      3  O   UNL     1      -1.072  -0.825   0.000  0.00  0.00    +0.000 OA
ATOM      4  N   UNL     1      -2.501  -0.825   0.000  0.00  0.00    +0.000 N 
ATOM      5  C   UNL     1      -1.786  -0.412   0.000  0.00  0.00    +0.000 C 
ATOM      6  H   UNL     1      -2.944  -0.569   0.000  0.00  0.00    +0.000 HD
BRANCH   4   7
ATOM      7  C   UNL     1      -2.501  -1.650   0.000  0.00  0.00    +0.000 A 
ATOM      8  C   UNL     1      -1.786  -2.062   0.000  0.00  0.00    +0.000 A 
ATOM      9  C   UNL     1      -3.215  -2.062   0.000  0.00  0.00    +0.000 A 
ATOM     10  C   UNL     1      -1.786  -2.888   0.000  0.00  0.00    +0.000 A 
ATOM     11  C   UNL     1      -3.215  -2.888   0.000  0.00  0.00    +0.000 A 
ATOM     12  C   UNL     1      -2.501  -3.300   0.000  0.00  0.00    +0.000 A 
ENDBRANCH   4   7
ENDBRANCH   2   5
ENDBRANCH   1   2
BRANCH   1  13
ATOM     13  C   UNL     1      -0.357   0.412   0.000  0.00  0.00    +0.000 C 
BRANCH  13  14
ATOM     14  O   UNL     1       0.357   0.825   0.000  0.00  0.00    +0.000 OA
BRANCH  14  17
ATOM     15  O   UNL     1       1.786   0.825   0.000  0.00  0.00    +0.000 OA
ATOM     16  N   UNL     1       1.072  -0.412   0.000  0.00  0.00    +0.000 N 
ATOM     17  C   UNL     1       1.072   0.412   0.000  0.00  0.00    +0.000 C 
ATOM     18  H   UNL     1       0.629  -0.668   0.000  0.00  0.00    +0.000 HD
BRANCH  16  19
ATOM     19  C   UNL     1       1.786  -0.825   0.000  0.00  0.00    +0.000 A 
ATOM     20  C   UNL     1       1.786  -1.650   0.000  0.00  0.00    +0.000 A 
ATOM     21  C   UNL     1       2.501  -0.412   0.000  0.00  0.00    +0.000 A 
ATOM     22  C   UNL     1       2.501  -2.062   0.000  0.00  0.00    +0.000 A 
ATOM     23  C   UNL     1       3.215  -0.825   0.000  0.00  0.00    +0.000 A 
ATOM     24  C   UNL     1       3.215  -1.650   0.000  0.00  0.00    +0.000 A 
ENDBRANCH  16  19
ENDBRANCH  14  17
ENDBRANCH  13  14
ENDBRANCH   1  13
BRANCH   1  25
ATOM     25  C   UNL     1      -1.072   1.650   0.000  0.00  0.00    +0.000 C 
BRANCH  25  26
ATOM     26  N   UNL     1      -0.357   2.062   0.000  0.00  0.00    +0.000 NA
ATOM     27  C   UNL     1      -0.357   2.888   0.000  0.00  0.00    +0.000 C 
ATOM     28  C   UNL     1       0.357   1.650   0.000  0.00  0.00    +0.000 C 
ATOM     29  C   UNL     1       0.357   3.300   0.000  0.00  0.00    +0.000 C 
ATOM     30  C   UNL     1       1.072   2.062   0.000  0.00  0.00    +0.000 C 
ATOM     31  C   UNL     1       1.072   2.888   0.000  0.00  0.00    +0.000 C 
ENDBRANCH  25  26
ENDBRANCH   1  25
TORSDOF 9
