REMARK  Name = 
REMARK  10 active torsions:
REMARK  status: ('A' for Active; 'I' for Inactive)
REMARK    1  A    between atoms: N_5  and  C_6
REMARK    2  A    between atoms: C_6  and  C_7
REMARK    3  A    between atoms: C_7  and  C_8
REMARK    4  A    between atoms: C_8  and  N_9
REMARK    5  A    between atoms: C_16  and  O_17
REMARK    6  A    between atoms: O_17  and  C_18
REMARK    7  A    between atoms: C_20  and  C_24
REMARK    8  A    between atoms: N_29  and  C_30
REMARK    9  A    between atoms: C_30  and  C_31
REMARK   10  A    between atoms: C_31  and  C_32
REMARK                            x       y       z     vdW  Elec       q    Type
REMARK                         _______ _______ _______ _____ _____    ______ ____
ROOT
ATOM      1  C   UNL     1       4.781  -0.285   0.000  0.00  0.00    +0.000 A 
ATOM      2  C   UNL     1       5.496   0.127   0.000  0.00  0.00    +0.000 A 
ATOM      3  C   UNL     1       6.210  -0.285   0.000  0.00  0.00    +0.000 A 
ATOM      4  C   UNL     1       6.210  -1.110   0.000  0.00  0.00    +0.000 A 
ATOM      5  C   UNL     1       5.496  -1.523   0.000  0.00  0.00    +0.000 A 
ATOM      6  C   UNL     1       4.781  -1.110   0.000  0.00  0.00    +0.000 A 
ENDROOT
BRANCH   3   7
ATOM      7  C   UNL     1       6.925   0.127   0.000  0.00  0.00    +0.000 C 
ATOM      8  O   UNL     1       6.925   0.952   0.000  0.00  0.00    +0.000 OA
ATOM      9  N   UNL     1       7.639  -0.285   0.000  0.00  0.00    +0.000 N 
ATOM     10  C   UNL     1       8.354   0.127   0.000  0.00  0.00    +0.000 C 
ATOM     11  C   UNL     1       9.068  -0.285   0.000  0.00  0.00    +0.000 C 
ATOM     12  N   UNL     1       9.068  -1.110   0.000  0.00  0.00    +0.000 NA
ATOM     13  C   UNL     1       8.354  -1.523   0.000  0.00  0.00    +0.000 C 
ATOM     14  C   UNL     1       7.639  -1.110   0.000  0.00  0.00    +0.000 C 
BRANCH  12  15
ATOM     15  C   UNL     1       9.783  -1.523   0.000  0.00  0.00    +0.000 C 
BRANCH  15  16
ATOM     16  C   UNL     1      10.497  -1.110   0.000  0.00  0.00    +0.000 C 
BRANCH  16  17
ATOM     17  C   UNL     1      11.211  -1.523   0.000  0.00  0.00    +0.000 A 
ATOM     18  C   UNL     1      11.926  -1.110   0.000  0.00  0.00    +0.000 A 
ATOM     19  C   UNL     1      12.640  -1.523   0.000  0.00  0.00    +0.000 A 
ATOM     20  C   UNL     1      12.640  -2.348   0.000  0.00  0.00    +0.000 A 
ATOM     21  F   UNL     1      13.355  -2.760   0.000  0.00  0.00    +0.000 F 
ATOM     22  C   UNL     1      11.926  -2.760   0.000  0.00  0.00    +0.000 A 
ATOM     23  C   UNL     1      11.211  -2.348   0.000  0.00  0.00    +0.000 A 
ENDBRANCH  16  17
ENDBRANCH  15  16
ENDBRANCH  12  15
ENDBRANCH   3   7
BRANCH   1  24
ATOM     24  O   UNL     1       4.067   0.127   0.000  0.00  0.00    +0.000 OA
BRANCH  24  32
ATOM     25  N   UNL     1       1.139  -1.365   0.000  0.00  0.00    +0.000 N 
ATOM     26  C   UNL     1       0.654  -0.698   0.000  0.00  0.00    +0.000 A 
ATOM     27  C   UNL     1      -0.171  -0.698   0.000  0.00  0.00    +0.000 C 
ATOM     28  C   UNL     1       1.139  -0.030   0.000  0.00  0.00    +0.000 A 
ATOM     29  C   UNL     1       0.884   0.754   0.000  0.00  0.00    +0.000 C 
ATOM     30  C   UNL     1       1.923  -0.285   0.000  0.00  0.00    +0.000 A 
ATOM     31  C   UNL     1       2.638   0.127   0.000  0.00  0.00    +0.000 A 
ATOM     32  C   UNL     1       3.352  -0.285   0.000  0.00  0.00    +0.000 A 
ATOM     33  C   UNL     1       3.352  -1.110   0.000  0.00  0.00    +0.000 A 
ATOM     34  C   UNL     1       2.638  -1.523   0.000  0.00  0.00    +0.000 A 
ATOM     35  C   UNL     1       1.923  -1.110   0.000  0.00  0.00    +0.000 A 
BRANCH  25  36
ATOM     36  C   UNL     1       0.884  -2.150   0.000  0.00  0.00    +0.000 C 
BRANCH  36  37
ATOM     37  C   UNL     1       0.077  -2.321   0.000  0.00  0.00    +0.000 C 
BRANCH  37  38
ATOM     38  C   UNL     1      -0.178  -3.106   0.000  0.00  0.00    +0.000 C 
BRANCH  38  43
ATOM     39  C   UNL     1      -3.406  -3.792   0.000  0.00  0.00    +0.000 C 
ATOM     40  N   UNL     1      -2.599  -3.621   0.000  0.00  0.00    +0.000 NA
ATOM     41  C   UNL     1      -2.344  -2.836   0.000  0.00  0.00    +0.000 C 
ATOM     42  C   UNL     1      -1.537  -2.665   0.000  0.00  0.00    +0.000 C 
ATOM     43  N   UNL     1      -0.985  -3.278   0.000  0.00  0.00    +0.000 NA
ATOM     44  C   UNL     1      -1.240  -4.062   0.000  0.00  0.00    +0.000 C 
ATOM     45  C   UNL     1      -2.047  -4.234   0.000  0.00  0.00    +0.000 C 
ENDBRANCH  38  43
ENDBRANCH  37  38
ENDBRANCH  36  37
ENDBRANCH  25  36
ENDBRANCH  24  32
ENDBRANCH   1  24
TORSDOF 10
