REMARK  Name = 
REMARK  1 active torsions:
REMARK  status: ('A' for Active; 'I' for Inactive)
REMARK    1  A    between atoms: C_13  and  O_20
REMARK                            x       y       z     vdW  Elec       q    Type
REMARK                         _______ _______ _______ _____ _____    ______ ____
ROOT
ATOM      1  C   UNL     1      -0.392  -0.414   0.000  0.00  0.00    +0.000 C 
ATOM      2  C   UNL     1      -0.395   0.408   0.000  0.00  0.00    +0.000 A 
ATOM      3  C   UNL     1       0.314  -0.831   0.000  0.00  0.00    +0.000 C 
ATOM      4  C   UNL     1      -1.111  -0.820   0.000  0.00  0.00    +0.000 C 
ATOM      5  C   UNL     1       0.314   0.005   0.000  0.00  0.00    +0.000 C 
ATOM      6  C   UNL     1      -1.111   0.817   0.000  0.00  0.00    +0.000 A 
ATOM      7  C   UNL     1       0.317   0.817   0.000  0.00  0.00    +0.000 A 
ATOM      8  C   UNL     1       1.030  -0.422   0.000  0.00  0.00    +0.000 C 
ATOM      9  C   UNL     1       0.310  -1.653   0.000  0.00  0.00    +0.000 C 
ATOM     10  O   UNL     1      -1.930   0.055   0.000  0.00  0.00    +0.000 OA
ATOM     11  C   UNL     1      -1.115  -1.643   0.000  0.00  0.00    +0.000 C 
ATOM     12  C   UNL     1       1.740  -0.009   0.000  0.00  0.00    +0.000 C 
ATOM     13  C   UNL     1      -1.111   1.646   0.000  0.00  0.00    +0.000 A 
ATOM     14  C   UNL     1       1.034   0.404   0.000  0.00  0.00    +0.000 C 
ATOM     15  C   UNL     1       0.317   1.646   0.000  0.00  0.00    +0.000 A 
ATOM     16  N   UNL     1       1.747  -0.838   0.000  0.00  0.00    +0.000 NA
ATOM     17  C   UNL     1      -0.406  -2.059   0.000  0.00  0.00    +0.000 C 
ATOM     18  O   UNL     1      -1.835  -2.055   0.000  0.00  0.00    +0.000 OA
ATOM     19  C   UNL     1      -0.392   2.059   0.000  0.00  0.00    +0.000 A 
ATOM     20  C   UNL     1       2.544  -0.619   0.000  0.00  0.00    +0.000 C 
ENDROOT
BRANCH  13  21
ATOM     21  O   UNL     1      -1.828   2.059   0.000  0.00  0.00    +0.000 OA
ATOM     22  C   UNL     1      -2.544   1.646   0.000  0.00  0.00    +0.000 C 
ENDBRANCH  13  21
TORSDOF 1
