REMARK  Name = 
REMARK  4 active torsions:
REMARK  status: ('A' for Active; 'I' for Inactive)
REMARK    1  A    between atoms: C_5  and  N_7
REMARK    2  A    between atoms: C_5  and  S_11
REMARK    3  A    between atoms: C_6  and  N_8
REMARK    4  A    between atoms: C_6  and  S_11
REMARK                            x       y       z     vdW  Elec       q    Type
REMARK                         _______ _______ _______ _____ _____    ______ ____
ROOT
ATOM      1  S   UNL     1       0.000  -0.206   0.000  0.00  0.00    +0.000 S 
ENDROOT
BRANCH   1   2
ATOM      2  C   UNL     1      -0.714   0.206   0.000  0.00  0.00    +0.000 C 
ATOM      3  S   UNL     1      -0.714   1.031   0.000  0.00  0.00    +0.000 S 
BRANCH   2   6
ATOM      4  C   UNL     1      -2.143   0.206   0.000  0.00  0.00    +0.000 C 
ATOM      5  C   UNL     1      -1.429  -1.031   0.000  0.00  0.00    +0.000 C 
ATOM      6  N   UNL     1      -1.429  -0.206   0.000  0.00  0.00    +0.000 N 
ENDBRANCH   2   6
ENDBRANCH   1   2
BRANCH   1   7
ATOM      7  C   UNL     1       0.714   0.206   0.000  0.00  0.00    +0.000 C 
ATOM      8  S   UNL     1       0.714   1.031   0.000  0.00  0.00    +0.000 S 
BRANCH   7  11
ATOM      9  C   UNL     1       2.143   0.206   0.000  0.00  0.00    +0.000 C 
ATOM     10  C   UNL     1       1.429  -1.031   0.000  0.00  0.00    +0.000 C 
ATOM     11  N   UNL     1       1.429  -0.206   0.000  0.00  0.00    +0.000 N 
ENDBRANCH   7  11
ENDBRANCH   1   7
TORSDOF 4
