REMARK  Name = 
REMARK  5 active torsions:
REMARK  status: ('A' for Active; 'I' for Inactive)
REMARK    1  A    between atoms: O_2  and  C_3
REMARK    2  A    between atoms: C_12  and  C_15
REMARK    3  A    between atoms: N_17  and  C_19
REMARK    4  A    between atoms: C_19  and  C_20
REMARK    5  A    between atoms: C_20  and  N_21
REMARK                            x       y       z     vdW  Elec       q    Type
REMARK                         _______ _______ _______ _____ _____    ______ ____
ROOT
ATOM      1  C   UNL     1       4.186   2.795   0.000  0.00  0.00    +0.000 A 
ATOM      2  N   UNL     1       3.898   2.022   0.000  0.00  0.00    +0.000 NA
ATOM      3  C   UNL     1       3.085   1.884   0.000  0.00  0.00    +0.000 A 
ATOM      4  C   UNL     1       2.559   2.520   0.000  0.00  0.00    +0.000 A 
ATOM      5  C   UNL     1       2.846   3.293   0.000  0.00  0.00    +0.000 A 
ATOM      6  C   UNL     1       3.659   3.431   0.000  0.00  0.00    +0.000 A 
ATOM      7  C   UNL     1       1.792   2.216   0.000  0.00  0.00    +0.000 C 
ATOM      8  C   UNL     1       1.061   1.833   0.000  0.00  0.00    +0.000 C 
ATOM      9  C   UNL     1       0.364   2.275   0.000  0.00  0.00    +0.000 C 
ATOM     10  C   UNL     1       0.398   3.099   0.000  0.00  0.00    +0.000 C 
ATOM     11  C   UNL     1       1.129   3.482   0.000  0.00  0.00    +0.000 C 
ATOM     12  C   UNL     1       1.826   3.040   0.000  0.00  0.00    +0.000 C 
ATOM     13  O   UNL     1       1.844   1.392   0.000  0.00  0.00    +0.000 OA
ATOM     14  C   UNL     1       2.643   1.188   0.000  0.00  0.00    +0.000 C 
ATOM     15  O   UNL     1       2.947   0.420   0.000  0.00  0.00    +0.000 OA
ENDROOT
BRANCH  10  16
ATOM     16  C   UNL     1      -0.298   3.541   0.000  0.00  0.00    +0.000 C 
ATOM     17  O   UNL     1      -0.264   4.365   0.000  0.00  0.00    +0.000 OA
ATOM     18  N   UNL     1      -1.030   3.159   0.000  0.00  0.00    +0.000 N 
ATOM     19  C   UNL     1      -1.064   2.334   0.000  0.00  0.00    +0.000 C 
BRANCH  18  20
ATOM     20  C   UNL     1      -1.726   3.601   0.000  0.00  0.00    +0.000 C 
BRANCH  20  21
ATOM     21  C   UNL     1      -2.457   3.218   0.000  0.00  0.00    +0.000 C 
BRANCH  21  22
ATOM     22  N   UNL     1      -3.154   3.660   0.000  0.00  0.00    +0.000 NA
ATOM     23  C   UNL     1      -3.885   3.277   0.000  0.00  0.00    +0.000 C 
ATOM     24  C   UNL     1      -4.582   3.719   0.000  0.00  0.00    +0.000 C 
ATOM     25  C   UNL     1      -4.547   4.544   0.000  0.00  0.00    +0.000 C 
ATOM     26  C   UNL     1      -3.816   4.926   0.000  0.00  0.00    +0.000 C 
ATOM     27  C   UNL     1      -3.120   4.484   0.000  0.00  0.00    +0.000 C 
ENDBRANCH  21  22
ENDBRANCH  20  21
ENDBRANCH  18  20
ENDBRANCH  10  16
BRANCH   1  29
ATOM     28  C   UNL     1       5.286   3.707   0.000  0.00  0.00    +0.000 C 
ATOM     29  O   UNL     1       4.999   2.933   0.000  0.00  0.00    +0.000 OA
ENDBRANCH   1  29
TORSDOF 5
