REMARK  Name = 
REMARK  7 active torsions:
REMARK  status: ('A' for Active; 'I' for Inactive)
REMARK    1  A    between atoms: N_9  and  C_13
REMARK    2  A    between atoms: N_10  and  C_11
REMARK    3  A    between atoms: C_11  and  C_12
REMARK    4  A    between atoms: C_11  and  C_14
REMARK    5  A    between atoms: C_12  and  C_16
REMARK    6  A    between atoms: C_13  and  C_15
REMARK    7  A    between atoms: C_13  and  C_18
REMARK                            x       y       z     vdW  Elec       q    Type
REMARK                         _______ _______ _______ _____ _____    ______ ____
ROOT
ATOM      1  C   UNK A   1       0.000   0.206   0.000  0.00  0.00    +0.000 C 
ENDROOT
BRANCH   1   3
ATOM      2  O   UNK A   0       1.429   1.031   0.000  0.00  0.00    +0.000 OA
ATOM      3  N   UNK A   1       0.714  -0.206   0.000  0.00  0.00    +0.000 N 
ATOM      4  C   UNK A   0       1.429   0.206   0.000  0.00  0.00    +0.000 C 
ATOM      5  C   UNK A   0       2.143  -0.206   0.000  0.00  0.00    +0.000 C 
ATOM      6  H   UNK A   1       0.714  -0.718   0.000  0.00  0.00    +0.000 HD
ENDBRANCH   1   3
BRANCH   1   9
ATOM      7  O   UNK A   1       0.714   1.444   0.000  0.00  0.00    +0.000 OA
ATOM      8  N   UNK A   1      -0.714   1.444   0.000  0.00  0.00    +0.000 N 
ATOM      9  C   UNK A   1       0.000   1.031   0.000  0.00  0.00    +0.000 C 
ATOM     10  H   UNK A   1      -1.157   1.188   0.000  0.00  0.00    +0.000 HD
BRANCH   8  11
ATOM     11  C   UNK A   1      -0.714   2.269   0.000  0.00  0.00    +0.000 C 
BRANCH  11  14
ATOM     12  O   UNK A   1       0.000   3.506   0.000  0.00  0.00    +0.000 OA
ATOM     13  O   UNK A   1       0.714   2.269   0.000  0.00  0.00    +0.000 OA
ATOM     14  C   UNK A   1       0.000   2.681   0.000  0.00  0.00    +0.000 C 
ENDBRANCH  11  14
BRANCH  11  16
ATOM     15  O   UNK A   1      -1.429   3.506   0.000  0.00  0.00    +0.000 OA
ATOM     16  C   UNK A   1      -1.429   2.681   0.000  0.00  0.00    +0.000 C 
ATOM     17  C   UNK A   1      -2.143   2.269   0.000  0.00  0.00    +0.000 C 
ENDBRANCH  11  16
ENDBRANCH   8  11
ENDBRANCH   1   9
BRANCH   1  18
ATOM     18  C   UNK A   1      -0.714  -0.206   0.000  0.00  0.00    +0.000 C 
BRANCH  18  22
ATOM     19  I   UNK A   1      -2.143  -2.681   0.000  0.00  0.00    +0.000 I 
ATOM     20  I   UNK A   1       0.714  -2.681   0.000  0.00  0.00    +0.000 I 
ATOM     21  O   UNK A   1      -0.714  -3.506   0.000  0.00  0.00    +0.000 OA
ATOM     22  C   UNK A   1      -0.714  -1.031   0.000  0.00  0.00    +0.000 A 
ATOM     23  C   UNK A   1       0.000  -1.444   0.000  0.00  0.00    +0.000 A 
ATOM     24  C   UNK A   1      -1.429  -1.444   0.000  0.00  0.00    +0.000 A 
ATOM     25  C   UNK A   1      -1.429  -2.269   0.000  0.00  0.00    +0.000 A 
ATOM     26  C   UNK A   1       0.000  -2.269   0.000  0.00  0.00    +0.000 A 
ATOM     27  C   UNK A   1      -0.714  -2.681   0.000  0.00  0.00    +0.000 A 
ENDBRANCH  18  22
ENDBRANCH   1  18
TORSDOF 7
