REMARK  Name = 
REMARK  18 active torsions:
REMARK  status: ('A' for Active; 'I' for Inactive)
REMARK    1  A    between atoms: N_12  and  C_16
REMARK    2  A    between atoms: N_13  and  C_23
REMARK    3  A    between atoms: N_13  and  C_33
REMARK    4  A    between atoms: N_13  and  C_34
REMARK    5  A    between atoms: N_14  and  C_38
REMARK    6  A    between atoms: N_14  and  C_42
REMARK    7  A    between atoms: N_14  and  C_43
REMARK    8  A    between atoms: N_15  and  C_28
REMARK    9  A    between atoms: C_17  and  C_19
REMARK   10  A    between atoms: C_18  and  C_20
REMARK   11  A    between atoms: C_23  and  C_24
REMARK   12  A    between atoms: C_25  and  C_29
REMARK   13  A    between atoms: C_26  and  C_30
REMARK   14  A    between atoms: C_33  and  C_44
REMARK   15  A    between atoms: C_34  and  C_45
REMARK   16  A    between atoms: C_38  and  C_41
REMARK   17  A    between atoms: C_42  and  C_46
REMARK   18  A    between atoms: C_43  and  C_47
REMARK                            x       y       z     vdW  Elec       q    Type
REMARK                         _______ _______ _______ _____ _____    ______ ____
ROOT
ATOM      1 TC   UNL     1      -4.332  -0.206   0.000  0.00  0.00    +0.000 Tc
ENDROOT
TORSDOF 0
REMARK  Name = 
REMARK  18 active torsions:
REMARK  status: ('A' for Active; 'I' for Inactive)
REMARK    1  A    between atoms: N_12  and  C_16
REMARK    2  A    between atoms: N_13  and  C_23
REMARK    3  A    between atoms: N_13  and  C_33
REMARK    4  A    between atoms: N_13  and  C_34
REMARK    5  A    between atoms: N_14  and  C_38
REMARK    6  A    between atoms: N_14  and  C_42
REMARK    7  A    between atoms: N_14  and  C_43
REMARK    8  A    between atoms: N_15  and  C_28
REMARK    9  A    between atoms: C_17  and  C_19
REMARK   10  A    between atoms: C_18  and  C_20
REMARK   11  A    between atoms: C_23  and  C_24
REMARK   12  A    between atoms: C_25  and  C_29
REMARK   13  A    between atoms: C_26  and  C_30
REMARK   14  A    between atoms: C_33  and  C_44
REMARK   15  A    between atoms: C_34  and  C_45
REMARK   16  A    between atoms: C_38  and  C_41
REMARK   17  A    between atoms: C_42  and  C_46
REMARK   18  A    between atoms: C_43  and  C_47
REMARK                            x       y       z     vdW  Elec       q    Type
REMARK                         _______ _______ _______ _____ _____    ______ ____
ROOT
ATOM      1  O   UNL     1       1.746  -4.665   0.000  0.00  0.00    +0.000 OA
ATOM      2  N   UNL     1       0.317  -4.665   0.000  0.00  0.00    +0.000 NA
ATOM      3  C   UNL     1       1.031  -4.253   0.000  0.00  0.00    +0.000 C 
ENDROOT
BRANCH   2   4
ATOM      4  C   UNL     1       0.317  -5.490   0.000  0.00  0.00    +0.000 A 
ATOM      5  C   UNL     1       1.031  -5.903   0.000  0.00  0.00    +0.000 A 
ATOM      6  C   UNL     1      -0.398  -5.903   0.000  0.00  0.00    +0.000 A 
ATOM      7  C   UNL     1       1.031  -6.728   0.000  0.00  0.00    +0.000 A 
ATOM      8  C   UNL     1      -0.398  -6.728   0.000  0.00  0.00    +0.000 A 
ATOM      9  C   UNL     1       0.317  -7.140   0.000  0.00  0.00    +0.000 A 
BRANCH   5  10
ATOM     10  C   UNL     1       1.746  -5.490   0.000  0.00  0.00    +0.000 C 
ATOM     11  C   UNL     1       2.460  -5.903   0.000  0.00  0.00    +0.000 C 
ENDBRANCH   5  10
BRANCH   6  12
ATOM     12  C   UNL     1      -1.112  -5.490   0.000  0.00  0.00    +0.000 C 
ATOM     13  C   UNL     1      -1.827  -5.903   0.000  0.00  0.00    +0.000 C 
ENDBRANCH   6  12
ENDBRANCH   2   4
BRANCH   3  14
ATOM     14  C   UNL     1       1.031  -3.428   0.000  0.00  0.00    +0.000 C 
BRANCH  14  15
ATOM     15  N   UNL     1       1.746  -3.015   0.000  0.00  0.00    +0.000 NA
BRANCH  15  16
ATOM     16  C   UNL     1       1.746  -2.190   0.000  0.00  0.00    +0.000 C 
BRANCH  16  19
ATOM     17  O   UNL     1       1.031  -0.953   0.000  0.00  0.00    +0.000 OA
ATOM     18  O   UNL     1       0.317  -2.190   0.000  0.00  0.00    +0.000 OA
ATOM     19  C   UNL     1       1.031  -1.778   0.000  0.00  0.00    +0.000 C 
ENDBRANCH  16  19
ENDBRANCH  15  16
BRANCH  15  20
ATOM     20  C   UNL     1       2.460  -3.428   0.000  0.00  0.00    +0.000 C 
BRANCH  20  23
ATOM     21  O   UNL     1       3.889  -3.428   0.000  0.00  0.00    +0.000 OA
ATOM     22  O   UNL     1       3.175  -2.190   0.000  0.00  0.00    +0.000 OA
ATOM     23  C   UNL     1       3.175  -3.015   0.000  0.00  0.00    +0.000 C 
ENDBRANCH  20  23
ENDBRANCH  15  20
ENDBRANCH  14  15
ENDBRANCH   3  14
TORSDOF 9
REMARK  Name = 
REMARK  18 active torsions:
REMARK  status: ('A' for Active; 'I' for Inactive)
REMARK    1  A    between atoms: N_12  and  C_16
REMARK    2  A    between atoms: N_13  and  C_23
REMARK    3  A    between atoms: N_13  and  C_33
REMARK    4  A    between atoms: N_13  and  C_34
REMARK    5  A    between atoms: N_14  and  C_38
REMARK    6  A    between atoms: N_14  and  C_42
REMARK    7  A    between atoms: N_14  and  C_43
REMARK    8  A    between atoms: N_15  and  C_28
REMARK    9  A    between atoms: C_17  and  C_19
REMARK   10  A    between atoms: C_18  and  C_20
REMARK   11  A    between atoms: C_23  and  C_24
REMARK   12  A    between atoms: C_25  and  C_29
REMARK   13  A    between atoms: C_26  and  C_30
REMARK   14  A    between atoms: C_33  and  C_44
REMARK   15  A    between atoms: C_34  and  C_45
REMARK   16  A    between atoms: C_38  and  C_41
REMARK   17  A    between atoms: C_42  and  C_46
REMARK   18  A    between atoms: C_43  and  C_47
REMARK                            x       y       z     vdW  Elec       q    Type
REMARK                         _______ _______ _______ _____ _____    ______ ____
ROOT
ATOM      1  O   UNL     1       1.967   3.939   0.000  0.00  0.00    +0.000 OA
ATOM      2  N   UNL     1       0.538   3.939   0.000  0.00  0.00    +0.000 NA
ATOM      3  C   UNL     1       1.253   4.352   0.000  0.00  0.00    +0.000 C 
ENDROOT
BRANCH   2   6
ATOM      4  C   UNL     1       1.253   2.702   0.000  0.00  0.00    +0.000 A 
ATOM      5  C   UNL     1      -0.176   2.702   0.000  0.00  0.00    +0.000 A 
ATOM      6  C   UNL     1       0.538   3.114   0.000  0.00  0.00    +0.000 A 
ATOM      7  C   UNL     1       1.253   1.877   0.000  0.00  0.00    +0.000 A 
ATOM      8  C   UNL     1      -0.176   1.877   0.000  0.00  0.00    +0.000 A 
ATOM      9  C   UNL     1       0.538   1.464   0.000  0.00  0.00    +0.000 A 
BRANCH   4  10
ATOM     10  C   UNL     1       1.967   3.114   0.000  0.00  0.00    +0.000 C 
ATOM     11  C   UNL     1       2.682   2.702   0.000  0.00  0.00    +0.000 C 
ENDBRANCH   4  10
BRANCH   5  12
ATOM     12  C   UNL     1      -0.891   3.114   0.000  0.00  0.00    +0.000 C 
ATOM     13  C   UNL     1      -1.605   2.702   0.000  0.00  0.00    +0.000 C 
ENDBRANCH   5  12
ENDBRANCH   2   6
BRANCH   3  14
ATOM     14  C   UNL     1       1.253   5.177   0.000  0.00  0.00    +0.000 C 
BRANCH  14  15
ATOM     15  N   UNL     1       1.967   5.589   0.000  0.00  0.00    +0.000 NA
BRANCH  15  16
ATOM     16  C   UNL     1       1.967   6.414   0.000  0.00  0.00    +0.000 C 
BRANCH  16  19
ATOM     17  O   UNL     1       1.253   7.652   0.000  0.00  0.00    +0.000 OA
ATOM     18  O   UNL     1       0.538   6.414   0.000  0.00  0.00    +0.000 OA
ATOM     19  C   UNL     1       1.253   6.827   0.000  0.00  0.00    +0.000 C 
ENDBRANCH  16  19
ENDBRANCH  15  16
BRANCH  15  20
ATOM     20  C   UNL     1       2.682   5.177   0.000  0.00  0.00    +0.000 C 
BRANCH  20  23
ATOM     21  O   UNL     1       4.111   5.177   0.000  0.00  0.00    +0.000 OA
ATOM     22  O   UNL     1       3.396   6.414   0.000  0.00  0.00    +0.000 OA
ATOM     23  C   UNL     1       3.396   5.589   0.000  0.00  0.00    +0.000 C 
ENDBRANCH  20  23
ENDBRANCH  15  20
ENDBRANCH  14  15
ENDBRANCH   3  14
TORSDOF 9
