REMARK  Name = 
REMARK  3 active torsions:
REMARK  status: ('A' for Active; 'I' for Inactive)
REMARK    1  A    between atoms: C_4  and  C_16
REMARK    2  A    between atoms: C_9  and  C_10
REMARK    3  A    between atoms: C_23  and  C_25
REMARK                            x       y       z     vdW  Elec       q    Type
REMARK                         _______ _______ _______ _____ _____    ______ ____
ROOT
ATOM      1  N   UNL     1       3.671  -1.347   0.000  0.00  0.00    +0.000 NA
ATOM      2  C   UNL     1       3.499  -0.540   0.000  0.00  0.00    +0.000 A 
ATOM      3  C   UNL     1       2.784  -0.127   0.000  0.00  0.00    +0.000 A 
ATOM      4  C   UNL     1       2.784   0.698   0.000  0.00  0.00    +0.000 A 
ATOM      5  C   UNL     1       3.499   1.110   0.000  0.00  0.00    +0.000 A 
ATOM      6  C   UNL     1       4.213   0.698   0.000  0.00  0.00    +0.000 A 
ATOM      7  C   UNL     1       4.213  -0.127   0.000  0.00  0.00    +0.000 A 
ATOM      8  N   UNL     1       4.827  -0.679   0.000  0.00  0.00    +0.000 NA
ATOM      9  C   UNL     1       4.491  -1.433   0.000  0.00  0.00    +0.000 A 
ENDROOT
BRANCH   4  10
ATOM     10  C   UNL     1       2.070   1.110   0.000  0.00  0.00    +0.000 A 
ATOM     11  C   UNL     1       1.356   0.698   0.000  0.00  0.00    +0.000 A 
ATOM     12  C   UNL     1       0.641   1.110   0.000  0.00  0.00    +0.000 A 
ATOM     13  C   UNL     1       0.641   1.935   0.000  0.00  0.00    +0.000 A 
ATOM     14  C   UNL     1       1.356   2.348   0.000  0.00  0.00    +0.000 A 
ATOM     15  C   UNL     1       2.070   1.935   0.000  0.00  0.00    +0.000 A 
ATOM     16  N   UNL     1      -0.143   2.190   0.000  0.00  0.00    +0.000 NA
ATOM     17  C   UNL     1      -0.628   1.523   0.000  0.00  0.00    +0.000 A 
ATOM     18  N   UNL     1      -0.143   0.856   0.000  0.00  0.00    +0.000 NA
BRANCH  17  19
ATOM     19  C   UNL     1      -1.453   1.523   0.000  0.00  0.00    +0.000 A 
ATOM     20  C   UNL     1      -1.866   0.808   0.000  0.00  0.00    +0.000 A 
ATOM     21  C   UNL     1      -2.691   0.808   0.000  0.00  0.00    +0.000 A 
ATOM     22  N   UNL     1      -3.103   1.523   0.000  0.00  0.00    +0.000 NA
ATOM     23  C   UNL     1      -2.691   2.237   0.000  0.00  0.00    +0.000 A 
ATOM     24  C   UNL     1      -1.866   2.237   0.000  0.00  0.00    +0.000 A 
ENDBRANCH  17  19
ENDBRANCH   4  10
BRANCH   9  25
ATOM     25  C   UNL     1       4.904  -2.147   0.000  0.00  0.00    +0.000 A 
ATOM     26  C   UNL     1       5.729  -2.147   0.000  0.00  0.00    +0.000 A 
ATOM     27  C   UNL     1       6.141  -2.862   0.000  0.00  0.00    +0.000 A 
ATOM     28  N   UNL     1       5.729  -3.576   0.000  0.00  0.00    +0.000 NA
ATOM     29  C   UNL     1       4.904  -3.576   0.000  0.00  0.00    +0.000 A 
ATOM     30  C   UNL     1       4.491  -2.862   0.000  0.00  0.00    +0.000 A 
ENDBRANCH   9  25
TORSDOF 3
