REMARK  Name = 
REMARK  2 active torsions:
REMARK  status: ('A' for Active; 'I' for Inactive)
REMARK    1  A    between atoms: C_2  and  C_3
REMARK    2  A    between atoms: C_3  and  C_12
REMARK                            x       y       z     vdW  Elec       q    Type
REMARK                         _______ _______ _______ _____ _____    ______ ____
ROOT
ATOM      1  C   UNL     1       3.613   0.636   0.000  0.00  0.00    +0.000 C 
ATOM      2  C   UNL     1       3.470   1.449   0.000  0.00  0.00    +0.000 C 
ATOM      3  O   UNL     1       2.695   1.731   0.000  0.00  0.00    +0.000 OA
ATOM      4  N   UNL     1       4.102   1.979   0.000  0.00  0.00    +0.000 NA
ATOM      5  C   UNL     1       4.877   1.697   0.000  0.00  0.00    +0.000 C 
ATOM      6  O   UNL     1       5.509   2.227   0.000  0.00  0.00    +0.000 OA
ATOM      7  N   UNL     1       5.020   0.884   0.000  0.00  0.00    +0.000 NA
ATOM      8  C   UNL     1       4.388   0.354   0.000  0.00  0.00    +0.000 C 
ATOM      9  O   UNL     1       4.532  -0.458   0.000  0.00  0.00    +0.000 OA
ENDROOT
BRANCH   1  10
ATOM     10  C   UNL     1       2.788   0.636   0.000  0.00  0.00    +0.000 C 
ATOM     11  C   UNL     1       2.430   1.380   0.000  0.00  0.00    +0.000 C 
ATOM     12  C   UNL     1       1.626   1.563   0.000  0.00  0.00    +0.000 C 
ATOM     13  C   UNL     1       0.981   1.049   0.000  0.00  0.00    +0.000 C 
ATOM     14  C   UNL     1       0.981   0.224   0.000  0.00  0.00    +0.000 C 
ATOM     15  C   UNL     1       1.626  -0.290   0.000  0.00  0.00    +0.000 C 
ATOM     16  C   UNL     1       1.394   0.636   0.000  0.00  0.00    +0.000 C 
ATOM     17  C   UNL     1       2.430  -0.107   0.000  0.00  0.00    +0.000 C 
ENDBRANCH   1  10
BRANCH   1  19
ATOM     18  C   UNL     1       2.695  -0.458   0.000  0.00  0.00    +0.000 C 
ATOM     19  C   UNL     1       3.470  -0.176   0.000  0.00  0.00    +0.000 C 
ENDBRANCH   1  19
TORSDOF 2
