REMARK  Name = 
REMARK  3 active torsions:
REMARK  status: ('A' for Active; 'I' for Inactive)
REMARK    1  A    between atoms: N_1  and  C_11
REMARK    2  A    between atoms: C_2  and  C_13
REMARK    3  A    between atoms: C_8  and  N_9
REMARK                            x       y       z     vdW  Elec       q    Type
REMARK                         _______ _______ _______ _____ _____    ______ ____
ROOT
ATOM      1  N   UNL     1      -1.400  -0.409   0.000  0.00  0.00    +0.000 N 
ATOM      2  C   UNL     1      -2.125   0.829   0.000  0.00  0.00    +0.000 A 
ATOM      3  C   UNL     1      -0.686   0.004   0.000  0.00  0.00    +0.000 A 
ATOM      4  C   UNL     1      -0.686   0.829   0.000  0.00  0.00    +0.000 A 
ATOM      5  C   UNL     1       0.028  -0.409   0.000  0.00  0.00    +0.000 A 
ATOM      6  C   UNL     1      -2.125   0.004   0.000  0.00  0.00    +0.000 A 
ATOM      7  C   UNL     1      -1.400   1.241   0.000  0.00  0.00    +0.000 A 
ATOM      8  C   UNL     1       0.743   0.004   0.000  0.00  0.00    +0.000 A 
ATOM      9  C   UNL     1       0.743   0.829   0.000  0.00  0.00    +0.000 A 
ATOM     10  C   UNL     1       0.028   1.241   0.000  0.00  0.00    +0.000 A 
ATOM     11  O   UNL     1      -1.398   1.902   0.000  0.00  0.00    +0.000 OA
ATOM     12 CL   UNL     1       0.028  -1.070   0.000  0.00  0.00    +0.000 Cl
ATOM     13  F   UNL     1       1.315   1.159   0.000  0.00  0.00    +0.000 F 
ENDROOT
BRANCH   8  14
ATOM     14  N   UNL     1       1.459  -0.410   0.000  0.00  0.00    +0.000 N 
ATOM     15  C   UNL     1       2.204  -0.069   0.000  0.00  0.00    +0.000 C 
ATOM     16  C   UNL     1       1.534  -1.226   0.000  0.00  0.00    +0.000 C 
ATOM     17  C   UNL     1       2.342  -1.399   0.000  0.00  0.00    +0.000 C 
ATOM     18  C   UNL     1       2.756  -0.684   0.000  0.00  0.00    +0.000 C 
ATOM     19  N   UNL     1       3.414  -0.616   0.000  0.00  0.00    +0.000 NA
ENDBRANCH   8  14
BRANCH   1  20
ATOM     20  C   UNL     1      -1.398  -1.236   0.000  0.00  0.00    +0.000 C 
ATOM     21  C   UNL     1      -1.810  -1.902   0.000  0.00  0.00    +0.000 C 
ATOM     22  C   UNL     1      -0.983  -1.901   0.000  0.00  0.00    +0.000 C 
ENDBRANCH   1  20
BRANCH   2  23
ATOM     23  C   UNL     1      -2.842   1.241   0.000  0.00  0.00    +0.000 C 
ATOM     24  O   UNL     1      -3.414   0.909   0.000  0.00  0.00    +0.000 OA
ATOM     25  O   UNL     1      -2.843   1.902   0.000  0.00  0.00    +0.000 OA
ENDBRANCH   2  23
TORSDOF 3
