REMARK  Name = 
REMARK  7 active torsions:
REMARK  status: ('A' for Active; 'I' for Inactive)
REMARK    1  A    between atoms: O_2  and  C_3
REMARK    2  A    between atoms: C_8  and  C_11
REMARK    3  A    between atoms: C_11  and  C_12
REMARK    4  A    between atoms: C_13  and  C_14
REMARK    5  A    between atoms: N_20  and  C_23
REMARK    6  A    between atoms: C_26  and  C_28
REMARK    7  A    between atoms: N_30  and  C_31
REMARK                            x       y       z     vdW  Elec       q    Type
REMARK                         _______ _______ _______ _____ _____    ______ ____
ROOT
ATOM      1  C   UNL     1       3.352   1.935   0.000  0.00  0.00    +0.000 A 
ATOM      2  N   UNL     1       3.352   1.110   0.000  0.00  0.00    +0.000 NA
ATOM      3  C   UNL     1       2.638   0.698   0.000  0.00  0.00    +0.000 A 
ATOM      4  C   UNL     1       1.923   1.110   0.000  0.00  0.00    +0.000 A 
ATOM      5  C   UNL     1       1.923   1.935   0.000  0.00  0.00    +0.000 A 
ATOM      6  N   UNL     1       2.638   2.348   0.000  0.00  0.00    +0.000 NA
ATOM      7  N   UNL     1       1.139   2.190   0.000  0.00  0.00    +0.000 N 
ATOM      8  C   UNL     1       0.654   1.523   0.000  0.00  0.00    +0.000 A 
ATOM      9  N   UNL     1       1.139   0.856   0.000  0.00  0.00    +0.000 NA
ATOM     10  N   UNL     1       2.638  -0.127   0.000  0.00  0.00    +0.000 NA
ENDROOT
BRANCH   7  11
ATOM     11  C   UNL     1       0.884   2.975   0.000  0.00  0.00    +0.000 C 
ATOM     12  C   UNL     1       0.099   3.230   0.000  0.00  0.00    +0.000 C 
ATOM     13  C   UNL     1       0.099   4.055   0.000  0.00  0.00    +0.000 C 
ATOM     14  C   UNL     1       0.884   4.310   0.000  0.00  0.00    +0.000 C 
ATOM     15  O   UNL     1       1.369   3.642   0.000  0.00  0.00    +0.000 OA
ATOM     16  O   UNL     1      -0.568   4.540   0.000  0.00  0.00    +0.000 OA
ATOM     17  O   UNL     1      -0.568   2.745   0.000  0.00  0.00    +0.000 OA
BRANCH  14  18
ATOM     18  C   UNL     1       1.139   5.095   0.000  0.00  0.00    +0.000 C 
ATOM     19  O   UNL     1       1.946   5.266   0.000  0.00  0.00    +0.000 OA
ATOM     20  N   UNL     1       0.587   5.708   0.000  0.00  0.00    +0.000 NA
BRANCH  20  21
ATOM     21  C   UNL     1      -0.220   5.536   0.000  0.00  0.00    +0.000 C 
ATOM     22  C   UNL     1      -0.833   4.984   0.000  0.00  0.00    +0.000 C 
ATOM     23  C   UNL     1      -1.005   5.791   0.000  0.00  0.00    +0.000 C 
ENDBRANCH  20  21
ENDBRANCH  14  18
ENDBRANCH   7  11
BRANCH   1  25
ATOM     24  C   UNL     1       4.781   2.760   0.000  0.00  0.00    +0.000 C 
ATOM     25  C   UNL     1       4.067   2.348   0.000  0.00  0.00    +0.000 C 
BRANCH  24  26
ATOM     26  C   UNL     1       5.496   3.173   0.000  0.00  0.00    +0.000 C 
BRANCH  26  32
ATOM     27  C   UNL     1       8.354   1.523   0.000  0.00  0.00    +0.000 C 
ATOM     28  O   UNL     1       8.354   0.698   0.000  0.00  0.00    +0.000 OA
ATOM     29  N   UNL     1       7.639   1.935   0.000  0.00  0.00    +0.000 N 
ATOM     30  C   UNL     1       6.925   1.523   0.000  0.00  0.00    +0.000 C 
ATOM     31  C   UNL     1       6.210   1.935   0.000  0.00  0.00    +0.000 C 
ATOM     32  C   UNL     1       6.210   2.760   0.000  0.00  0.00    +0.000 C 
ATOM     33  C   UNL     1       6.925   3.173   0.000  0.00  0.00    +0.000 C 
ATOM     34  C   UNL     1       7.639   2.760   0.000  0.00  0.00    +0.000 C 
BRANCH  27  36
ATOM     35  C   UNL     1       9.783   1.523   0.000  0.00  0.00    +0.000 C 
ATOM     36  O   UNL     1       9.068   1.935   0.000  0.00  0.00    +0.000 OA
ENDBRANCH  27  36
ENDBRANCH  26  32
ENDBRANCH  24  26
ENDBRANCH   1  25
TORSDOF 7
