REMARK  Name = 
REMARK  0 active torsions:
REMARK  status: ('A' for Active; 'I' for Inactive)
REMARK                            x       y       z     vdW  Elec       q    Type
REMARK                         _______ _______ _______ _____ _____    ______ ____
ROOT
ATOM      1  O   UNL     1      -1.072  -0.825   0.000  0.00  0.00    +0.000 OA
ATOM      2  C   UNL     1      -0.357  -0.412   0.000  0.00  0.00    +0.000 C 
ATOM      3  C   UNL     1       0.357  -0.825   0.000  0.00  0.00    +0.000 C 
ATOM      4  O   UNL     1       0.357  -1.650   0.000  0.00  0.00    +0.000 OA
ATOM      5  C   UNL     1       1.072  -0.412   0.000  0.00  0.00    +0.000 C 
ATOM      6  O   UNL     1       1.072   0.412   0.000  0.00  0.00    +0.000 OA
ATOM      7  C   UNL     1       0.357   0.825   0.000  0.00  0.00    +0.000 C 
ATOM      8  O   UNL     1       0.357   1.650   0.000  0.00  0.00    +0.000 OA
ATOM      9  C   UNL     1      -0.357   0.412   0.000  0.00  0.00    +0.000 C 
ATOM     10  O   UNL     1      -1.072   0.825   0.000  0.00  0.00    +0.000 OA
ENDROOT
TORSDOF 0
