REMARK  Name = 
REMARK  10 active torsions:
REMARK  status: ('A' for Active; 'I' for Inactive)
REMARK    1  A    between atoms: CA_3  and  C_28
REMARK    2  A    between atoms: C_4  and  C_14
REMARK    3  A    between atoms: CA_7  and  N_9
REMARK    4  A    between atoms: C_10  and  C_13
REMARK    5  A    between atoms: C_13  and  C_15
REMARK    6  A    between atoms: C_14  and  S_17
REMARK    7  A    between atoms: S_17  and  C_18
REMARK    8  A    between atoms: N_23  and  O_37
REMARK    9  A    between atoms: C_26  and  C_33
REMARK   10  A    between atoms: C_32  and  C_33
REMARK                            x       y       z     vdW  Elec       q    Type
REMARK                         _______ _______ _______ _____ _____    ______ ____
ROOT
ATOM      1  C   UNL     1      -0.907   0.144   0.000  0.00  0.00    +0.000 C 
ATOM      2  N   UNL     1      -0.907  -0.681   0.000  0.00  0.00    +0.000 N 
ATOM      3  CA  UNL     1      -0.206  -1.093   0.000  0.00  0.00    +0.000 C 
ATOM      4  C   UNL     1       0.495  -0.681   0.000  0.00  0.00    +0.000 C 
ATOM      5  C   UNL     1       0.495   0.144   0.000  0.00  0.00    +0.000 C 
ATOM      6  S   UNL     1      -0.206   0.557   0.000  0.00  0.00    +0.000 S 
ATOM      7  CA  UNL     1      -1.732   0.144   0.000  0.00  0.00    +0.000 C 
ATOM      8  C   UNL     1      -1.732  -0.681   0.000  0.00  0.00    +0.000 C 
ATOM      9  O   UNL     1      -2.475  -1.093   0.000  0.00  0.00    +0.000 OA
ENDROOT
BRANCH   7  10
ATOM     10  N   UNL     1      -2.475   0.557   0.000  0.00  0.00    +0.000 NA
ATOM     11  C   UNL     1      -3.176   0.144   0.000  0.00  0.00    +0.000 C 
ATOM     12  O   UNL     1      -3.176  -0.681   0.000  0.00  0.00    +0.000 OA
BRANCH  11  13
ATOM     13  C   UNL     1      -3.836   0.557   0.000  0.00  0.00    +0.000 C 
ATOM     14  N   UNL     1      -3.836   1.382   0.000  0.00  0.00    +0.000 NA
BRANCH  13  15
ATOM     15  C   UNL     1      -4.579   0.144   0.000  0.00  0.00    +0.000 A 
ATOM     16  C   UNL     1      -5.197   0.639   0.000  0.00  0.00    +0.000 A 
ATOM     17  S   UNL     1      -5.899   0.186   0.000  0.00  0.00    +0.000 S 
ATOM     18  C   UNL     1      -5.651  -0.639   0.000  0.00  0.00    +0.000 A 
ATOM     19  N   UNL     1      -4.826  -0.639   0.000  0.00  0.00    +0.000 NA
ATOM     20  N   UNL     1      -6.146  -1.299   0.000  0.00  0.00    +0.000 NA
ENDBRANCH  13  15
BRANCH  14  21
ATOM     21  O   UNL     1      -3.135   1.753   0.000  0.00  0.00    +0.000 OA
ATOM     22  C   UNL     1      -3.135   2.578   0.000  0.00  0.00    +0.000 C 
ENDBRANCH  14  21
ENDBRANCH  11  13
ENDBRANCH   7  10
BRANCH   3  23
ATOM     23  C   UNL     1      -0.206  -1.918   0.000  0.00  0.00    +0.000 C 
ATOM     24  O   UNL     1       0.495  -2.331   0.000  0.00  0.00    +0.000 OA
ATOM     25  OXT UNL     1      -0.949  -2.331   0.000  0.00  0.00    +0.000 OA
ENDBRANCH   3  23
BRANCH   4  26
ATOM     26  C   UNL     1       1.238  -1.093   0.000  0.00  0.00    +0.000 C 
BRANCH  26  27
ATOM     27  S   UNL     1       1.939  -0.681   0.000  0.00  0.00    +0.000 S 
BRANCH  27  28
ATOM     28  C   UNL     1       2.640  -1.093   0.000  0.00  0.00    +0.000 A 
ATOM     29  N   UNL     1       2.888  -1.877   0.000  0.00  0.00    +0.000 NA
ATOM     30  C   UNL     1       3.712  -1.877   0.000  0.00  0.00    +0.000 A 
ATOM     31  C   UNL     1       4.001  -1.093   0.000  0.00  0.00    +0.000 A 
ATOM     32  S   UNL     1       3.300  -0.598   0.000  0.00  0.00    +0.000 S 
ATOM     33  C   UNL     1       4.207  -2.578   0.000  0.00  0.00    +0.000 C 
BRANCH  31  34
ATOM     34  C   UNL     1       4.702  -0.681   0.000  0.00  0.00    +0.000 C 
BRANCH  34  35
ATOM     35  C   UNL     1       5.445  -1.093   0.000  0.00  0.00    +0.000 C 
ATOM     36  O   UNL     1       6.146  -0.681   0.000  0.00  0.00    +0.000 OA
ATOM     37  O   UNL     1       5.445  -1.918   0.000  0.00  0.00    +0.000 OA
ENDBRANCH  34  35
ENDBRANCH  31  34
ENDBRANCH  27  28
ENDBRANCH  26  27
ENDBRANCH   4  26
TORSDOF 10
