REMARK  Name = 
REMARK  9 active torsions:
REMARK  status: ('A' for Active; 'I' for Inactive)
REMARK    1  A    between atoms: C_2  and  C_3
REMARK    2  A    between atoms: C_2  and  C_14
REMARK    3  A    between atoms: C_3  and  C_4
REMARK    4  A    between atoms: C_7  and  O_12
REMARK    5  A    between atoms: C_8  and  O_10
REMARK    6  A    between atoms: C_14  and  C_16
REMARK    7  A    between atoms: C_16  and  C_17
REMARK    8  A    between atoms: C_20  and  O_25
REMARK    9  A    between atoms: C_21  and  O_23
REMARK                            x       y       z     vdW  Elec       q    Type
REMARK                         _______ _______ _______ _____ _____    ______ ____
ROOT
ATOM      1  C   UNL     1       1.429  -1.650   0.000  0.00  0.00    +0.000 C 
ATOM      2  C   UNL     1       1.429  -2.475   0.000  0.00  0.00    +0.000 C 
ENDROOT
BRANCH   2   3
ATOM      3  C   UNL     1       2.143  -2.888   0.000  0.00  0.00    +0.000 C 
ATOM      4  C   UNL     1       2.143  -3.712   0.000  0.00  0.00    +0.000 C 
BRANCH   3   5
ATOM      5  C   UNL     1       2.858  -2.475   0.000  0.00  0.00    +0.000 C 
BRANCH   5   6
ATOM      6  C   UNL     1       3.572  -2.888   0.000  0.00  0.00    +0.000 A 
ATOM      7  C   UNL     1       4.287  -2.475   0.000  0.00  0.00    +0.000 A 
ATOM      8  C   UNL     1       5.001  -2.888   0.000  0.00  0.00    +0.000 A 
ATOM      9  C   UNL     1       5.001  -3.712   0.000  0.00  0.00    +0.000 A 
ATOM     10  C   UNL     1       4.287  -4.125   0.000  0.00  0.00    +0.000 A 
ATOM     11  C   UNL     1       3.572  -3.712   0.000  0.00  0.00    +0.000 A 
BRANCH  10  12
ATOM     12  O   UNL     1       4.287  -4.950   0.000  0.00  0.00    +0.000 OA
ATOM     13  C   UNL     1       3.572  -5.362   0.000  0.00  0.00    +0.000 C 
ENDBRANCH  10  12
BRANCH   9  14
ATOM     14  O   UNL     1       5.716  -4.125   0.000  0.00  0.00    +0.000 OA
ATOM     15  C   UNL     1       6.430  -3.712   0.000  0.00  0.00    +0.000 C 
ENDBRANCH   9  14
ENDBRANCH   5   6
ENDBRANCH   3   5
ENDBRANCH   2   3
BRANCH   2  16
ATOM     16  C   UNL     1       0.715  -2.888   0.000  0.00  0.00    +0.000 C 
BRANCH  16  17
ATOM     17  C   UNL     1       0.000  -2.475   0.000  0.00  0.00    +0.000 A 
ATOM     18  C   UNL     1      -0.715  -2.888   0.000  0.00  0.00    +0.000 A 
ATOM     19  C   UNL     1      -1.429  -2.475   0.000  0.00  0.00    +0.000 A 
ATOM     20  C   UNL     1      -1.429  -1.650   0.000  0.00  0.00    +0.000 A 
ATOM     21  C   UNL     1      -0.715  -1.238   0.000  0.00  0.00    +0.000 A 
ATOM     22  C   UNL     1       0.000  -1.650   0.000  0.00  0.00    +0.000 A 
BRANCH  21  23
ATOM     23  O   UNL     1      -0.715  -0.412   0.000  0.00  0.00    +0.000 OA
ATOM     24  C   UNL     1       0.000   0.000   0.000  0.00  0.00    +0.000 C 
ENDBRANCH  21  23
BRANCH  20  25
ATOM     25  O   UNL     1      -2.143  -1.238   0.000  0.00  0.00    +0.000 OA
ATOM     26  C   UNL     1      -2.143  -0.412   0.000  0.00  0.00    +0.000 C 
ENDBRANCH  20  25
ENDBRANCH  16  17
ENDBRANCH   2  16
TORSDOF 9
