REMARK  Name = 
REMARK  42 active torsions:
REMARK  status: ('A' for Active; 'I' for Inactive)
REMARK    1  A    between atoms: C_1  and  C_3
REMARK    2  A    between atoms: C_2  and  C_4
REMARK    3  A    between atoms: C_3  and  C_5
REMARK    4  A    between atoms: C_4  and  C_6
REMARK    5  A    between atoms: C_5  and  C_7
REMARK    6  A    between atoms: C_5  and  N_20
REMARK    7  A    between atoms: C_6  and  C_8
REMARK    8  A    between atoms: C_7  and  O_34
REMARK    9  A    between atoms: C_8  and  C_9
REMARK   10  A    between atoms: C_9  and  C_10
REMARK   11  A    between atoms: C_10  and  C_11
REMARK   12  A    between atoms: C_11  and  C_12
REMARK   13  A    between atoms: C_12  and  C_13
REMARK   14  A    between atoms: C_13  and  C_14
REMARK   15  A    between atoms: C_14  and  C_15
REMARK   16  A    between atoms: C_15  and  C_16
REMARK   17  A    between atoms: C_16  and  C_17
REMARK   18  A    between atoms: C_21  and  C_22
REMARK   19  A    between atoms: C_21  and  C_40
REMARK   20  A    between atoms: C_24  and  O_32
REMARK   21  A    between atoms: C_26  and  O_34
REMARK   22  A    between atoms: C_28  and  C_30
REMARK   23  A    between atoms: O_32  and  S_36
REMARK   24  A    between atoms: C_40  and  C_41
REMARK   25  A    between atoms: C_41  and  C_42
REMARK   26  A    between atoms: C_42  and  C_43
REMARK   27  A    between atoms: C_43  and  C_44
REMARK   28  A    between atoms: C_44  and  C_45
REMARK   29  A    between atoms: C_45  and  C_46
REMARK   30  A    between atoms: C_46  and  C_47
REMARK   31  A    between atoms: C_47  and  C_48
REMARK   32  A    between atoms: C_48  and  C_49
REMARK   33  A    between atoms: C_49  and  C_50
REMARK   34  A    between atoms: C_50  and  C_51
REMARK   35  A    between atoms: C_51  and  C_52
REMARK   36  A    between atoms: C_53  and  C_54
REMARK   37  A    between atoms: C_54  and  C_55
REMARK   38  A    between atoms: C_55  and  C_56
REMARK   39  A    between atoms: C_56  and  C_57
REMARK   40  A    between atoms: C_57  and  C_58
REMARK   41  A    between atoms: C_58  and  C_59
REMARK   42  A    between atoms: C_59  and  C_60
REMARK                            x       y       z     vdW  Elec       q    Type
REMARK                         _______ _______ _______ _____ _____    ______ ____
ROOT
ATOM      1  C   UNL     1       3.215   0.740   0.000  0.00  0.00    +0.000 C 
ENDROOT
BRANCH   1   2
ATOM      2  N   UNL     1       3.215  -0.085   0.000  0.00  0.00    +0.000 NA
ATOM      3  C   UNL     1       2.501  -0.498   0.000  0.00  0.00    +0.000 C 
ATOM      4  O   UNL     1       2.501  -1.323   0.000  0.00  0.00    +0.000 OA
BRANCH   3   5
ATOM      5  C   UNL     1       1.786  -0.086   0.000  0.00  0.00    +0.000 C 
BRANCH   5   6
ATOM      6  C   UNL     1       1.072  -0.498   0.000  0.00  0.00    +0.000 C 
BRANCH   6   7
ATOM      7  C   UNL     1       0.357  -0.086   0.000  0.00  0.00    +0.000 C 
BRANCH   7   8
ATOM      8  C   UNL     1      -0.357  -0.498   0.000  0.00  0.00    +0.000 C 
BRANCH   8   9
ATOM      9  C   UNL     1      -1.071  -0.086   0.000  0.00  0.00    +0.000 C 
BRANCH   9  10
ATOM     10  C   UNL     1      -1.786  -0.498   0.000  0.00  0.00    +0.000 C 
BRANCH  10  11
ATOM     11  C   UNL     1      -2.500  -0.086   0.000  0.00  0.00    +0.000 C 
BRANCH  11  12
ATOM     12  C   UNL     1      -3.215  -0.498   0.000  0.00  0.00    +0.000 C 
BRANCH  12  13
ATOM     13  C   UNL     1      -3.929  -0.086   0.000  0.00  0.00    +0.000 C 
BRANCH  13  14
ATOM     14  C   UNL     1      -4.644  -0.498   0.000  0.00  0.00    +0.000 C 
BRANCH  14  15
ATOM     15  C   UNL     1      -5.358  -0.086   0.000  0.00  0.00    +0.000 C 
BRANCH  15  16
ATOM     16  C   UNL     1      -6.073  -0.498   0.000  0.00  0.00    +0.000 C 
BRANCH  16  17
ATOM     17  C   UNL     1      -6.073  -1.323   0.000  0.00  0.00    +0.000 C 
BRANCH  17  18
ATOM     18  C   UNL     1      -5.358  -1.736   0.000  0.00  0.00    +0.000 C 
ATOM     19  C   UNL     1      -5.358  -2.561   0.000  0.00  0.00    +0.000 C 
BRANCH  19  20
ATOM     20  C   UNL     1      -6.073  -2.973   0.000  0.00  0.00    +0.000 C 
BRANCH  20  21
ATOM     21  C   UNL     1      -6.073  -3.798   0.000  0.00  0.00    +0.000 C 
BRANCH  21  22
ATOM     22  C   UNL     1      -5.358  -4.211   0.000  0.00  0.00    +0.000 C 
BRANCH  22  23
ATOM     23  C   UNL     1      -4.644  -3.798   0.000  0.00  0.00    +0.000 C 
BRANCH  23  24
ATOM     24  C   UNL     1      -3.929  -4.211   0.000  0.00  0.00    +0.000 C 
BRANCH  24  25
ATOM     25  C   UNL     1      -3.215  -3.798   0.000  0.00  0.00    +0.000 C 
BRANCH  25  26
ATOM     26  C   UNL     1      -2.500  -4.211   0.000  0.00  0.00    +0.000 C 
ATOM     27  C   UNL     1      -1.786  -3.798   0.000  0.00  0.00    +0.000 C 
ENDBRANCH  25  26
ENDBRANCH  24  25
ENDBRANCH  23  24
ENDBRANCH  22  23
ENDBRANCH  21  22
ENDBRANCH  20  21
ENDBRANCH  19  20
ENDBRANCH  17  18
ENDBRANCH  16  17
ENDBRANCH  15  16
ENDBRANCH  14  15
ENDBRANCH  13  14
ENDBRANCH  12  13
ENDBRANCH  11  12
ENDBRANCH  10  11
ENDBRANCH   9  10
ENDBRANCH   8   9
ENDBRANCH   7   8
ENDBRANCH   6   7
ENDBRANCH   5   6
ENDBRANCH   3   5
ENDBRANCH   1   2
BRANCH   1  28
ATOM     28  C   UNL     1       2.501   1.152   0.000  0.00  0.00    +0.000 C 
ATOM     29  O   UNL     1       2.501   1.977   0.000  0.00  0.00    +0.000 OA
BRANCH  28  30
ATOM     30  C   UNL     1       1.786   0.740   0.000  0.00  0.00    +0.000 C 
ATOM     31  C   UNL     1       1.072   1.152   0.000  0.00  0.00    +0.000 C 
BRANCH  31  32
ATOM     32  C   UNL     1       0.357   0.740   0.000  0.00  0.00    +0.000 C 
BRANCH  32  33
ATOM     33  C   UNL     1      -0.357   1.152   0.000  0.00  0.00    +0.000 C 
BRANCH  33  34
ATOM     34  C   UNL     1      -1.072   0.740   0.000  0.00  0.00    +0.000 C 
BRANCH  34  35
ATOM     35  C   UNL     1      -1.786   1.152   0.000  0.00  0.00    +0.000 C 
BRANCH  35  36
ATOM     36  C   UNL     1      -2.501   0.740   0.000  0.00  0.00    +0.000 C 
BRANCH  36  37
ATOM     37  C   UNL     1      -3.215   1.152   0.000  0.00  0.00    +0.000 C 
BRANCH  37  38
ATOM     38  C   UNL     1      -3.929   0.740   0.000  0.00  0.00    +0.000 C 
BRANCH  38  39
ATOM     39  C   UNL     1      -4.644   1.152   0.000  0.00  0.00    +0.000 C 
BRANCH  39  40
ATOM     40  C   UNL     1      -5.359   0.740   0.000  0.00  0.00    +0.000 C 
BRANCH  40  41
ATOM     41  C   UNL     1      -6.073   1.152   0.000  0.00  0.00    +0.000 C 
BRANCH  41  42
ATOM     42  C   UNL     1      -6.787   0.740   0.000  0.00  0.00    +0.000 C 
BRANCH  42  43
ATOM     43  C   UNL     1      -7.502   1.152   0.000  0.00  0.00    +0.000 C 
ATOM     44  C   UNL     1      -8.216   0.740   0.000  0.00  0.00    +0.000 C 
ENDBRANCH  42  43
ENDBRANCH  41  42
ENDBRANCH  40  41
ENDBRANCH  39  40
ENDBRANCH  38  39
ENDBRANCH  37  38
ENDBRANCH  36  37
ENDBRANCH  35  36
ENDBRANCH  34  35
ENDBRANCH  33  34
ENDBRANCH  32  33
ENDBRANCH  31  32
ENDBRANCH  28  30
ENDBRANCH   1  28
BRANCH   1  45
ATOM     45  C   UNL     1       3.930   1.152   0.000  0.00  0.00    +0.000 C 
BRANCH  45  46
ATOM     46  O   UNL     1       4.644   0.740   0.000  0.00  0.00    +0.000 OA
BRANCH  46  49
ATOM     47  C   UNL     1       6.073   2.390   0.000  0.00  0.00    +0.000 C 
ATOM     48  C   UNL     1       5.359   1.977   0.000  0.00  0.00    +0.000 C 
ATOM     49  C   UNL     1       5.359   1.152   0.000  0.00  0.00    +0.000 C 
ATOM     50  O   UNL     1       6.073   0.740   0.000  0.00  0.00    +0.000 OA
ATOM     51  C   UNL     1       6.787   1.152   0.000  0.00  0.00    +0.000 C 
ATOM     52  C   UNL     1       6.787   1.977   0.000  0.00  0.00    +0.000 C 
ATOM     53  O   UNL     1       7.502   2.390   0.000  0.00  0.00    +0.000 OA
ATOM     54  O   UNL     1       4.644   2.390   0.000  0.00  0.00    +0.000 OA
BRANCH  51  55
ATOM     55  C   UNL     1       7.502   0.740   0.000  0.00  0.00    +0.000 C 
ATOM     56  O   UNL     1       8.216   1.152   0.000  0.00  0.00    +0.000 OA
ENDBRANCH  51  55
BRANCH  47  57
ATOM     57  O   UNL     1       6.073   3.215   0.000  0.00  0.00    +0.000 OA
BRANCH  57  58
ATOM     58  S   UNL     1       6.787   3.627   0.000  0.00  0.00    +0.000 S 
ATOM     59  O   UNL     1       7.502   3.215   0.000  0.00  0.00    +0.000 OA
ATOM     60  O   UNL     1       7.371   4.210   0.000  0.00  0.00    +0.000 OA
ATOM     61  O   UNL     1       6.204   4.210   0.000  0.00  0.00    +0.000 OA
ENDBRANCH  57  58
ENDBRANCH  47  57
ENDBRANCH  46  49
ENDBRANCH  45  46
ENDBRANCH   1  45
TORSDOF 42
