REMARK  Name = 
REMARK  13 active torsions:
REMARK  status: ('A' for Active; 'I' for Inactive)
REMARK    1  A    between atoms: P_1  and  O_2
REMARK    2  A    between atoms: P_1  and  O_5
REMARK    3  A    between atoms: O_2  and  C_3
REMARK    4  A    between atoms: C_3  and  C_4
REMARK    5  A    between atoms: C_4  and  C_31
REMARK    6  A    between atoms: O_5  and  P_41
REMARK    7  A    between atoms: N_6  and  C_9
REMARK    8  A    between atoms: C_9  and  C_30
REMARK    9  A    between atoms: C_30  and  C_31
REMARK   10  A    between atoms: O_32  and  C_33
REMARK   11  A    between atoms: O_32  and  P_41
REMARK   12  A    between atoms: C_33  and  C_34
REMARK   13  A    between atoms: C_37  and  N_44
REMARK                            x       y       z     vdW  Elec       q    Type
REMARK                         _______ _______ _______ _____ _____    ______ ____
ROOT
ATOM      1  O   UNL     1      -0.774  -0.145   0.000  0.00  0.00    +0.000 OA
ENDROOT
BRANCH   1   2
ATOM      2  P   UNL     1      -0.059   0.267   0.000  0.00  0.00    +0.000 P 
ATOM      3  O   UNL     1      -0.059   1.092   0.000  0.00  0.00    +0.000 OA
ATOM      4  O   UNL     1      -0.059  -0.558   0.000  0.00  0.00    +0.000 OA
BRANCH   2   5
ATOM      5  O   UNL     1       0.655  -0.145   0.000  0.00  0.00    +0.000 OA
BRANCH   5   7
ATOM      6  O   UNL     1       1.369   1.092   0.000  0.00  0.00    +0.000 OA
ATOM      7  P   UNL     1       1.369   0.267   0.000  0.00  0.00    +0.000 P 
ATOM      8  O   UNL     1       1.369  -0.558   0.000  0.00  0.00    +0.000 OA
BRANCH   7   9
ATOM      9  O   UNL     1       2.084  -0.145   0.000  0.00  0.00    +0.000 OA
BRANCH   9  10
ATOM     10  C   UNL     1       2.697   0.407   0.000  0.00  0.00    +0.000 C 
BRANCH  10  11
ATOM     11  C   UNL     1       3.482   0.152   0.000  0.00  0.00    +0.000 C 
ATOM     12  O   UNL     1       4.149   0.637   0.000  0.00  0.00    +0.000 OA
ATOM     13  C   UNL     1       3.737  -0.632   0.000  0.00  0.00    +0.000 C 
ATOM     14  C   UNL     1       4.817   0.152   0.000  0.00  0.00    +0.000 C 
ATOM     15  C   UNL     1       4.562  -0.632   0.000  0.00  0.00    +0.000 C 
ATOM     16  O   UNL     1       3.252  -1.300   0.000  0.00  0.00    +0.000 OA
ATOM     17  O   UNL     1       5.047  -1.300   0.000  0.00  0.00    +0.000 OA
BRANCH  14  18
ATOM     18  N   UNL     1       5.601   0.407   0.000  0.00  0.00    +0.000 N 
ATOM     19  C   UNL     1       5.856   1.192   0.000  0.00  0.00    +0.000 A 
ATOM     20  C   UNL     1       6.269  -0.078   0.000  0.00  0.00    +0.000 A 
ATOM     21  C   UNL     1       6.681   1.192   0.000  0.00  0.00    +0.000 A 
ATOM     22  N   UNL     1       5.444   1.906   0.000  0.00  0.00    +0.000 NA
ATOM     23  N   UNL     1       6.936   0.407   0.000  0.00  0.00    +0.000 NA
ATOM     24  C   UNL     1       7.094   1.906   0.000  0.00  0.00    +0.000 A 
ATOM     25  C   UNL     1       5.856   2.620   0.000  0.00  0.00    +0.000 A 
ATOM     26  N   UNL     1       6.681   2.620   0.000  0.00  0.00    +0.000 NA
ATOM     27  N   UNL     1       7.919   1.906   0.000  0.00  0.00    +0.000 NA
ENDBRANCH  14  18
ENDBRANCH  10  11
ENDBRANCH   9  10
ENDBRANCH   7   9
ENDBRANCH   5   7
ENDBRANCH   2   5
ENDBRANCH   1   2
BRANCH   1  28
ATOM     28  C   UNL     1      -1.488   0.267   0.000  0.00  0.00    +0.000 C 
BRANCH  28  29
ATOM     29  C   UNL     1      -2.203  -0.145   0.000  0.00  0.00    +0.000 C 
ATOM     30  O   UNL     1      -2.203  -0.970   0.000  0.00  0.00    +0.000 OA
BRANCH  29  32
ATOM     31  O   UNL     1      -2.917   1.092   0.000  0.00  0.00    +0.000 OA
ATOM     32  C   UNL     1      -2.917   0.267   0.000  0.00  0.00    +0.000 C 
BRANCH  32  34
ATOM     33  O   UNL     1      -3.632  -0.970   0.000  0.00  0.00    +0.000 OA
ATOM     34  C   UNL     1      -3.632  -0.145   0.000  0.00  0.00    +0.000 C 
BRANCH  34  35
ATOM     35  C   UNL     1      -4.346   0.267   0.000  0.00  0.00    +0.000 C 
BRANCH  35  36
ATOM     36  N   UNL     1      -5.061  -0.145   0.000  0.00  0.00    +0.000 N 
ATOM     37  C   UNL     1      -5.061  -0.970   0.000  0.00  0.00    +0.000 A 
ATOM     38  C   UNL     1      -5.775   0.267   0.000  0.00  0.00    +0.000 A 
ATOM     39  C   UNL     1      -5.775  -1.383   0.000  0.00  0.00    +0.000 A 
ATOM     40  N   UNL     1      -4.346  -1.383   0.000  0.00  0.00    +0.000 NA
ATOM     41  C   UNL     1      -6.490  -0.145   0.000  0.00  0.00    +0.000 A 
ATOM     42  C   UNL     1      -5.775   1.092   0.000  0.00  0.00    +0.000 A 
ATOM     43  N   UNL     1      -6.490  -0.970   0.000  0.00  0.00    +0.000 NA
ATOM     44  C   UNL     1      -5.775  -2.208   0.000  0.00  0.00    +0.000 A 
ATOM     45  C   UNL     1      -4.346  -2.208   0.000  0.00  0.00    +0.000 A 
ATOM     46  C   UNL     1      -7.204   0.267   0.000  0.00  0.00    +0.000 A 
ATOM     47  C   UNL     1      -6.490   1.505   0.000  0.00  0.00    +0.000 A 
ATOM     48  N   UNL     1      -5.061  -2.620   0.000  0.00  0.00    +0.000 NA
ATOM     49  O   UNL     1      -6.490  -2.620   0.000  0.00  0.00    +0.000 OA
ATOM     50  O   UNL     1      -3.632  -2.620   0.000  0.00  0.00    +0.000 OA
ATOM     51  C   UNL     1      -7.204   1.092   0.000  0.00  0.00    +0.000 A 
ATOM     52  C   UNL     1      -6.490   2.330   0.000  0.00  0.00    +0.000 C 
ATOM     53  C   UNL     1      -7.919   1.505   0.000  0.00  0.00    +0.000 C 
ATOM     54  O   UNL     1      -7.918  -0.145   0.000  0.00  0.00    +0.000 OA
ENDBRANCH  35  36
ENDBRANCH  34  35
ENDBRANCH  32  34
ENDBRANCH  29  32
ENDBRANCH  28  29
ENDBRANCH   1  28
TORSDOF 13
