REMARK  Name = 
REMARK  4 active torsions:
REMARK  status: ('A' for Active; 'I' for Inactive)
REMARK    1  A    between atoms: O_4  and  C_5
REMARK    2  A    between atoms: O_4  and  C_28
REMARK    3  A    between atoms: C_18  and  O_19
REMARK    4  A    between atoms: C_18  and  C_25
REMARK                            x       y       z     vdW  Elec       q    Type
REMARK                         _______ _______ _______ _____ _____    ______ ____
ROOT
ATOM      1  C   UNL     1       0.080  -0.014   0.000  0.00  0.00    +0.000 C 
ATOM      2  C   UNL     1       0.794  -0.426   0.000  0.00  0.00    +0.000 C 
ATOM      3  C   UNL     1       0.794   1.224   0.000  0.00  0.00    +0.000 C 
ATOM      4  C   UNL     1       2.293   1.066   0.000  0.00  0.00    +0.000 C 
ATOM      5  C   UNL     1       2.778   0.398   0.000  0.00  0.00    +0.000 C 
ATOM      6  C   UNL     1       2.293  -0.269   0.000  0.00  0.00    +0.000 C 
ATOM      7  O   UNL     1       2.548   1.851   0.000  0.00  0.00    +0.000 OA
ATOM      8  C   UNL     1       0.794  -1.251   0.000  0.00  0.00    +0.000 C 
ATOM      9  C   UNL     1       0.080  -1.664   0.000  0.00  0.00    +0.000 A 
ATOM     10  C   UNL     1      -0.635  -1.251   0.000  0.00  0.00    +0.000 A 
ATOM     11  C   UNL     1      -1.349  -1.664   0.000  0.00  0.00    +0.000 A 
ATOM     12  C   UNL     1      -2.064  -1.251   0.000  0.00  0.00    +0.000 C 
ATOM     13  O   UNL     1      -2.064  -0.426   0.000  0.00  0.00    +0.000 OA
ATOM     14  O   UNL     1      -2.778  -1.664   0.000  0.00  0.00    +0.000 OA
ATOM     15  C   UNL     1      -1.136  -2.461   0.000  0.00  0.00    +0.000 A 
ATOM     16  O   UNL     1      -0.134  -2.461   0.000  0.00  0.00    +0.000 OA
ATOM     17  O   UNL     1       1.509  -1.664   0.000  0.00  0.00    +0.000 OA
ATOM     18  C   UNL     1      -1.349  -0.014   0.000  0.00  0.00    +0.000 C 
ATOM     19  C   UNL     1      -0.635  -0.426   0.000  0.00  0.00    +0.000 C 
ATOM     20  C   UNL     1      -0.635   0.398   0.000  0.00  0.00    +0.000 C 
ATOM     21  C   UNL     1       0.080   0.811   0.000  0.00  0.00    +0.000 C 
ATOM     22  C   UNL     1       1.509   0.811   0.000  0.00  0.00    +0.000 C 
ATOM     23  C   UNL     1       1.504   1.623   0.000  0.00  0.00    +0.000 C 
ATOM     24  C   UNL     1       1.509  -0.014   0.000  0.00  0.00    +0.000 C 
ENDROOT
BRANCH  21  25
ATOM     25  O   UNL     1      -0.635   1.224   0.000  0.00  0.00    +0.000 OA
BRANCH  25  26
ATOM     26  C   UNL     1      -0.635   2.048   0.000  0.00  0.00    +0.000 C 
ATOM     27  O   UNL     1      -1.349   2.461   0.000  0.00  0.00    +0.000 OA
ATOM     28  C   UNL     1       0.080   2.461   0.000  0.00  0.00    +0.000 C 
ENDBRANCH  25  26
ENDBRANCH  21  25
BRANCH  18  29
ATOM     29  C   UNL     1      -1.349   0.811   0.000  0.00  0.00    +0.000 C 
BRANCH  29  30
ATOM     30  O   UNL     1      -2.064   1.224   0.000  0.00  0.00    +0.000 OA
ATOM     31  C   UNL     1      -2.064   2.048   0.000  0.00  0.00    +0.000 C 
ENDBRANCH  29  30
ENDBRANCH  18  29
TORSDOF 4
