REMARK  Name = 
REMARK  2 active torsions:
REMARK  status: ('A' for Active; 'I' for Inactive)
REMARK    1  A    between atoms: HG_2  and  C_3
REMARK    2  A    between atoms: C_6  and  C_9
REMARK                            x       y       z     vdW  Elec       q    Type
REMARK                         _______ _______ _______ _____ _____    ______ ____
ROOT
ATOM      1  C   UNL     1       0.000  -0.619   0.000  0.00  0.00    +0.000 A 
ATOM      2  C   UNL     1       0.715  -0.206   0.000  0.00  0.00    +0.000 A 
ATOM      3  C   UNL     1       0.715   0.619   0.000  0.00  0.00    +0.000 A 
ATOM      4  C   UNL     1       0.000   1.031   0.000  0.00  0.00    +0.000 A 
ATOM      5  C   UNL     1      -0.715   0.619   0.000  0.00  0.00    +0.000 A 
ATOM      6  C   UNL     1      -0.715  -0.206   0.000  0.00  0.00    +0.000 A 
ENDROOT
BRANCH   4   7
ATOM      7  C   UNL     1       0.000   1.856   0.000  0.00  0.00    +0.000 C 
ATOM      8  O   UNL     1      -0.715   2.269   0.000  0.00  0.00    +0.000 OA
ATOM      9  O   UNL     1       0.715   2.269   0.000  0.00  0.00    +0.000 OA
ENDBRANCH   4   7
BRANCH   1  11
ATOM     10  O   UNL     1       0.000  -2.269   0.000  0.00  0.00    +0.000 OA
ATOM     11 HG   UNL     1       0.000  -1.444   0.000  0.00  0.00    +0.000 Hg
ENDBRANCH   1  11
TORSDOF 2
