REMARK  Name = 
REMARK  2 active torsions:
REMARK  status: ('A' for Active; 'I' for Inactive)
REMARK    1  A    between atoms: C_2  and  N_3
REMARK    2  A    between atoms: C_4  and  C_5
REMARK                            x       y       z     vdW  Elec       q    Type
REMARK                         _______ _______ _______ _____ _____    ______ ____
ROOT
ATOM      1  N   UNL     1       1.540  -1.016   0.000  0.00  0.00    +0.000 N 
ATOM      2  C   UNL     1       2.365  -1.016   0.000  0.00  0.00    +0.000 A 
ATOM      3  C   UNL     1       2.777  -0.302   0.000  0.00  0.00    +0.000 A 
ATOM      4  C   UNL     1       2.365   0.412   0.000  0.00  0.00    +0.000 A 
ATOM      5  C   UNL     1       2.777   1.127   0.000  0.00  0.00    +0.000 A 
ATOM      6  C   UNL     1       3.602   1.127   0.000  0.00  0.00    +0.000 A 
ATOM      7  C   UNL     1       4.014   0.412   0.000  0.00  0.00    +0.000 A 
ATOM      8  N   UNL     1       4.840   0.412   0.000  0.00  0.00    +0.000 NA
ATOM      9  C   UNL     1       3.602  -0.302   0.000  0.00  0.00    +0.000 A 
ATOM     10  C   UNL     1       1.540   0.412   0.000  0.00  0.00    +0.000 A 
ATOM     11  C   UNL     1       1.127  -0.302   0.000  0.00  0.00    +0.000 A 
ATOM     12  C   UNL     1       0.302  -0.302   0.000  0.00  0.00    +0.000 A 
ATOM     13  C   UNL     1      -0.111   0.412   0.000  0.00  0.00    +0.000 A 
ATOM     14  N   UNL     1      -0.935   0.412   0.000  0.00  0.00    +0.000 NA
ATOM     15  C   UNL     1       0.302   1.127   0.000  0.00  0.00    +0.000 A 
ATOM     16  C   UNL     1       1.127   1.127   0.000  0.00  0.00    +0.000 A 
ENDROOT
BRANCH   2  17
ATOM     17  C   UNL     1       2.777  -1.731   0.000  0.00  0.00    +0.000 A 
ATOM     18  C   UNL     1       3.602  -1.731   0.000  0.00  0.00    +0.000 A 
ATOM     19  C   UNL     1       4.014  -2.445   0.000  0.00  0.00    +0.000 A 
ATOM     20  C   UNL     1       3.602  -3.160   0.000  0.00  0.00    +0.000 A 
ATOM     21  C   UNL     1       2.777  -3.160   0.000  0.00  0.00    +0.000 A 
ATOM     22  C   UNL     1       2.365  -2.445   0.000  0.00  0.00    +0.000 A 
ENDBRANCH   2  17
BRANCH   1  24
ATOM     23  C   UNL     1       0.302  -1.731   0.000  0.00  0.00    +0.000 C 
ATOM     24  C   UNL     1       1.127  -1.731   0.000  0.00  0.00    +0.000 C 
ENDBRANCH   1  24
TORSDOF 2
