REMARK  Name = 
REMARK  8 active torsions:
REMARK  status: ('A' for Active; 'I' for Inactive)
REMARK    1  A    between atoms: C_19  and  C_20
REMARK    2  A    between atoms: C_19  and  N_29
REMARK    3  A    between atoms: C_20  and  O_31
REMARK    4  A    between atoms: C_21  and  C_24
REMARK    5  A    between atoms: C_21  and  N_30
REMARK    6  A    between atoms: C_23  and  C_27
REMARK    7  A    between atoms: C_25  and  C_27
REMARK    8  A    between atoms: C_27  and  O_31
REMARK                            x       y       z     vdW  Elec       q    Type
REMARK                         _______ _______ _______ _____ _____    ______ ____
ROOT
ATOM      1  C   UNL     1      -2.143   7.013   0.000  0.00  0.00    +0.000 C 
ENDROOT
BRANCH   1   2
ATOM      2  C   UNL     1      -1.429   7.425   0.000  0.00  0.00    +0.000 C 
BRANCH   2   7
ATOM      3  C   UNL     1      -0.715   8.662   0.000  0.00  0.00    +0.000 C 
ATOM      4  C   UNL     1      -2.143   8.662   0.000  0.00  0.00    +0.000 C 
ATOM      5  C   UNL     1      -0.715   9.488   0.000  0.00  0.00    +0.000 C 
ATOM      6  C   UNL     1      -2.143   9.488   0.000  0.00  0.00    +0.000 C 
ATOM      7  N   UNL     1      -1.429   8.250   0.000  0.00  0.00    +0.000 NA
ATOM      8  N   UNL     1      -1.429   9.900   0.000  0.00  0.00    +0.000 NA
BRANCH   8   9
ATOM      9  C   UNL     1      -1.429  10.725   0.000  0.00  0.00    +0.000 C 
BRANCH   9  16
ATOM     10  C   UNL     1       0.000   9.900   0.000  0.00  0.00    +0.000 C 
ATOM     11  C   UNL     1       0.715  11.963   0.000  0.00  0.00    +0.000 A 
ATOM     12  C   UNL     1       0.000  12.375   0.000  0.00  0.00    +0.000 A 
ATOM     13  C   UNL     1       0.715  11.137   0.000  0.00  0.00    +0.000 A 
ATOM     14  C   UNL     1      -0.715  11.963   0.000  0.00  0.00    +0.000 A 
ATOM     15  C   UNL     1       0.000  10.725   0.000  0.00  0.00    +0.000 A 
ATOM     16  C   UNL     1      -0.715  11.137   0.000  0.00  0.00    +0.000 A 
ENDBRANCH   9  16
ENDBRANCH   8   9
ENDBRANCH   2   7
ENDBRANCH   1   2
BRANCH   1  17
ATOM     17  O   UNL     1      -2.143   6.188   0.000  0.00  0.00    +0.000 OA
BRANCH  17  18
ATOM     18  C   UNL     1      -2.858   5.775   0.000  0.00  0.00    +0.000 C 
BRANCH  18  23
ATOM     19  C   UNL     1      -4.287   7.425   0.000  0.00  0.00    +0.000 A 
ATOM     20  C   UNL     1      -5.001   7.013   0.000  0.00  0.00    +0.000 A 
ATOM     21  C   UNL     1      -3.572   7.013   0.000  0.00  0.00    +0.000 A 
ATOM     22  C   UNL     1      -5.001   6.188   0.000  0.00  0.00    +0.000 A 
ATOM     23  C   UNL     1      -3.572   6.188   0.000  0.00  0.00    +0.000 A 
ATOM     24  C   UNL     1      -4.287   5.775   0.000  0.00  0.00    +0.000 A 
ATOM     25 CL   UNL     1      -4.287   4.950   0.000  0.00  0.00    +0.000 Cl
ENDBRANCH  18  23
BRANCH  18  31
ATOM     26  C   UNL     1      -2.858   3.300   0.000  0.00  0.00    +0.000 A 
ATOM     27  C   UNL     1      -2.143   3.712   0.000  0.00  0.00    +0.000 A 
ATOM     28  C   UNL     1      -3.572   3.712   0.000  0.00  0.00    +0.000 A 
ATOM     29  C   UNL     1      -2.143   4.537   0.000  0.00  0.00    +0.000 A 
ATOM     30  C   UNL     1      -3.572   4.537   0.000  0.00  0.00    +0.000 A 
ATOM     31  C   UNL     1      -2.858   4.950   0.000  0.00  0.00    +0.000 A 
ENDBRANCH  18  31
ENDBRANCH  17  18
ENDBRANCH   1  17
TORSDOF 8
