REMARK  Name = 
REMARK  10 active torsions:
REMARK  status: ('A' for Active; 'I' for Inactive)
REMARK    1  A    between atoms: C_1  and  C_9
REMARK    2  A    between atoms: N_3  and  C_18
REMARK    3  A    between atoms: C_6  and  C_7
REMARK    4  A    between atoms: C_6  and  C_10
REMARK    5  A    between atoms: N_8  and  C_19
REMARK    6  A    between atoms: C_18  and  C_30
REMARK    7  A    between atoms: C_19  and  C_24
REMARK    8  A    between atoms: C_21  and  C_24
REMARK    9  A    between atoms: O_29  and  C_30
REMARK   10  A    between atoms: O_29  and  C_31
REMARK                            x       y       z     vdW  Elec       q    Type
REMARK                         _______ _______ _______ _____ _____    ______ ____
ROOT
ATOM      1  N   UNL     1      -0.032  -0.277   0.000  0.00  0.00    +0.000 NA
ATOM      2  C   UNL     1       1.618  -0.277   0.000  0.00  0.00    +0.000 C 
ATOM      3  C   UNL     1       1.206  -0.990   0.000  0.00  0.00    +0.000 C 
ATOM      4  C   UNL     1       1.206   0.437   0.000  0.00  0.00    +0.000 C 
ATOM      5  C   UNL     1       0.381  -0.990   0.000  0.00  0.00    +0.000 C 
ATOM      6  C   UNL     1       0.381   0.437   0.000  0.00  0.00    +0.000 C 
ENDROOT
BRANCH   2   7
ATOM      7  C   UNL     1       2.443  -0.277   0.000  0.00  0.00    +0.000 A 
ATOM      8  N   UNL     1       2.929  -0.946   0.000  0.00  0.00    +0.000 NA
ATOM      9  N   UNL     1       2.929   0.393   0.000  0.00  0.00    +0.000 N 
ATOM     10  C   UNL     1       3.715   0.136   0.000  0.00  0.00    +0.000 A 
ATOM     11  C   UNL     1       3.715  -0.684   0.000  0.00  0.00    +0.000 A 
ATOM     12  C   UNL     1       4.428   0.553   0.000  0.00  0.00    +0.000 A 
ATOM     13  C   UNL     1       4.428  -1.101   0.000  0.00  0.00    +0.000 A 
ATOM     14  C   UNL     1       5.142   0.136   0.000  0.00  0.00    +0.000 A 
ATOM     15  C   UNL     1       5.142  -0.684   0.000  0.00  0.00    +0.000 A 
BRANCH   9  16
ATOM     16  C   UNL     1       2.676   1.179   0.000  0.00  0.00    +0.000 C 
BRANCH  16  17
ATOM     17  C   UNL     1       3.230   1.791   0.000  0.00  0.00    +0.000 C 
BRANCH  17  18
ATOM     18  O   UNL     1       4.035   1.616   0.000  0.00  0.00    +0.000 OA
BRANCH  18  19
ATOM     19  C   UNL     1       4.588   2.228   0.000  0.00  0.00    +0.000 C 
ATOM     20  C   UNL     1       5.389   2.058   0.000  0.00  0.00    +0.000 C 
ENDBRANCH  18  19
ENDBRANCH  17  18
ENDBRANCH  16  17
ENDBRANCH   9  16
ENDBRANCH   2   7
BRANCH   1  21
ATOM     21  C   UNL     1      -0.857  -0.277   0.000  0.00  0.00    +0.000 C 
BRANCH  21  22
ATOM     22  C   UNL     1      -1.269  -0.990   0.000  0.00  0.00    +0.000 C 
BRANCH  22  26
ATOM     23  C   UNL     1      -3.744  -0.990   0.000  0.00  0.00    +0.000 A 
ATOM     24  C   UNL     1      -3.332  -0.277   0.000  0.00  0.00    +0.000 A 
ATOM     25  C   UNL     1      -3.332  -1.703   0.000  0.00  0.00    +0.000 A 
ATOM     26  C   UNL     1      -2.094  -0.990   0.000  0.00  0.00    +0.000 A 
ATOM     27  C   UNL     1      -2.507  -0.277   0.000  0.00  0.00    +0.000 A 
ATOM     28  C   UNL     1      -2.507  -1.703   0.000  0.00  0.00    +0.000 A 
BRANCH  23  29
ATOM     29  C   UNL     1      -4.569  -0.990   0.000  0.00  0.00    +0.000 C 
ATOM     30  C   UNL     1      -5.389  -0.990   0.000  0.00  0.00    +0.000 C 
ATOM     31  C   UNL     1      -4.569  -0.160   0.000  0.00  0.00    +0.000 C 
BRANCH  29  32
ATOM     32  C   UNL     1      -4.569  -1.815   0.000  0.00  0.00    +0.000 C 
ATOM     33  O   UNL     1      -5.282  -2.228   0.000  0.00  0.00    +0.000 OA
ATOM     34  O   UNL     1      -3.856  -2.228   0.000  0.00  0.00    +0.000 OA
ENDBRANCH  29  32
ENDBRANCH  23  29
ENDBRANCH  22  26
ENDBRANCH  21  22
ENDBRANCH   1  21
TORSDOF 10
