REMARK  Name = 
REMARK  5 active torsions:
REMARK  status: ('A' for Active; 'I' for Inactive)
REMARK    1  A    between atoms: C_7  and  C_8
REMARK    2  A    between atoms: C_9  and  C_10
REMARK    3  A    between atoms: C_9  and  C_21
REMARK    4  A    between atoms: N_11  and  C_12
REMARK    5  A    between atoms: C_12  and  C_14
REMARK                            x       y       z     vdW  Elec       q    Type
REMARK                         _______ _______ _______ _____ _____    ______ ____
ROOT
ATOM      1  C   UNL     1       1.072  -0.825   0.000  0.00  0.00    +0.000 C 
ATOM      2  C   UNL     1       0.357  -0.412   0.000  0.00  0.00    +0.000 C 
ENDROOT
BRANCH   1   9
ATOM      3  O   UNL     1       2.501   1.650   0.000  0.00  0.00    +0.000 OA
ATOM      4  C   UNL     1       2.501   0.825   0.000  0.00  0.00    +0.000 A 
ATOM      5  C   UNL     1       3.215   0.412   0.000  0.00  0.00    +0.000 A 
ATOM      6  O   UNL     1       3.929   0.825   0.000  0.00  0.00    +0.000 OA
ATOM      7  C   UNL     1       3.215  -0.412   0.000  0.00  0.00    +0.000 A 
ATOM      8  C   UNL     1       2.501  -0.825   0.000  0.00  0.00    +0.000 A 
ATOM      9  C   UNL     1       1.786  -0.412   0.000  0.00  0.00    +0.000 A 
ATOM     10  C   UNL     1       1.786   0.412   0.000  0.00  0.00    +0.000 A 
ENDBRANCH   1   9
BRANCH   2  11
ATOM     11  C   UNL     1      -0.357  -0.825   0.000  0.00  0.00    +0.000 C 
ATOM     12  N   UNL     1      -1.072  -0.412   0.000  0.00  0.00    +0.000 NA
ATOM     13  O   UNL     1      -0.357  -1.650   0.000  0.00  0.00    +0.000 OA
BRANCH  12  14
ATOM     14  C   UNL     1      -1.786  -0.825   0.000  0.00  0.00    +0.000 C 
ATOM     15  C   UNL     1      -1.786  -1.650   0.000  0.00  0.00    +0.000 C 
BRANCH  14  16
ATOM     16  C   UNL     1      -2.501  -0.412   0.000  0.00  0.00    +0.000 A 
ATOM     17  C   UNL     1      -3.215  -0.825   0.000  0.00  0.00    +0.000 A 
ATOM     18  C   UNL     1      -3.929  -0.412   0.000  0.00  0.00    +0.000 A 
ATOM     19  C   UNL     1      -3.929   0.412   0.000  0.00  0.00    +0.000 A 
ATOM     20  C   UNL     1      -3.215   0.825   0.000  0.00  0.00    +0.000 A 
ATOM     21  C   UNL     1      -2.501   0.412   0.000  0.00  0.00    +0.000 A 
ENDBRANCH  14  16
ENDBRANCH  12  14
ENDBRANCH   2  11
BRANCH   2  22
ATOM     22  C   UNL     1       0.357   0.412   0.000  0.00  0.00    +0.000 C 
ATOM     23  N   UNL     1       0.357   1.238   0.000  0.00  0.00    +0.000 NA
ENDBRANCH   2  22
TORSDOF 5
