REMARK  Name = 
REMARK  2 active torsions:
REMARK  status: ('A' for Active; 'I' for Inactive)
REMARK    1  A    between atoms: C_8  and  O_10
REMARK    2  A    between atoms: O_10  and  C_11
REMARK                            x       y       z     vdW  Elec       q    Type
REMARK                         _______ _______ _______ _____ _____    ______ ____
ROOT
ATOM      1  C   UNL     1       3.804   0.332   0.000  0.00  0.00    +0.000 C 
ATOM      2  C   UNL     1       4.547  -0.026   0.000  0.00  0.00    +0.000 A 
ATOM      3  C   UNL     1       5.152   0.535   0.000  0.00  0.00    +0.000 A 
ATOM      4  C   UNL     1       5.940   0.292   0.000  0.00  0.00    +0.000 A 
ATOM      5  C   UNL     1       6.124  -0.512   0.000  0.00  0.00    +0.000 A 
ATOM      6  C   UNL     1       5.519  -1.073   0.000  0.00  0.00    +0.000 A 
ATOM      7  C   UNL     1       4.731  -0.830   0.000  0.00  0.00    +0.000 A 
ATOM      8  C   UNL     1       4.216  -1.475   0.000  0.00  0.00    +0.000 C 
ATOM      9  C   UNL     1       3.391  -1.475   0.000  0.00  0.00    +0.000 C 
ATOM     10  C   UNL     1       2.877  -0.830   0.000  0.00  0.00    +0.000 A 
ATOM     11  C   UNL     1       3.060  -0.026   0.000  0.00  0.00    +0.000 A 
ATOM     12  C   UNL     1       2.456   0.535   0.000  0.00  0.00    +0.000 A 
ATOM     13  C   UNL     1       1.667   0.292   0.000  0.00  0.00    +0.000 A 
ATOM     14  C   UNL     1       1.484  -0.512   0.000  0.00  0.00    +0.000 A 
ATOM     15  C   UNL     1       2.088  -1.073   0.000  0.00  0.00    +0.000 A 
ENDROOT
BRANCH   1  16
ATOM     16  O   UNL     1       3.804   1.157   0.000  0.00  0.00    +0.000 OA
BRANCH  16  24
ATOM     17  C   UNL     1       4.772   1.422   0.000  0.00  0.00    +0.000 C 
ATOM     18  N   UNL     1       5.324   2.035   0.000  0.00  0.00    +0.000 NA
ATOM     19  C   UNL     1       5.988   1.348   0.000  0.00  0.00    +0.000 C 
ATOM     20  C   UNL     1       6.290   2.116   0.000  0.00  0.00    +0.000 C 
ATOM     21  C   UNL     1       5.877   2.830   0.000  0.00  0.00    +0.000 C 
ATOM     22  C   UNL     1       5.061   2.953   0.000  0.00  0.00    +0.000 C 
ATOM     23  C   UNL     1       4.457   2.392   0.000  0.00  0.00    +0.000 C 
ATOM     24  C   UNL     1       4.518   1.569   0.000  0.00  0.00    +0.000 C 
ATOM     25  C   UNL     1       5.200   1.105   0.000  0.00  0.00    +0.000 C 
ENDBRANCH  16  24
ENDBRANCH   1  16
TORSDOF 2
