REMARK  Name = 
REMARK  3 active torsions:
REMARK  status: ('A' for Active; 'I' for Inactive)
REMARK    1  A    between atoms: O_6  and  C_15
REMARK    2  A    between atoms: N_8  and  C_13
REMARK    3  A    between atoms: C_12  and  C_14
REMARK                            x       y       z     vdW  Elec       q    Type
REMARK                         _______ _______ _______ _____ _____    ______ ____
ROOT
ATOM      1  O   UNL     1      -0.361   0.078   0.000  0.00  0.00    +0.000 OA
ATOM      2  O   UNL     1      -0.361  -2.397   0.000  0.00  0.00    +0.000 OA
ATOM      3  O   UNL     1      -1.790  -1.572   0.000  0.00  0.00    +0.000 OA
ATOM      4  O   UNL     1       1.068  -1.572   0.000  0.00  0.00    +0.000 OA
ATOM      5  C   UNL     1      -0.361  -1.572   0.000  0.00  0.00    +0.000 C 
ATOM      6  C   UNL     1      -1.076  -1.159   0.000  0.00  0.00    +0.000 C 
ATOM      7  C   UNL     1       0.353  -1.159   0.000  0.00  0.00    +0.000 C 
ATOM      8  C   UNL     1      -1.076  -0.334   0.000  0.00  0.00    +0.000 C 
ATOM      9  C   UNL     1       0.353  -0.334   0.000  0.00  0.00    +0.000 C 
ENDROOT
BRANCH   9  11
ATOM     10  O   UNL     1       0.353   1.316   0.000  0.00  0.00    +0.000 OA
ATOM     11  N   UNL     1       1.068   0.078   0.000  0.00  0.00    +0.000 NA
ATOM     12  C   UNL     1       1.068   0.903   0.000  0.00  0.00    +0.000 C 
BRANCH  12  13
ATOM     13  O   UNL     1       1.782   1.316   0.000  0.00  0.00    +0.000 OA
ATOM     14  C   UNL     1       1.782   2.141   0.000  0.00  0.00    +0.000 C 
ENDBRANCH  12  13
ENDBRANCH   9  11
BRANCH   8  16
ATOM     15  O   UNL     1      -1.790   0.903   0.000  0.00  0.00    +0.000 OA
ATOM     16  C   UNL     1      -1.790   0.078   0.000  0.00  0.00    +0.000 C 
ENDBRANCH   8  16
TORSDOF 3
