REMARK  Name = 
REMARK  12 active torsions:
REMARK  status: ('A' for Active; 'I' for Inactive)
REMARK    1  A    between atoms: C_1  and  N_5
REMARK    2  A    between atoms: C_1  and  C_7
REMARK    3  A    between atoms: C_7  and  C_44
REMARK    4  A    between atoms: C_10  and  N_14
REMARK    5  A    between atoms: C_13  and  N_32
REMARK    6  A    between atoms: N_17  and  C_20
REMARK    7  A    between atoms: C_23  and  O_26
REMARK    8  A    between atoms: O_26  and  C_27
REMARK    9  A    between atoms: C_27  and  C_28
REMARK   10  A    between atoms: N_34  and  C_37
REMARK   11  A    between atoms: C_37  and  C_38
REMARK   12  A    between atoms: C_37  and  C_40
REMARK                            x       y       z     vdW  Elec       q    Type
REMARK                         _______ _______ _______ _____ _____    ______ ____
ROOT
ATOM      1  C   UNL     1      -2.429  -2.491   0.000  0.00  0.00    +0.000 A 
ATOM      2  C   UNL     1      -3.130  -2.904   0.000  0.00  0.00    +0.000 A 
ATOM      3  C   UNL     1      -3.130  -3.729   0.000  0.00  0.00    +0.000 A 
ATOM      4  C   UNL     1      -2.429  -4.141   0.000  0.00  0.00    +0.000 A 
ATOM      5  C   UNL     1      -1.727  -3.729   0.000  0.00  0.00    +0.000 A 
ATOM      6  C   UNL     1      -1.727  -2.904   0.000  0.00  0.00    +0.000 A 
ENDROOT
BRANCH   1  10
ATOM      7  N   UNL     1      -2.429  -0.016   0.000  0.00  0.00    +0.000 N 
ATOM      8  C   UNL     1      -3.130  -0.429   0.000  0.00  0.00    +0.000 C 
ATOM      9  C   UNL     1      -3.130  -1.254   0.000  0.00  0.00    +0.000 C 
ATOM     10  N   UNL     1      -2.429  -1.666   0.000  0.00  0.00    +0.000 N 
ATOM     11  C   UNL     1      -1.686  -1.254   0.000  0.00  0.00    +0.000 C 
ATOM     12  C   UNL     1      -1.686  -0.429   0.000  0.00  0.00    +0.000 C 
BRANCH   7  15
ATOM     13  C   UNL     1      -3.130   2.046   0.000  0.00  0.00    +0.000 A 
ATOM     14  C   UNL     1      -3.130   1.221   0.000  0.00  0.00    +0.000 A 
ATOM     15  C   UNL     1      -2.429   0.809   0.000  0.00  0.00    +0.000 A 
ATOM     16  C   UNL     1      -1.686   1.221   0.000  0.00  0.00    +0.000 A 
ATOM     17  C   UNL     1      -1.686   2.046   0.000  0.00  0.00    +0.000 A 
ATOM     18  C   UNL     1      -2.429   2.458   0.000  0.00  0.00    +0.000 A 
BRANCH  18  19
ATOM     19  N   UNL     1      -2.439   3.283   0.000  0.00  0.00    +0.000 N 
ATOM     20  C   UNL     1      -1.771   3.781   0.000  0.00  0.00    +0.000 A 
ATOM     21  N   UNL     1      -2.038   4.571   0.000  0.00  0.00    +0.000 N 
ATOM     22  N   UNL     1      -2.871   4.560   0.000  0.00  0.00    +0.000 NA
ATOM     23  C   UNL     1      -3.119   3.765   0.000  0.00  0.00    +0.000 A 
ATOM     24  O   UNL     1      -0.979   3.535   0.000  0.00  0.00    +0.000 OA
BRANCH  21  25
ATOM     25  C   UNL     1      -1.635   5.290   0.000  0.00  0.00    +0.000 C 
BRANCH  25  26
ATOM     26  C   UNL     1      -0.810   5.288   0.000  0.00  0.00    +0.000 C 
ATOM     27  O   UNL     1      -0.395   4.566   0.000  0.00  0.00    +0.000 OA
ATOM     28  C   UNL     1      -0.392   6.009   0.000  0.00  0.00    +0.000 C 
ENDBRANCH  25  26
BRANCH  25  29
ATOM     29  C   UNL     1      -2.042   5.998   0.000  0.00  0.00    +0.000 C 
ATOM     30  C   UNL     1      -2.873   6.000   0.000  0.00  0.00    +0.000 C 
ENDBRANCH  25  29
ENDBRANCH  21  25
ENDBRANCH  18  19
ENDBRANCH   7  15
ENDBRANCH   1  10
BRANCH   4  31
ATOM     31  O   UNL     1      -2.424  -4.969   0.000  0.00  0.00    +0.000 OA
BRANCH  31  32
ATOM     32  C   UNL     1      -1.675  -5.285   0.000  0.00  0.00    +0.000 C 
BRANCH  32  34
ATOM     33  C   UNL     1       0.259  -4.358   0.000  0.00  0.00    +0.000 C 
ATOM     34  C   UNL     1      -1.013  -4.792   0.000  0.00  0.00    +0.000 C 
ATOM     35  C   UNL     1      -0.222  -5.025   0.000  0.00  0.00    +0.000 C 
ATOM     36  O   UNL     1      -0.234  -3.697   0.000  0.00  0.00    +0.000 OA
ATOM     37  C   UNL     1      -1.011  -3.967   0.000  0.00  0.00    +0.000 C 
BRANCH  33  38
ATOM     38  C   UNL     1       0.977  -4.766   0.000  0.00  0.00    +0.000 A 
ATOM     39  C   UNL     1       0.982  -5.591   0.000  0.00  0.00    +0.000 A 
ATOM     40  C   UNL     1       1.700  -5.999   0.000  0.00  0.00    +0.000 A 
ATOM     41  C   UNL     1       2.412  -5.581   0.000  0.00  0.00    +0.000 A 
ATOM     42  C   UNL     1       2.406  -4.756   0.000  0.00  0.00    +0.000 A 
ATOM     43  C   UNL     1       1.688  -4.348   0.000  0.00  0.00    +0.000 A 
ATOM     44  F   UNL     1       3.130  -5.989   0.000  0.00  0.00    +0.000 F 
ATOM     45  F   UNL     1       0.270  -6.009   0.000  0.00  0.00    +0.000 F 
ENDBRANCH  33  38
BRANCH  33  46
ATOM     46  C   UNL     1       0.981  -3.958   0.000  0.00  0.00    +0.000 C 
BRANCH  46  50
ATOM     47  N   UNL     1       1.434  -2.036   0.000  0.00  0.00    +0.000 NA
ATOM     48  C   UNL     1       0.610  -2.015   0.000  0.00  0.00    +0.000 A 
ATOM     49  N   UNL     1       0.343  -2.793   0.000  0.00  0.00    +0.000 NA
ATOM     50  N   UNL     1       0.991  -3.304   0.000  0.00  0.00    +0.000 N 
ATOM     51  C   UNL     1       1.663  -2.825   0.000  0.00  0.00    +0.000 A 
ENDBRANCH  46  50
ENDBRANCH  33  46
ENDBRANCH  32  34
ENDBRANCH  31  32
ENDBRANCH   4  31
TORSDOF 12
