REMARK  Name = 
REMARK  4 active torsions:
REMARK  status: ('A' for Active; 'I' for Inactive)
REMARK    1  A    between atoms: C_2  and  C_4
REMARK    2  A    between atoms: C_7  and  N_10
REMARK    3  A    between atoms: N_10  and  C_11
REMARK    4  A    between atoms: C_11  and  C_12
REMARK                            x       y       z     vdW  Elec       q    Type
REMARK                         _______ _______ _______ _____ _____    ______ ____
ROOT
ATOM      1  C   UNL     1       0.714  -0.624   0.000  0.00  0.00    +0.000 A 
ATOM      2  C   UNL     1       0.714  -1.450   0.000  0.00  0.00    +0.000 A 
ATOM      3  N   UNL     1       1.437  -1.863   0.000  0.00  0.00    +0.000 NA
ATOM      4  C   UNL     1       2.151  -1.450   0.000  0.00  0.00    +0.000 A 
ATOM      5  C   UNL     1       2.151  -0.624   0.000  0.00  0.00    +0.000 A 
ATOM      6  N   UNL     1       1.437  -0.211   0.000  0.00  0.00    +0.000 NA
ATOM      7  C   UNL     1       2.865  -0.211   0.000  0.00  0.00    +0.000 A 
ATOM      8  O   UNL     1       2.865   0.624   0.000  0.00  0.00    +0.000 OA
ATOM      9  N   UNL     1       3.588  -0.624   0.000  0.00  0.00    +0.000 NA
ATOM     10  C   UNL     1       3.588  -1.450   0.000  0.00  0.00    +0.000 A 
ATOM     11  N   UNL     1       2.865  -1.863   0.000  0.00  0.00    +0.000 NA
ATOM     12  N   UNL     1       4.302  -1.863   0.000  0.00  0.00    +0.000 NA
ENDROOT
BRANCH   1  13
ATOM     13  C   UNL     1       0.000  -0.211   0.000  0.00  0.00    +0.000 C 
BRANCH  13  14
ATOM     14  N   UNL     1      -0.714  -0.624   0.000  0.00  0.00    +0.000 NA
BRANCH  14  18
ATOM     15  C   UNL     1      -2.865   0.624   0.000  0.00  0.00    +0.000 A 
ATOM     16  C   UNL     1      -2.865  -0.211   0.000  0.00  0.00    +0.000 A 
ATOM     17  C   UNL     1      -2.151  -0.624   0.000  0.00  0.00    +0.000 A 
ATOM     18  C   UNL     1      -1.437  -0.211   0.000  0.00  0.00    +0.000 A 
ATOM     19  C   UNL     1      -1.437   0.624   0.000  0.00  0.00    +0.000 A 
ATOM     20  C   UNL     1      -2.151   1.037   0.000  0.00  0.00    +0.000 A 
BRANCH  15  22
ATOM     21  O   UNL     1      -3.588   1.863   0.000  0.00  0.00    +0.000 OA
ATOM     22  C   UNL     1      -3.588   1.037   0.000  0.00  0.00    +0.000 C 
ATOM     23  O   UNL     1      -4.302   0.624   0.000  0.00  0.00    +0.000 OA
ENDBRANCH  15  22
ENDBRANCH  14  18
ENDBRANCH  13  14
ENDBRANCH   1  13
TORSDOF 4
