REMARK  Name = 
REMARK  19 active torsions:
REMARK  status: ('A' for Active; 'I' for Inactive)
REMARK    1  A    between atoms: CD_2  and  CG_3
REMARK    2  A    between atoms: CD_2  and  NE_35
REMARK    3  A    between atoms: CG_3  and  CB_4
REMARK    4  A    between atoms: CB_4  and  CA_5
REMARK    5  A    between atoms: CA_5  and  C_6
REMARK    6  A    between atoms: CA_5  and  N_28
REMARK    7  A    between atoms: C_7  and  CA_8
REMARK    8  A    between atoms: CA_8  and  CB_9
REMARK    9  A    between atoms: CA_8  and  N_29
REMARK   10  A    between atoms: C_12  and  CA_13
REMARK   11  A    between atoms: CA_13  and  CB_14
REMARK   12  A    between atoms: CA_13  and  N_33
REMARK   13  A    between atoms: CB_14  and  CG_15
REMARK   14  A    between atoms: CG_15  and  CD_16
REMARK   15  A    between atoms: CD_16  and  NE_30
REMARK   16  A    between atoms: CA_19  and  C_20
REMARK   17  A    between atoms: CA_19  and  CB_21
REMARK   18  A    between atoms: CA_19  and  N_34
REMARK   19  A    between atoms: CB_21  and  CG_22
REMARK                            x       y       z     vdW  Elec       q    Type
REMARK                         _______ _______ _______ _____ _____    ______ ____
ROOT
ATOM      1  CA  PHE A   1      -1.429  -1.031   0.000  0.00  0.00    +0.000 C 
ENDROOT
BRANCH   1   3
ATOM      2  C   UNK A   0      -2.858  -1.031   0.000  0.00  0.00    +0.000 C 
ATOM      3  N   PHE A   1      -2.143  -1.444   0.000  0.00  0.00    +0.000 NA
ATOM      4  N   PHE A   1      -3.572  -1.444   0.000  0.00  0.00    +0.000 NA
ATOM      5  O   UNK A   0      -2.858  -0.206   0.000  0.00  0.00    +0.000 OA
BRANCH   4   6
ATOM      6  CA  PHE A   1      -4.287  -1.031   0.000  0.00  0.00    +0.000 C 
BRANCH   6   7
ATOM      7  C   PHE A   1      -4.287  -0.206   0.000  0.00  0.00    +0.000 C 
ATOM      8  O   PHE A   1      -3.572   0.206   0.000  0.00  0.00    +0.000 OA
ATOM      9  OXT PHE A   1      -5.001   0.206   0.000  0.00  0.00    +0.000 OA
ENDBRANCH   6   7
BRANCH   6  10
ATOM     10  CB  PHE A   1      -5.001  -1.444   0.000  0.00  0.00    +0.000 C 
BRANCH  10  11
ATOM     11  CG  PHE A   1      -5.716  -1.031   0.000  0.00  0.00    +0.000 A 
ATOM     12  CD1 PHE A   1      -6.430  -1.444   0.000  0.00  0.00    +0.000 A 
ATOM     13  CE1 PHE A   1      -7.145  -1.031   0.000  0.00  0.00    +0.000 A 
ATOM     14  CZ  PHE A   1      -7.145  -0.206   0.000  0.00  0.00    +0.000 A 
ATOM     15  CE2 PHE A   1      -6.430   0.206   0.000  0.00  0.00    +0.000 A 
ATOM     16  CD2 PHE A   1      -5.716  -0.206   0.000  0.00  0.00    +0.000 A 
ENDBRANCH  10  11
ENDBRANCH   6  10
ENDBRANCH   4   6
ENDBRANCH   1   3
BRANCH   1  17
ATOM     17  C   PHE A   1      -0.714  -1.444   0.000  0.00  0.00    +0.000 C 
ATOM     18  N   PHE A   1       0.000  -1.031   0.000  0.00  0.00    +0.000 NA
ATOM     19  O   PHE A   1      -0.714  -2.269   0.000  0.00  0.00    +0.000 OA
BRANCH  18  20
ATOM     20  CA  PHE A   1       0.714  -1.444   0.000  0.00  0.00    +0.000 C 
BRANCH  20  21
ATOM     21  CB  PHE A   1       0.714  -2.269   0.000  0.00  0.00    +0.000 C 
ATOM     22  CG1 PHE A   1       0.000  -2.681   0.000  0.00  0.00    +0.000 C 
ATOM     23  CG2 PHE A   1       1.429  -2.681   0.000  0.00  0.00    +0.000 C 
ENDBRANCH  20  21
BRANCH  20  24
ATOM     24  C   PHE A   1       1.429  -1.031   0.000  0.00  0.00    +0.000 C 
ATOM     25  N   PHE A   1       2.143  -1.444   0.000  0.00  0.00    +0.000 NA
ATOM     26  O   PHE A   1       1.429  -0.206   0.000  0.00  0.00    +0.000 OA
BRANCH  25  27
ATOM     27  CA  PHE A   1       2.858  -1.031   0.000  0.00  0.00    +0.000 C 
BRANCH  27  28
ATOM     28  C   PHE A   1       2.858  -0.206   0.000  0.00  0.00    +0.000 C 
ATOM     29  O   PHE A   1       2.143   0.206   0.000  0.00  0.00    +0.000 OA
ENDBRANCH  27  28
BRANCH  27  30
ATOM     30  CB  PHE A   1       3.572  -1.444   0.000  0.00  0.00    +0.000 C 
BRANCH  30  31
ATOM     31  CG  PHE A   1       4.287  -1.031   0.000  0.00  0.00    +0.000 C 
BRANCH  31  32
ATOM     32  CD  PHE A   1       5.001  -1.444   0.000  0.00  0.00    +0.000 C 
BRANCH  32  34
ATOM     33  CZ  PHE A   1       6.430  -1.444   0.000  0.00  0.00    +0.000 C 
ATOM     34  NE  PHE A   1       5.716  -1.031   0.000  0.00  0.00    +0.000 NA
ATOM     35  NH1 PHE A   1       7.145  -1.031   0.000  0.00  0.00    +0.000 NA
ATOM     36  NH2 PHE A   1       6.430  -2.269   0.000  0.00  0.00    +0.000 NA
ENDBRANCH  32  34
ENDBRANCH  31  32
ENDBRANCH  30  31
ENDBRANCH  27  30
ENDBRANCH  25  27
ENDBRANCH  20  24
ENDBRANCH  18  20
ENDBRANCH   1  17
BRANCH   1  37
ATOM     37  CB  PHE A   1      -1.429  -0.206   0.000  0.00  0.00    +0.000 C 
BRANCH  37  38
ATOM     38  CG  PHE A   1      -0.714   0.206   0.000  0.00  0.00    +0.000 C 
BRANCH  38  39
ATOM     39  CD  PHE A   1      -0.714   1.031   0.000  0.00  0.00    +0.000 C 
BRANCH  39  41
ATOM     40  CZ  PHE A   1       0.000   2.269   0.000  0.00  0.00    +0.000 C 
ATOM     41  NE  PHE A   1       0.000   1.444   0.000  0.00  0.00    +0.000 NA
ATOM     42  NH1 PHE A   1      -0.714   2.681   0.000  0.00  0.00    +0.000 NA
ATOM     43  NH2 PHE A   1       0.714   2.681   0.000  0.00  0.00    +0.000 NA
ENDBRANCH  39  41
ENDBRANCH  38  39
ENDBRANCH  37  38
ENDBRANCH   1  37
TORSDOF 19
