REMARK  Name = 
REMARK  2 active torsions:
REMARK  status: ('A' for Active; 'I' for Inactive)
REMARK    1  A    between atoms: C_1  and  C_7
REMARK    2  A    between atoms: C_3  and  N_8
REMARK                            x       y       z     vdW  Elec       q    Type
REMARK                         _______ _______ _______ _____ _____    ______ ____
ROOT
ATOM      1  C   UNL     1      -0.370   0.798   0.000  0.00  0.00    +0.000 A 
ATOM      2  C   UNL     1       0.340   0.393   0.000  0.00  0.00    +0.000 A 
ATOM      3  C   UNL     1       0.325  -0.431   0.000  0.00  0.00    +0.000 A 
ATOM      4  C   UNL     1      -1.083   0.373   0.000  0.00  0.00    +0.000 A 
ATOM      5  C   UNL     1      -0.370  -0.875   0.000  0.00  0.00    +0.000 A 
ATOM      6  C   UNL     1      -1.083  -0.454   0.000  0.00  0.00    +0.000 A 
ATOM      7  I   UNL     1       1.071   0.798   0.000  0.00  0.00    +0.000 I 
ATOM      8  I   UNL     1      -1.837   0.798   0.000  0.00  0.00    +0.000 I 
ATOM      9  I   UNL     1      -0.370  -1.700   0.000  0.00  0.00    +0.000 I 
ENDROOT
BRANCH   3  10
ATOM     10  N   UNL     1       1.109  -0.819   0.000  0.00  0.00    +0.000 NA
ATOM     11  C   UNL     1       1.109  -1.598   0.000  0.00  0.00    +0.000 C 
ATOM     12  O   UNL     1       0.393  -2.028   0.000  0.00  0.00    +0.000 OA
ATOM     13  C   UNL     1       1.837  -1.972   0.000  0.00  0.00    +0.000 C 
ENDBRANCH   3  10
BRANCH   1  14
ATOM     14  C   UNL     1      -0.370   1.623   0.000  0.00  0.00    +0.000 C 
ATOM     15  O   UNL     1      -1.083   2.028   0.000  0.00  0.00    +0.000 OA
ATOM     16  O   UNL     1       0.340   2.028   0.000  0.00  0.00    +0.000 OA
ENDBRANCH   1  14
TORSDOF 2
