REMARK  Name = 
REMARK  7 active torsions:
REMARK  status: ('A' for Active; 'I' for Inactive)
REMARK    1  A    between atoms: O_2  and  C_3
REMARK    2  A    between atoms: C_3  and  C_4
REMARK    3  A    between atoms: C_10  and  C_24
REMARK    4  A    between atoms: C_11  and  C_12
REMARK    5  A    between atoms: C_12  and  N_13
REMARK    6  A    between atoms: C_15  and  C_16
REMARK    7  A    between atoms: C_16  and  C_17
REMARK                            x       y       z     vdW  Elec       q    Type
REMARK                         _______ _______ _______ _____ _____    ______ ____
ROOT
ATOM      1  C   UNL     1      -0.485  -0.667   0.000  0.00  0.00    +0.000 A 
ATOM      2  N   UNL     1       0.000  -1.335   0.000  0.00  0.00    +0.000 NA
ATOM      3  N   UNL     1       0.785  -1.080   0.000  0.00  0.00    +0.000 N 
ATOM      4  C   UNL     1       0.785  -0.255   0.000  0.00  0.00    +0.000 A 
ATOM      5  S   UNL     1       0.000   0.000   0.000  0.00  0.00    +0.000 S 
ATOM      6  N   UNL     1       1.569   0.000   0.000  0.00  0.00    +0.000 NA
ATOM      7  C   UNL     1       2.054  -0.667   0.000  0.00  0.00    +0.000 A 
ATOM      8  C   UNL     1       1.569  -1.335   0.000  0.00  0.00    +0.000 A 
ENDROOT
BRANCH   7   9
ATOM      9  C   UNL     1       2.879  -0.667   0.000  0.00  0.00    +0.000 C 
ATOM     10  F   UNL     1       3.704  -0.667   0.000  0.00  0.00    +0.000 F 
ATOM     11  F   UNL     1       2.879  -1.492   0.000  0.00  0.00    +0.000 F 
ATOM     12  F   UNL     1       2.879   0.158   0.000  0.00  0.00    +0.000 F 
ENDBRANCH   7   9
BRANCH   8  13
ATOM     13  C   UNL     1       1.824  -2.119   0.000  0.00  0.00    +0.000 C 
BRANCH  13  14
ATOM     14  N   UNL     1       1.272  -2.733   0.000  0.00  0.00    +0.000 N 
ATOM     15  C   UNL     1       1.444  -3.540   0.000  0.00  0.00    +0.000 C 
ATOM     16  C   UNL     1       0.729  -3.952   0.000  0.00  0.00    +0.000 C 
ATOM     17  C   UNL     1       0.116  -3.400   0.000  0.00  0.00    +0.000 C 
ATOM     18  C   UNL     1       0.452  -2.646   0.000  0.00  0.00    +0.000 C 
ATOM     19  O   UNL     1       0.039  -1.932   0.000  0.00  0.00    +0.000 OA
BRANCH  16  20
ATOM     20  C   UNL     1       0.643  -4.772   0.000  0.00  0.00    +0.000 C 
BRANCH  20  21
ATOM     21  C   UNL     1       1.310  -5.258   0.000  0.00  0.00    +0.000 C 
ATOM     22  F   UNL     1       1.978  -5.742   0.000  0.00  0.00    +0.000 F 
ATOM     23  F   UNL     1       0.826  -5.925   0.000  0.00  0.00    +0.000 F 
ATOM     24 CL   UNL     1       1.795  -4.590   0.000  0.00  0.00    +0.000 Cl
ENDBRANCH  20  21
ENDBRANCH  16  20
ENDBRANCH  13  14
ENDBRANCH   8  13
BRANCH   1  25
ATOM     25  C   UNL     1      -1.310  -0.667   0.000  0.00  0.00    +0.000 C 
BRANCH  25  27
ATOM     26  C   UNL     1      -2.547   0.047   0.000  0.00  0.00    +0.000 C 
ATOM     27  O   UNL     1      -1.722   0.047   0.000  0.00  0.00    +0.000 OA
ENDBRANCH  25  27
ENDBRANCH   1  25
TORSDOF 7
