REMARK  Name = 
REMARK  14 active torsions:
REMARK  status: ('A' for Active; 'I' for Inactive)
REMARK    1  A    between atoms: C_2  and  C_51
REMARK    2  A    between atoms: C_2  and  C_55
REMARK    3  A    between atoms: C_7  and  C_17
REMARK    4  A    between atoms: C_10  and  N_14
REMARK    5  A    between atoms: C_19  and  N_23
REMARK    6  A    between atoms: N_25  and  C_27
REMARK    7  A    between atoms: C_29  and  C_33
REMARK    8  A    between atoms: C_31  and  O_41
REMARK    9  A    between atoms: C_33  and  O_34
REMARK   10  A    between atoms: O_34  and  S_35
REMARK   11  A    between atoms: O_41  and  C_42
REMARK   12  A    between atoms: C_42  and  C_43
REMARK   13  A    between atoms: C_51  and  C_52
REMARK   14  A    between atoms: C_52  and  C_53
REMARK                            x       y       z     vdW  Elec       q    Type
REMARK                         _______ _______ _______ _____ _____    ______ ____
ROOT
ATOM      1  C   UNL     1      -2.477  -1.217   0.000  0.00  0.00    +0.000 A 
ATOM      2  C   UNL     1      -1.709  -1.518   0.000  0.00  0.00    +0.000 A 
ATOM      3  C   UNL     1      -1.064  -1.004   0.000  0.00  0.00    +0.000 A 
ATOM      4  C   UNL     1      -1.187  -0.188   0.000  0.00  0.00    +0.000 A 
ATOM      5  C   UNL     1      -1.955   0.114   0.000  0.00  0.00    +0.000 A 
ATOM      6  C   UNL     1      -2.600  -0.401   0.000  0.00  0.00    +0.000 A 
ENDROOT
BRANCH   1  13
ATOM      7  C   UNL     1      -3.865  -1.373   0.000  0.00  0.00    +0.000 C 
ATOM      8  C   UNL     1      -4.609  -1.731   0.000  0.00  0.00    +0.000 C 
ATOM      9  C   UNL     1      -4.792  -2.535   0.000  0.00  0.00    +0.000 C 
ATOM     10  S   UNL     1      -4.278  -3.180   0.000  0.00  0.00    +0.000 S 
ATOM     11  C   UNL     1      -3.453  -3.180   0.000  0.00  0.00    +0.000 A 
ATOM     12  C   UNL     1      -2.938  -2.535   0.000  0.00  0.00    +0.000 A 
ATOM     13  C   UNL     1      -3.122  -1.731   0.000  0.00  0.00    +0.000 C 
ATOM     14  C   UNL     1      -3.151  -3.948   0.000  0.00  0.00    +0.000 A 
ATOM     15  C   UNL     1      -2.336  -4.071   0.000  0.00  0.00    +0.000 A 
ATOM     16  C   UNL     1      -1.821  -3.426   0.000  0.00  0.00    +0.000 A 
ATOM     17  C   UNL     1      -2.123  -2.658   0.000  0.00  0.00    +0.000 A 
ATOM     18  O   UNL     1      -4.992  -3.593   0.000  0.00  0.00    +0.000 OA
ATOM     19  O   UNL     1      -4.278  -4.005   0.000  0.00  0.00    +0.000 OA
ATOM     20  O   UNL     1      -3.865  -0.548   0.000  0.00  0.00    +0.000 OA
BRANCH  16  21
ATOM     21  N   UNL     1      -1.005  -3.549   0.000  0.00  0.00    +0.000 N 
ATOM     22  C   UNL     1      -0.491  -2.904   0.000  0.00  0.00    +0.000 C 
ATOM     23  C   UNL     1      -0.704  -4.317   0.000  0.00  0.00    +0.000 C 
ENDBRANCH  16  21
BRANCH   8  24
ATOM     24  C   UNL     1      -5.428  -1.639   0.000  0.00  0.00    +0.000 C 
ATOM     25  C   UNL     1      -5.918  -2.302   0.000  0.00  0.00    +0.000 C 
ENDBRANCH   8  24
BRANCH   8  26
ATOM     26  C   UNL     1      -4.609  -0.906   0.000  0.00  0.00    +0.000 C 
BRANCH  26  27
ATOM     27  C   UNL     1      -5.323  -0.493   0.000  0.00  0.00    +0.000 C 
BRANCH  27  28
ATOM     28  C   UNL     1      -5.323   0.331   0.000  0.00  0.00    +0.000 C 
ATOM     29  C   UNL     1      -6.038   0.744   0.000  0.00  0.00    +0.000 C 
ENDBRANCH  27  28
ENDBRANCH  26  27
ENDBRANCH   8  26
ENDBRANCH   1  13
BRANCH   3  30
ATOM     30  N   UNL     1      -0.296  -1.305   0.000  0.00  0.00    +0.000 NA
ATOM     31  C   UNL     1       0.349  -0.791   0.000  0.00  0.00    +0.000 C 
ATOM     32  N   UNL     1       1.117  -1.092   0.000  0.00  0.00    +0.000 NA
ATOM     33  O   UNL     1       0.226   0.025   0.000  0.00  0.00    +0.000 OA
BRANCH  32  34
ATOM     34  C   UNL     1       1.762  -0.578   0.000  0.00  0.00    +0.000 C 
ATOM     35  O   UNL     1       2.530  -0.879   0.000  0.00  0.00    +0.000 OA
ATOM     36  C   UNL     1       3.175  -0.365   0.000  0.00  0.00    +0.000 C 
ATOM     37  C   UNL     1       3.052   0.451   0.000  0.00  0.00    +0.000 C 
ATOM     38  C   UNL     1       2.284   0.752   0.000  0.00  0.00    +0.000 C 
ATOM     39  C   UNL     1       1.639   0.238   0.000  0.00  0.00    +0.000 C 
ATOM     40  O   UNL     1       3.697   0.965   0.000  0.00  0.00    +0.000 OA
ATOM     41  O   UNL     1       0.871   0.539   0.000  0.00  0.00    +0.000 OA
BRANCH  38  42
ATOM     42  O   UNL     1       2.161   1.568   0.000  0.00  0.00    +0.000 OA
BRANCH  42  43
ATOM     43  C   UNL     1       1.393   1.870   0.000  0.00  0.00    +0.000 C 
BRANCH  43  44
ATOM     44  C   UNL     1       1.270   2.685   0.000  0.00  0.00    +0.000 A 
ATOM     45  C   UNL     1       1.915   3.200   0.000  0.00  0.00    +0.000 A 
ATOM     46  C   UNL     1       1.792   4.016   0.000  0.00  0.00    +0.000 A 
ATOM     47  C   UNL     1       1.024   4.317   0.000  0.00  0.00    +0.000 A 
ATOM     48  C   UNL     1       0.379   3.803   0.000  0.00  0.00    +0.000 A 
ATOM     49  C   UNL     1       0.502   2.987   0.000  0.00  0.00    +0.000 A 
ENDBRANCH  43  44
ENDBRANCH  42  43
ENDBRANCH  38  42
BRANCH  36  50
ATOM     50  C   UNL     1       3.943  -0.666   0.000  0.00  0.00    +0.000 C 
BRANCH  50  51
ATOM     51  O   UNL     1       4.526  -0.083   0.000  0.00  0.00    +0.000 OA
BRANCH  51  52
ATOM     52  S   UNL     1       5.323  -0.296   0.000  0.00  0.00    +0.000 S 
ATOM     53  O   UNL     1       5.907   0.287   0.000  0.00  0.00    +0.000 OA
ATOM     54  O   UNL     1       4.910  -1.011   0.000  0.00  0.00    +0.000 OA
ATOM     55  O   UNL     1       6.038  -0.709   0.000  0.00  0.00    +0.000 OA
ENDBRANCH  51  52
ENDBRANCH  50  51
ENDBRANCH  36  50
ENDBRANCH  32  34
ENDBRANCH   3  30
TORSDOF 14
