REMARK  Name = 
REMARK  11 active torsions:
REMARK  status: ('A' for Active; 'I' for Inactive)
REMARK    1  A    between atoms: P_1  and  O_4
REMARK    2  A    between atoms: P_1  and  O_23
REMARK    3  A    between atoms: O_4  and  C_5
REMARK    4  A    between atoms: C_5  and  C_6
REMARK    5  A    between atoms: C_12  and  N_13
REMARK    6  A    between atoms: O_23  and  P_24
REMARK    7  A    between atoms: P_24  and  O_27
REMARK    8  A    between atoms: O_27  and  C_28
REMARK    9  A    between atoms: C_28  and  C_29
REMARK   10  A    between atoms: C_35  and  N_36
REMARK   11  A    between atoms: C_38  and  C_39
REMARK                            x       y       z     vdW  Elec       q    Type
REMARK                         _______ _______ _______ _____ _____    ______ ____
ROOT
ATOM      1  P   UNL     1       1.553  -1.933   0.000  0.00  0.00    +0.000 P 
ATOM      2  O   UNL     1       1.068  -1.265   0.000  0.00  0.00    +0.000 OA
ATOM      3  O   UNL     1       2.038  -2.600   0.000  0.00  0.00    +0.000 OA
ENDROOT
BRANCH   1   4
ATOM      4  O   UNL     1       0.886  -2.417   0.000  0.00  0.00    +0.000 OA
BRANCH   4   5
ATOM      5  P   UNL     1       0.132  -2.082   0.000  0.00  0.00    +0.000 P 
ATOM      6  O   UNL     1       0.468  -1.328   0.000  0.00  0.00    +0.000 OA
ATOM      7  O   UNL     1      -0.203  -2.836   0.000  0.00  0.00    +0.000 OA
BRANCH   5   8
ATOM      8  O   UNL     1      -0.621  -1.746   0.000  0.00  0.00    +0.000 OA
BRANCH   8   9
ATOM      9  C   UNL     1      -1.289  -2.231   0.000  0.00  0.00    +0.000 C 
BRANCH   9  10
ATOM     10  C   UNL     1      -2.042  -1.896   0.000  0.00  0.00    +0.000 C 
ATOM     11  O   UNL     1      -2.757  -2.308   0.000  0.00  0.00    +0.000 OA
ATOM     12  C   UNL     1      -2.214  -1.089   0.000  0.00  0.00    +0.000 C 
ATOM     13  O   UNL     1      -1.662  -0.476   0.000  0.00  0.00    +0.000 OA
ATOM     14  C   UNL     1      -3.034  -1.002   0.000  0.00  0.00    +0.000 C 
ATOM     15  O   UNL     1      -3.447  -0.288   0.000  0.00  0.00    +0.000 OA
ATOM     16  C   UNL     1      -3.370  -1.756   0.000  0.00  0.00    +0.000 C 
BRANCH  16  17
ATOM     17  N   UNL     1      -4.177  -1.928   0.000  0.00  0.00    +0.000 N 
ATOM     18  C   UNL     1      -4.729  -1.315   0.000  0.00  0.00    +0.000 A 
ATOM     19  C   UNL     1      -5.536  -1.486   0.000  0.00  0.00    +0.000 A 
ATOM     20  C   UNL     1      -5.791  -2.271   0.000  0.00  0.00    +0.000 A 
ATOM     21  C   UNL     1      -5.239  -2.884   0.000  0.00  0.00    +0.000 A 
ATOM     22  C   UNL     1      -4.432  -2.712   0.000  0.00  0.00    +0.000 A 
BRANCH  19  23
ATOM     23  C   UNL     1      -6.088  -0.873   0.000  0.00  0.00    +0.000 C 
ATOM     24  O   UNL     1      -6.895  -1.045   0.000  0.00  0.00    +0.000 OA
ATOM     25  N   UNL     1      -5.833  -0.088   0.000  0.00  0.00    +0.000 NA
ENDBRANCH  19  23
ENDBRANCH  16  17
ENDBRANCH   9  10
ENDBRANCH   8   9
ENDBRANCH   5   8
ENDBRANCH   4   5
ENDBRANCH   1   4
BRANCH   1  26
ATOM     26  O   UNL     1       2.221  -1.448   0.000  0.00  0.00    +0.000 OA
BRANCH  26  27
ATOM     27  C   UNL     1       2.974  -1.783   0.000  0.00  0.00    +0.000 C 
BRANCH  27  28
ATOM     28  C   UNL     1       3.642  -1.298   0.000  0.00  0.00    +0.000 C 
ATOM     29  O   UNL     1       3.642  -0.473   0.000  0.00  0.00    +0.000 OA
ATOM     30  C   UNL     1       4.426  -1.553   0.000  0.00  0.00    +0.000 C 
ATOM     31  O   UNL     1       4.681  -2.338   0.000  0.00  0.00    +0.000 OA
ATOM     32  C   UNL     1       4.912  -0.886   0.000  0.00  0.00    +0.000 C 
ATOM     33  O   UNL     1       5.737  -0.886   0.000  0.00  0.00    +0.000 OA
ATOM     34  C   UNL     1       4.426  -0.218   0.000  0.00  0.00    +0.000 C 
BRANCH  34  35
ATOM     35  N   UNL     1       4.681   0.566   0.000  0.00  0.00    +0.000 N 
ATOM     36  C   UNL     1       4.197   1.234   0.000  0.00  0.00    +0.000 A 
ATOM     37  N   UNL     1       4.681   1.901   0.000  0.00  0.00    +0.000 NA
ATOM     38  C   UNL     1       5.466   1.646   0.000  0.00  0.00    +0.000 A 
ATOM     39  C   UNL     1       6.181   2.059   0.000  0.00  0.00    +0.000 A 
ATOM     40  N   UNL     1       6.181   2.884   0.000  0.00  0.00    +0.000 NA
ATOM     41  N   UNL     1       6.895   1.646   0.000  0.00  0.00    +0.000 NA
ATOM     42  C   UNL     1       6.895   0.821   0.000  0.00  0.00    +0.000 A 
ATOM     43  N   UNL     1       6.181   0.409   0.000  0.00  0.00    +0.000 NA
ATOM     44  C   UNL     1       5.466   0.821   0.000  0.00  0.00    +0.000 A 
ENDBRANCH  34  35
ENDBRANCH  27  28
ENDBRANCH  26  27
ENDBRANCH   1  26
TORSDOF 11
