REMARK  Name = 
REMARK  4 active torsions:
REMARK  status: ('A' for Active; 'I' for Inactive)
REMARK    1  A    between atoms: C_4  and  N_7
REMARK    2  A    between atoms: C_8  and  C_10
REMARK    3  A    between atoms: C_11  and  C_12
REMARK    4  A    between atoms: CA_22  and  C_23
REMARK                            x       y       z     vdW  Elec       q    Type
REMARK                         _______ _______ _______ _____ _____    ______ ____
ROOT
ATOM      1  C   UNL     1      -0.143  -1.365   0.000  0.00  0.00    +0.000 A 
ATOM      2  C   UNL     1       0.641  -1.110   0.000  0.00  0.00    +0.000 A 
ATOM      3  C   UNL     1       0.641  -0.285   0.000  0.00  0.00    +0.000 A 
ATOM      4  C   UNL     1       1.356   0.127   0.000  0.00  0.00    +0.000 A 
ATOM      5  C   UNL     1       2.070  -0.285   0.000  0.00  0.00    +0.000 A 
ATOM      6  C   UNL     1       2.070  -1.110   0.000  0.00  0.00    +0.000 A 
ATOM      7  C   UNL     1       1.356  -1.523   0.000  0.00  0.00    +0.000 A 
ATOM      8 CL   UNL     1       1.356  -2.348   0.000  0.00  0.00    +0.000 Cl
ATOM      9 CL   UNL     1       2.784   0.127   0.000  0.00  0.00    +0.000 Cl
ATOM     10  N   UNL     1      -0.143  -0.030   0.000  0.00  0.00    +0.000 NA
ATOM     11  CA  UNL     1      -0.628  -0.698   0.000  0.00  0.00    +0.000 A 
ENDROOT
BRANCH  11  12
ATOM     12  C   UNL     1      -1.453  -0.698   0.000  0.00  0.00    +0.000 C 
ATOM     13  O   UNL     1      -1.866  -1.412   0.000  0.00  0.00    +0.000 OA
ATOM     14  OXT UNL     1      -1.866   0.017   0.000  0.00  0.00    +0.000 OA
ENDBRANCH  11  12
BRANCH   1  16
ATOM     15  C   UNL     1      -1.205  -2.321   0.000  0.00  0.00    +0.000 C 
ATOM     16  C   UNL     1      -0.398  -2.150   0.000  0.00  0.00    +0.000 C 
BRANCH  15  18
ATOM     17  N   UNL     1      -2.267  -3.278   0.000  0.00  0.00    +0.000 NA
ATOM     18  C   UNL     1      -1.460  -3.106   0.000  0.00  0.00    +0.000 C 
ATOM     19  O   UNL     1      -0.908  -3.719   0.000  0.00  0.00    +0.000 OA
BRANCH  17  23
ATOM     20  C   UNL     1      -3.032  -5.631   0.000  0.00  0.00    +0.000 A 
ATOM     21  C   UNL     1      -3.584  -5.018   0.000  0.00  0.00    +0.000 A 
ATOM     22  C   UNL     1      -3.329  -4.234   0.000  0.00  0.00    +0.000 A 
ATOM     23  C   UNL     1      -2.522  -4.062   0.000  0.00  0.00    +0.000 A 
ATOM     24  C   UNL     1      -1.970  -4.675   0.000  0.00  0.00    +0.000 A 
ATOM     25  C   UNL     1      -2.225  -5.460   0.000  0.00  0.00    +0.000 A 
ENDBRANCH  17  23
ENDBRANCH  15  18
ENDBRANCH   1  16
TORSDOF 4
