REMARK  Name = 
REMARK  7 active torsions:
REMARK  status: ('A' for Active; 'I' for Inactive)
REMARK    1  A    between atoms: C_8  and  C_12
REMARK    2  A    between atoms: C_12  and  N_33
REMARK    3  A    between atoms: C_24  and  O_40
REMARK    4  A    between atoms: C_25  and  O_41
REMARK    5  A    between atoms: C_26  and  N_33
REMARK    6  A    between atoms: C_29  and  O_42
REMARK    7  A    between atoms: C_31  and  O_42
REMARK                            x       y       z     vdW  Elec       q    Type
REMARK                         _______ _______ _______ _____ _____    ______ ____
ROOT
ATOM      1  C   UNL     1       5.347  -3.333   0.000  0.00  0.00    +0.000 C 
ATOM      2  C   UNL     1       4.965   1.242   0.000  0.00  0.00    +0.000 C 
ATOM      3  C   UNL     1       5.636  -2.913   0.000  0.00  0.00    +0.000 C 
ATOM      4  C   UNL     1       5.753  -1.963   0.000  0.00  0.00    +0.000 C 
ATOM      5  C   UNL     1       6.795   0.581   0.000  0.00  0.00    +0.000 C 
ATOM      6  C   UNL     1       6.051   0.225   0.000  0.00  0.00    +0.000 C 
ATOM      7  C   UNL     1       7.363  -0.018   0.000  0.00  0.00    +0.000 C 
ATOM      8  C   UNL     1       3.958  -3.667   0.000  0.00  0.00    +0.000 C 
ATOM      9  C   UNL     1       4.942  -4.703   0.000  0.00  0.00    +0.000 C 
ATOM     10  C   UNL     1       6.737  -2.999   0.000  0.00  0.00    +0.000 C 
ATOM     11  C   UNL     1       3.380  -1.260   0.000  0.00  0.00    +0.000 C 
ATOM     12  C   UNL     1       4.749  -3.901   0.000  0.00  0.00    +0.000 C 
ATOM     13  C   UNL     1       5.175   0.444   0.000  0.00  0.00    +0.000 C 
ATOM     14  C   UNL     1       6.138  -3.567   0.000  0.00  0.00    +0.000 C 
ATOM     15  C   UNL     1       6.544  -2.197   0.000  0.00  0.00    +0.000 C 
ATOM     16  C   UNL     1       3.765  -2.865   0.000  0.00  0.00    +0.000 C 
ATOM     17  C   UNL     1       4.171  -1.494   0.000  0.00  0.00    +0.000 C 
ATOM     18  C   UNL     1       2.781  -1.828   0.000  0.00  0.00    +0.000 C 
ATOM     19  C   UNL     1       6.970  -0.743   0.000  0.00  0.00    +0.000 C 
ATOM     20  C   UNL     1       5.733  -4.937   0.000  0.00  0.00    +0.000 C 
ATOM     21  C   UNL     1       2.974  -2.631   0.000  0.00  0.00    +0.000 C 
ATOM     22  C   UNL     1       6.331  -4.369   0.000  0.00  0.00    +0.000 C 
ATOM     23  C   UNL     1       4.363  -2.297   0.000  0.00  0.00    +0.000 C 
ATOM     24  C   UNL     1       7.142  -1.629   0.000  0.00  0.00    +0.000 C 
ATOM     25  C   UNL     1       4.576  -0.124   0.000  0.00  0.00    +0.000 C 
ATOM     26  N   UNL     1       4.769  -0.926   0.000  0.00  0.00    +0.000 NA
ATOM     27  O   UNL     1       1.990  -1.594   0.000  0.00  0.00    +0.000 OA
ATOM     28  O   UNL     1       7.122  -4.604   0.000  0.00  0.00    +0.000 OA
ATOM     29  O   UNL     1       5.154  -2.531   0.000  0.00  0.00    +0.000 OA
ATOM     30  O   UNL     1       3.785   0.110   0.000  0.00  0.00    +0.000 OA
ENDROOT
BRANCH  19  32
ATOM     31  C   UNL     1       8.301  -0.225   0.000  0.00  0.00    +0.000 C 
ATOM     32  O   UNL     1       7.785  -0.868   0.000  0.00  0.00    +0.000 OA
ENDBRANCH  19  32
BRANCH  20  34
ATOM     33  C   UNL     1       5.327  -6.308   0.000  0.00  0.00    +0.000 C 
ATOM     34  O   UNL     1       5.926  -5.739   0.000  0.00  0.00    +0.000 OA
ENDBRANCH  20  34
BRANCH  21  35
ATOM     35  N   UNL     1       2.376  -3.199   0.000  0.00  0.00    +0.000 NA
BRANCH  35  36
ATOM     36  C   UNL     1       1.585  -2.964   0.000  0.00  0.00    +0.000 C 
BRANCH  36  38
ATOM     37  C   UNL     1       0.195  -3.298   0.000  0.00  0.00    +0.000 C 
ATOM     38  C   UNL     1       0.986  -3.532   0.000  0.00  0.00    +0.000 C 
ENDBRANCH  36  38
ENDBRANCH  35  36
ENDBRANCH  21  35
BRANCH  24  39
ATOM     39  O   UNL     1       7.928  -1.880   0.000  0.00  0.00    +0.000 OA
BRANCH  39  40
ATOM     40  C   UNL     1       8.103  -2.686   0.000  0.00  0.00    +0.000 C 
ATOM     41  N   UNL     1       8.889  -2.938   0.000  0.00  0.00    +0.000 NA
ATOM     42  O   UNL     1       7.493  -3.241   0.000  0.00  0.00    +0.000 OA
ENDBRANCH  39  40
ENDBRANCH  24  39
TORSDOF 7
