REMARK  Name = 
REMARK  3 active torsions:
REMARK  status: ('A' for Active; 'I' for Inactive)
REMARK    1  A    between atoms: O_2  and  C_3
REMARK    2  A    between atoms: C_11  and  C_21
REMARK    3  A    between atoms: C_23  and  C_27
REMARK                            x       y       z     vdW  Elec       q    Type
REMARK                         _______ _______ _______ _____ _____    ______ ____
ROOT
ATOM      1  C   UNL     1       1.294  -2.020   0.000  0.00  0.00    +0.000 C 
ATOM      2  C   UNL     1       1.706  -1.306   0.000  0.00  0.00    +0.000 C 
ATOM      3  C   UNL     1       2.531  -1.306   0.000  0.00  0.00    +0.000 C 
ATOM      4  C   UNL     1       2.944  -2.020   0.000  0.00  0.00    +0.000 C 
ATOM      5  C   UNL     1       3.429  -1.353   0.000  0.00  0.00    +0.000 C 
ATOM      6  C   UNL     1       4.213  -1.608   0.000  0.00  0.00    +0.000 A 
ATOM      7  C   UNL     1       4.928  -1.195   0.000  0.00  0.00    +0.000 A 
ATOM      8  C   UNL     1       5.643  -1.608   0.000  0.00  0.00    +0.000 A 
ATOM      9  C   UNL     1       5.643  -2.433   0.000  0.00  0.00    +0.000 A 
ATOM     10  C   UNL     1       4.928  -2.845   0.000  0.00  0.00    +0.000 A 
ATOM     11  C   UNL     1       4.213  -2.433   0.000  0.00  0.00    +0.000 A 
ATOM     12  C   UNL     1       3.429  -2.688   0.000  0.00  0.00    +0.000 C 
ATOM     13  N   UNL     1       3.914  -3.355   0.000  0.00  0.00    +0.000 NA
ATOM     14  C   UNL     1       3.429  -4.022   0.000  0.00  0.00    +0.000 C 
ATOM     15  C   UNL     1       3.684  -4.807   0.000  0.00  0.00    +0.000 C 
ATOM     16  C   UNL     1       2.644  -3.768   0.000  0.00  0.00    +0.000 C 
ATOM     17  N   UNL     1       1.977  -4.253   0.000  0.00  0.00    +0.000 NA
ATOM     18  N   UNL     1       2.675  -3.055   0.000  0.00  0.00    +0.000 NA
ATOM     19  C   UNL     1       2.531  -2.735   0.000  0.00  0.00    +0.000 C 
ATOM     20  C   UNL     1       1.706  -2.735   0.000  0.00  0.00    +0.000 C 
ENDROOT
BRANCH   9  21
ATOM     21  C   UNL     1       6.357  -2.845   0.000  0.00  0.00    +0.000 A 
ATOM     22  C   UNL     1       7.071  -2.433   0.000  0.00  0.00    +0.000 A 
ATOM     23  C   UNL     1       7.786  -2.845   0.000  0.00  0.00    +0.000 A 
ATOM     24  C   UNL     1       7.786  -3.670   0.000  0.00  0.00    +0.000 A 
ATOM     25  N   UNL     1       7.071  -4.083   0.000  0.00  0.00    +0.000 NA
ATOM     26  C   UNL     1       6.357  -3.670   0.000  0.00  0.00    +0.000 A 
BRANCH  23  27
ATOM     27  C   UNL     1       8.500  -2.433   0.000  0.00  0.00    +0.000 C 
ATOM     28  C   UNL     1       9.215  -2.020   0.000  0.00  0.00    +0.000 C 
ATOM     29  C   UNL     1       9.929  -1.608   0.000  0.00  0.00    +0.000 C 
ENDBRANCH  23  27
ENDBRANCH   9  21
BRANCH   1  31
ATOM     30  C   UNL     1       0.057  -2.735   0.000  0.00  0.00    +0.000 C 
ATOM     31  O   UNL     1       0.469  -2.020   0.000  0.00  0.00    +0.000 OA
ENDBRANCH   1  31
TORSDOF 3
