REMARK  Name = 
REMARK  9 active torsions:
REMARK  status: ('A' for Active; 'I' for Inactive)
REMARK    1  A    between atoms: N_8  and  CA_15
REMARK    2  A    between atoms: N_9  and  C_24
REMARK    3  A    between atoms: N_10  and  C_27
REMARK    4  A    between atoms: N_13  and  C_29
REMARK    5  A    between atoms: CA_15  and  CB_16
REMARK    6  A    between atoms: CA_15  and  C_18
REMARK    7  A    between atoms: CB_16  and  CG_17
REMARK    8  A    between atoms: CG_17  and  CD_21
REMARK    9  A    between atoms: C_19  and  C_20
REMARK                            x       y       z     vdW  Elec       q    Type
REMARK                         _______ _______ _______ _____ _____    ______ ____
ROOT
ATOM      1  O   UNK A   0       1.650  -0.493   0.000  0.00  0.00    +0.000 OA
ATOM      2  N   UNK A   0       1.650   0.936   0.000  0.00  0.00    +0.000 N 
ATOM      3  N   UNK A   0       2.888   0.221   0.000  0.00  0.00    +0.000 N 
ATOM      4  C   UNK A   0       2.062   0.221   0.000  0.00  0.00    +0.000 C 
ATOM      5  H   UNK A   0       1.906   1.379   0.000  0.00  0.00    +0.000 HD
ATOM      6  H   UNK A   0       3.143   0.664   0.000  0.00  0.00    +0.000 HD
ENDROOT
BRANCH   3  11
ATOM      7  O   UNK A   0       5.362  -1.208   0.000  0.00  0.00    +0.000 OA
ATOM      8  N   UNK A   0       2.888  -1.208   0.000  0.00  0.00    +0.000 N 
ATOM      9  N   UNK A   0       4.125  -1.922   0.000  0.00  0.00    +0.000 NA
ATOM     10  N   UNK A   0       2.888  -2.636   0.000  0.00  0.00    +0.000 N 
ATOM     11  C   UNK A   0       3.300  -0.493   0.000  0.00  0.00    +0.000 A 
ATOM     12  C   UNK A   0       4.125  -0.493   0.000  0.00  0.00    +0.000 A 
ATOM     13  C   UNK A   0       3.300  -1.922   0.000  0.00  0.00    +0.000 A 
ATOM     14  C   UNK A   0       4.537  -1.208   0.000  0.00  0.00    +0.000 A 
ATOM     15  H   UNK A   0       2.376  -1.208   0.000  0.00  0.00    +0.000 HD
ATOM     16  H   UNK A   0       2.376  -2.636   0.000  0.00  0.00    +0.000 HD
ATOM     17  H   UNK A   0       3.143  -3.079   0.000  0.00  0.00    +0.000 HD
BRANCH  12  18
ATOM     18  N   UNK A   0       4.537   0.221   0.000  0.00  0.00    +0.000 N 
ATOM     19  H   UNK A   0       4.282   0.664   0.000  0.00  0.00    +0.000 HD
ATOM     20  H   UNK A   0       5.049   0.221   0.000  0.00  0.00    +0.000 HD
ENDBRANCH  12  18
ENDBRANCH   3  11
BRANCH   2  24
ATOM     21  C   UNK A   0      -0.825   0.936   0.000  0.00  0.00    +0.000 A 
ATOM     22  C   UNK A   0      -0.412   1.650   0.000  0.00  0.00    +0.000 A 
ATOM     23  C   UNK A   0      -0.412   0.221   0.000  0.00  0.00    +0.000 A 
ATOM     24  C   UNK A   0       0.825   0.936   0.000  0.00  0.00    +0.000 A 
ATOM     25  C   UNK A   0       0.412   1.650   0.000  0.00  0.00    +0.000 A 
ATOM     26  C   UNK A   0       0.412   0.221   0.000  0.00  0.00    +0.000 A 
BRANCH  21  29
ATOM     27  O   UNK A   0      -2.062   0.221   0.000  0.00  0.00    +0.000 OA
ATOM     28  N   GLU A   1      -2.062   1.650   0.000  0.00  0.00    +0.000 N 
ATOM     29  C   UNK A   0      -1.650   0.936   0.000  0.00  0.00    +0.000 C 
ATOM     30  H   GLU A   1      -1.807   2.093   0.000  0.00  0.00    +0.000 HD
BRANCH  28  31
ATOM     31  CA  GLU A   1      -2.888   1.650   0.000  0.00  0.00    +0.000 C 
BRANCH  31  34
ATOM     32  O   GLU A   1      -4.125   2.365   0.000  0.00  0.00    +0.000 OA
ATOM     33  OXT GLU A   1      -2.888   3.079   0.000  0.00  0.00    +0.000 OA
ATOM     34  C   GLU A   1      -3.300   2.365   0.000  0.00  0.00    +0.000 C 
ENDBRANCH  31  34
BRANCH  31  35
ATOM     35  CB  GLU A   1      -3.300   0.936   0.000  0.00  0.00    +0.000 C 
BRANCH  35  36
ATOM     36  CG  GLU A   1      -4.125   0.936   0.000  0.00  0.00    +0.000 C 
BRANCH  36  39
ATOM     37  OE1 GLU A   1      -5.362   0.221   0.000  0.00  0.00    +0.000 OA
ATOM     38  OE2 GLU A   1      -4.125  -0.493   0.000  0.00  0.00    +0.000 OA
ATOM     39  CD  GLU A   1      -4.537   0.221   0.000  0.00  0.00    +0.000 C 
ENDBRANCH  36  39
ENDBRANCH  35  36
ENDBRANCH  31  35
ENDBRANCH  28  31
ENDBRANCH  21  29
ENDBRANCH   2  24
TORSDOF 9
