REMARK  Name = 
REMARK  8 active torsions:
REMARK  status: ('A' for Active; 'I' for Inactive)
REMARK    1  A    between atoms: O_1  and  C_2
REMARK    2  A    between atoms: O_1  and  C_9
REMARK    3  A    between atoms: C_2  and  C_3
REMARK    4  A    between atoms: C_3  and  C_4
REMARK    5  A    between atoms: C_4  and  C_5
REMARK    6  A    between atoms: C_5  and  C_6
REMARK    7  A    between atoms: C_6  and  C_7
REMARK    8  A    between atoms: C_11  and  C_12
REMARK                            x       y       z     vdW  Elec       q    Type
REMARK                         _______ _______ _______ _____ _____    ______ ____
ROOT
ATOM      1  C   UNL     1      -1.240  -0.708   0.000  0.00  0.00    +0.000 C 
ATOM      2  O   UNL     1      -1.654  -1.421   0.000  0.00  0.00    +0.000 OA
ATOM      3  C   UNL     1      -1.243  -2.137   0.000  0.00  0.00    +0.000 C 
ATOM      4  C   UNL     1      -0.418  -2.139   0.000  0.00  0.00    +0.000 C 
ATOM      5  C   UNL     1      -0.004  -1.426   0.000  0.00  0.00    +0.000 C 
ATOM      6  C   UNL     1      -0.414  -0.710   0.000  0.00  0.00    +0.000 C 
ATOM      7  O   UNL     1       0.000   0.003   0.000  0.00  0.00    +0.000 OA
ATOM      8  O   UNL     1       0.821  -1.428   0.000  0.00  0.00    +0.000 OA
ATOM      9  O   UNL     1      -0.008  -2.855   0.000  0.00  0.00    +0.000 OA
ENDROOT
BRANCH   3  10
ATOM     10  C   UNL     1      -1.658  -2.850   0.000  0.00  0.00    +0.000 C 
ATOM     11  O   UNL     1      -2.483  -2.848   0.000  0.00  0.00    +0.000 OA
ENDBRANCH   3  10
BRANCH   1  12
ATOM     12  O   UNL     1      -1.650   0.008   0.000  0.00  0.00    +0.000 OA
BRANCH  12  13
ATOM     13  C   UNL     1      -1.236   0.721   0.000  0.00  0.00    +0.000 C 
BRANCH  13  14
ATOM     14  C   UNL     1      -0.410   0.719   0.000  0.00  0.00    +0.000 C 
BRANCH  14  15
ATOM     15  C   UNL     1       0.004   1.432   0.000  0.00  0.00    +0.000 C 
BRANCH  15  16
ATOM     16  C   UNL     1       0.829   1.430   0.000  0.00  0.00    +0.000 C 
BRANCH  16  17
ATOM     17  C   UNL     1       1.243   2.143   0.000  0.00  0.00    +0.000 C 
BRANCH  17  18
ATOM     18  C   UNL     1       2.068   2.141   0.000  0.00  0.00    +0.000 C 
ATOM     19  C   UNL     1       2.483   2.855   0.000  0.00  0.00    +0.000 C 
ENDBRANCH  17  18
ENDBRANCH  16  17
ENDBRANCH  15  16
ENDBRANCH  14  15
ENDBRANCH  13  14
ENDBRANCH  12  13
ENDBRANCH   1  12
TORSDOF 8
