REMARK  Name = 
REMARK  5 active torsions:
REMARK  status: ('A' for Active; 'I' for Inactive)
REMARK    1  A    between atoms: O_1  and  C_5
REMARK    2  A    between atoms: O_1  and  C_7
REMARK    3  A    between atoms: N_2  and  N_3
REMARK    4  A    between atoms: N_2  and  C_4
REMARK    5  A    between atoms: C_4  and  C_5
REMARK                            x       y       z     vdW  Elec       q    Type
REMARK                         _______ _______ _______ _____ _____    ______ ____
ROOT
ATOM      1  C   UNL     1       0.136   0.285   0.000  0.00  0.00    +0.000 C 
ENDROOT
BRANCH   1   2
ATOM      2  C   UNL     1       0.136   1.110   0.000  0.00  0.00    +0.000 C 
ATOM      3  C   UNL     1      -0.579   1.522   0.000  0.00  0.00    +0.000 C 
BRANCH   2   4
ATOM      4  N   UNL     1       0.850   1.522   0.000  0.00  0.00    +0.000 NA
ATOM      5  H   UNL     1       1.293   1.266   0.000  0.00  0.00    +0.000 HD
BRANCH   4   6
ATOM      6  N   UNL     1       0.850   2.347   0.000  0.00  0.00    +0.000 NA
ATOM      7  H   UNL     1       1.293   2.603   0.000  0.00  0.00    +0.000 HD
ATOM      8  H   UNL     1       0.407   2.603   0.000  0.00  0.00    +0.000 HD
ENDBRANCH   4   6
ENDBRANCH   2   4
ENDBRANCH   1   2
BRANCH   1   9
ATOM      9  O   UNL     1      -0.579  -0.128   0.000  0.00  0.00    +0.000 OA
BRANCH   9  10
ATOM     10  C   UNL     1      -0.579  -0.953   0.000  0.00  0.00    +0.000 A 
ATOM     11  C   UNL     1       0.136  -1.365   0.000  0.00  0.00    +0.000 A 
ATOM     12  C   UNL     1      -1.293  -1.365   0.000  0.00  0.00    +0.000 A 
ATOM     13  C   UNL     1       0.136  -2.190   0.000  0.00  0.00    +0.000 A 
ATOM     14  C   UNL     1      -1.293  -2.190   0.000  0.00  0.00    +0.000 A 
ATOM     15  C   UNL     1      -0.579  -2.603   0.000  0.00  0.00    +0.000 A 
ENDBRANCH   9  10
ENDBRANCH   1   9
TORSDOF 5
