REMARK  Name = 
REMARK  8 active torsions:
REMARK  status: ('A' for Active; 'I' for Inactive)
REMARK    1  A    between atoms: O_2  and  C_3
REMARK    2  A    between atoms: C_4  and  N_5
REMARK    3  A    between atoms: C_14  and  C_15
REMARK    4  A    between atoms: C_15  and  N_16
REMARK    5  A    between atoms: C_19  and  C_21
REMARK    6  A    between atoms: C_28  and  N_29
REMARK    7  A    between atoms: C_30  and  C_32
REMARK    8  A    between atoms: C_34  and  N_36
REMARK                            x       y       z     vdW  Elec       q    Type
REMARK                         _______ _______ _______ _____ _____    ______ ____
ROOT
ATOM      1  N   UNL     1       0.715  -3.712   0.000  0.00  0.00    +0.000 NA
ATOM      2  C   UNL     1       1.429  -4.125   0.000  0.00  0.00    +0.000 A 
ATOM      3  N   UNL     1       2.143  -3.712   0.000  0.00  0.00    +0.000 NA
ATOM      4  C   UNL     1       2.858  -4.125   0.000  0.00  0.00    +0.000 A 
ATOM      5  C   UNL     1       2.858  -4.950   0.000  0.00  0.00    +0.000 A 
ATOM      6  C   UNL     1       2.143  -5.362   0.000  0.00  0.00    +0.000 A 
ATOM      7  N   UNL     1       1.429  -4.950   0.000  0.00  0.00    +0.000 NA
ATOM      8  N   UNL     1       2.143  -6.188   0.000  0.00  0.00    +0.000 N 
ATOM      9  C   UNL     1       2.811  -6.672   0.000  0.00  0.00    +0.000 A 
ATOM     10  C   UNL     1       2.556  -7.457   0.000  0.00  0.00    +0.000 A 
ATOM     11  C   UNL     1       1.731  -7.457   0.000  0.00  0.00    +0.000 A 
ATOM     12  N   UNL     1       1.476  -6.672   0.000  0.00  0.00    +0.000 NA
ENDROOT
BRANCH   1  14
ATOM     13  C   UNL     1       1.429  -2.475   0.000  0.00  0.00    +0.000 A 
ATOM     14  C   UNL     1       0.715  -2.888   0.000  0.00  0.00    +0.000 A 
ATOM     15  C   UNL     1       0.000  -2.475   0.000  0.00  0.00    +0.000 A 
ATOM     16  C   UNL     1       0.000  -1.650   0.000  0.00  0.00    +0.000 A 
ATOM     17  C   UNL     1       0.715  -1.238   0.000  0.00  0.00    +0.000 A 
ATOM     18  C   UNL     1       1.429  -1.650   0.000  0.00  0.00    +0.000 A 
BRANCH  17  19
ATOM     19  N   UNL     1       0.715  -0.412   0.000  0.00  0.00    +0.000 N 
ATOM     20  C   UNL     1       0.000   0.000   0.000  0.00  0.00    +0.000 C 
ATOM     21  C   UNL     1       0.000   0.825   0.000  0.00  0.00    +0.000 C 
ATOM     22  O   UNL     1       0.715   1.238   0.000  0.00  0.00    +0.000 OA
ATOM     23  C   UNL     1       1.429   0.825   0.000  0.00  0.00    +0.000 C 
ATOM     24  C   UNL     1       1.429   0.000   0.000  0.00  0.00    +0.000 C 
ENDBRANCH  17  19
BRANCH  16  25
ATOM     25  N   UNL     1      -0.715  -1.238   0.000  0.00  0.00    +0.000 NA
ATOM     26  C   UNL     1      -1.429  -1.650   0.000  0.00  0.00    +0.000 C 
ATOM     27  O   UNL     1      -2.143  -1.238   0.000  0.00  0.00    +0.000 OA
BRANCH  26  28
ATOM     28  C   UNL     1      -1.429  -2.475   0.000  0.00  0.00    +0.000 C 
ATOM     29  C   UNL     1      -2.143  -2.888   0.000  0.00  0.00    +0.000 C 
ENDBRANCH  26  28
ENDBRANCH  16  25
BRANCH  13  31
ATOM     30  C   UNL     1       2.858  -2.475   0.000  0.00  0.00    +0.000 C 
ATOM     31  O   UNL     1       2.143  -2.888   0.000  0.00  0.00    +0.000 OA
ENDBRANCH  13  31
ENDBRANCH   1  14
BRANCH  11  32
ATOM     32  C   UNL     1       1.246  -8.124   0.000  0.00  0.00    +0.000 A 
ATOM     33  C   UNL     1       1.581  -8.878   0.000  0.00  0.00    +0.000 A 
ATOM     34  C   UNL     1       1.097  -9.546   0.000  0.00  0.00    +0.000 A 
ATOM     35  C   UNL     1       0.276  -9.459   0.000  0.00  0.00    +0.000 A 
ATOM     36  C   UNL     1      -0.059  -8.706   0.000  0.00  0.00    +0.000 A 
ATOM     37  C   UNL     1       0.425  -8.038   0.000  0.00  0.00    +0.000 A 
ENDBRANCH  11  32
BRANCH  10  38
ATOM     38  C   UNL     1       3.041  -8.124   0.000  0.00  0.00    +0.000 C 
BRANCH  38  39
ATOM     39  N   UNL     1       3.861  -8.038   0.000  0.00  0.00    +0.000 NA
ATOM     40  C   UNL     1       4.197  -7.285   0.000  0.00  0.00    +0.000 C 
ATOM     41  C   UNL     1       4.346  -8.706   0.000  0.00  0.00    +0.000 C 
ENDBRANCH  38  39
ENDBRANCH  10  38
TORSDOF 8
