REMARK  Name = 
REMARK  3 active torsions:
REMARK  status: ('A' for Active; 'I' for Inactive)
REMARK    1  A    between atoms: C_7  and  C_8
REMARK    2  A    between atoms: C_8  and  C_9
REMARK    3  A    between atoms: C_8  and  C_16
REMARK                            x       y       z     vdW  Elec       q    Type
REMARK                         _______ _______ _______ _____ _____    ______ ____
ROOT
ATOM      1  C   UNL     1      -0.715  -0.412   0.000  0.00  0.00    +0.000 C 
ATOM      2  O   UNL     1      -1.429  -0.825   0.000  0.00  0.00    +0.000 OA
ENDROOT
BRANCH   1   3
ATOM      3  C   UNL     1       0.000   0.000   0.000  0.00  0.00    +0.000 C 
ATOM      4  C   UNL     1       0.000   0.825   0.000  0.00  0.00    +0.000 C 
ATOM      5  N   UNL     1       0.715   1.238   0.000  0.00  0.00    +0.000 NA
ATOM      6  C   UNL     1       1.429   0.825   0.000  0.00  0.00    +0.000 C 
ATOM      7  C   UNL     1       1.429   0.000   0.000  0.00  0.00    +0.000 C 
ATOM      8  C   UNL     1       0.715  -0.412   0.000  0.00  0.00    +0.000 C 
ATOM      9  C   UNL     1       0.852   0.138   0.000  0.00  0.00    +0.000 C 
ATOM     10  C   UNL     1       0.852   0.688   0.000  0.00  0.00    +0.000 C 
ENDBRANCH   1   3
BRANCH   1  17
ATOM     11  C   UNL     1      -1.540  -1.841   0.000  0.00  0.00    +0.000 C 
ATOM     12  C   UNL     1      -0.715  -1.841   0.000  0.00  0.00    +0.000 A 
ATOM     13  C   UNL     1      -0.302  -2.556   0.000  0.00  0.00    +0.000 A 
ATOM     14  C   UNL     1       0.523  -2.556   0.000  0.00  0.00    +0.000 A 
ATOM     15  C   UNL     1       0.935  -1.841   0.000  0.00  0.00    +0.000 A 
ATOM     16  C   UNL     1       0.523  -1.127   0.000  0.00  0.00    +0.000 A 
ATOM     17  C   UNL     1      -0.302  -1.127   0.000  0.00  0.00    +0.000 A 
ENDBRANCH   1  17
BRANCH   1  18
ATOM     18  C   UNL     1      -1.127   0.302   0.000  0.00  0.00    +0.000 A 
ATOM     19  C   UNL     1      -0.715   1.016   0.000  0.00  0.00    +0.000 A 
ATOM     20  C   UNL     1      -1.127   1.731   0.000  0.00  0.00    +0.000 A 
ATOM     21  C   UNL     1      -1.952   1.731   0.000  0.00  0.00    +0.000 A 
ATOM     22  C   UNL     1      -2.365   1.016   0.000  0.00  0.00    +0.000 A 
ATOM     23  C   UNL     1      -1.952   0.302   0.000  0.00  0.00    +0.000 A 
ATOM     24  C   UNL     1      -2.365  -0.412   0.000  0.00  0.00    +0.000 C 
ENDBRANCH   1  18
TORSDOF 3
