REMARK  Name = 
REMARK  9 active torsions:
REMARK  status: ('A' for Active; 'I' for Inactive)
REMARK    1  A    between atoms: C_4  and  C_6
REMARK    2  A    between atoms: C_6  and  O_7
REMARK    3  A    between atoms: O_7  and  C_8
REMARK    4  A    between atoms: C_15  and  N_18
REMARK    5  A    between atoms: N_18  and  C_19
REMARK    6  A    between atoms: C_19  and  C_20
REMARK    7  A    between atoms: C_20  and  C_21
REMARK    8  A    between atoms: C_25  and  C_27
REMARK    9  A    between atoms: C_27  and  C_28
REMARK                            x       y       z     vdW  Elec       q    Type
REMARK                         _______ _______ _______ _____ _____    ______ ____
ROOT
ATOM      1  C   UNL     1       0.000  -3.300   0.000  0.00  0.00    +0.000 A 
ATOM      2  C   UNL     1       0.000  -4.125   0.000  0.00  0.00    +0.000 A 
ATOM      3  C   UNL     1       0.715  -4.537   0.000  0.00  0.00    +0.000 A 
ATOM      4  C   UNL     1       1.429  -4.125   0.000  0.00  0.00    +0.000 A 
ATOM      5  C   UNL     1       1.429  -3.300   0.000  0.00  0.00    +0.000 A 
ATOM      6  C   UNL     1       0.715  -2.888   0.000  0.00  0.00    +0.000 A 
ATOM      7  C   UNL     1       2.143  -2.888   0.000  0.00  0.00    +0.000 C 
ATOM      8  C   UNL     1       2.858  -3.300   0.000  0.00  0.00    +0.000 C 
ATOM      9  C   UNL     1       2.858  -4.125   0.000  0.00  0.00    +0.000 C 
ATOM     10  C   UNL     1       2.143  -4.537   0.000  0.00  0.00    +0.000 C 
ENDROOT
BRANCH   8  11
ATOM     11  N   UNL     1       3.572  -2.888   0.000  0.00  0.00    +0.000 NA
BRANCH  11  12
ATOM     12  C   UNL     1       3.572  -2.062   0.000  0.00  0.00    +0.000 C 
BRANCH  12  13
ATOM     13  C   UNL     1       4.287  -1.650   0.000  0.00  0.00    +0.000 C 
ATOM     14  O   UNL     1       5.001  -2.062   0.000  0.00  0.00    +0.000 OA
BRANCH  13  15
ATOM     15  C   UNL     1       4.287  -0.825   0.000  0.00  0.00    +0.000 A 
ATOM     16  C   UNL     1       3.572  -0.412   0.000  0.00  0.00    +0.000 A 
ATOM     17  C   UNL     1       3.572   0.412   0.000  0.00  0.00    +0.000 A 
ATOM     18  C   UNL     1       4.287   0.825   0.000  0.00  0.00    +0.000 A 
ATOM     19  C   UNL     1       5.001   0.412   0.000  0.00  0.00    +0.000 A 
ATOM     20  C   UNL     1       5.001  -0.412   0.000  0.00  0.00    +0.000 A 
ATOM     21  O   UNL     1       4.287   1.650   0.000  0.00  0.00    +0.000 OA
BRANCH  19  22
ATOM     22  C   UNL     1       5.716   0.825   0.000  0.00  0.00    +0.000 C 
BRANCH  22  23
ATOM     23  C   UNL     1       6.430   0.412   0.000  0.00  0.00    +0.000 C 
ATOM     24  O   UNL     1       7.145   0.825   0.000  0.00  0.00    +0.000 OA
ENDBRANCH  22  23
ENDBRANCH  19  22
ENDBRANCH  13  15
ENDBRANCH  12  13
ENDBRANCH  11  12
ENDBRANCH   8  11
BRANCH   1  25
ATOM     25  O   UNL     1      -0.715  -2.888   0.000  0.00  0.00    +0.000 OA
BRANCH  25  26
ATOM     26  C   UNL     1      -1.429  -3.300   0.000  0.00  0.00    +0.000 C 
BRANCH  26  30
ATOM     27  C   UNL     1      -3.572  -2.888   0.000  0.00  0.00    +0.000 C 
ATOM     28  N   UNL     1      -2.858  -3.300   0.000  0.00  0.00    +0.000 N 
ATOM     29  C   UNL     1      -2.858  -4.125   0.000  0.00  0.00    +0.000 C 
ATOM     30  C   UNL     1      -2.143  -2.888   0.000  0.00  0.00    +0.000 C 
ATOM     31  O   UNL     1      -2.143  -2.062   0.000  0.00  0.00    +0.000 OA
ENDBRANCH  26  30
ENDBRANCH  25  26
ENDBRANCH   1  25
TORSDOF 9
