REMARK  Name = 
REMARK  6 active torsions:
REMARK  status: ('A' for Active; 'I' for Inactive)
REMARK    1  A    between atoms: N_1  and  N_22
REMARK    2  A    between atoms: N_2  and  C_5
REMARK    3  A    between atoms: C_21  and  C_37
REMARK    4  A    between atoms: N_22  and  C_29
REMARK    5  A    between atoms: C_29  and  C_43
REMARK    6  A    between atoms: C_29  and  C_44
REMARK                            x       y       z     vdW  Elec       q    Type
REMARK                         _______ _______ _______ _____ _____    ______ ____
ROOT
ATOM      1  N   UNL     1      -0.076   2.070   0.000  0.00  0.00    +0.000 N 
ATOM      2  N   UNL     1      -0.973  -1.265   0.000  0.00  0.00    +0.000 N 
ATOM      3  C   UNL     1       0.594   1.594   0.000  0.00  0.00    +0.000 C 
ATOM      4  C   UNL     1      -0.733   1.564   0.000  0.00  0.00    +0.000 C 
ATOM      5  C   UNL     1      -0.442  -0.646   0.000  0.00  0.00    +0.000 A 
ATOM      6  C   UNL     1      -0.467   0.785   0.000  0.00  0.00    +0.000 A 
ATOM      7  C   UNL     1       0.362   0.806   0.000  0.00  0.00    +0.000 A 
ATOM      8  C   UNL     1       0.392  -0.621   0.000  0.00  0.00    +0.000 A 
ATOM      9  C   UNL     1      -0.863   0.061   0.000  0.00  0.00    +0.000 A 
ATOM     10  C   UNL     1      -1.731  -0.950   0.000  0.00  0.00    +0.000 A 
ATOM     11  C   UNL     1       0.792   0.103   0.000  0.00  0.00    +0.000 A 
ATOM     12  N   UNL     1       0.973  -1.228   0.000  0.00  0.00    +0.000 NA
ATOM     13  C   UNL     1      -1.668  -0.137   0.000  0.00  0.00    +0.000 A 
ATOM     14  C   UNL     1       1.714  -0.861   0.000  0.00  0.00    +0.000 A 
ATOM     15  C   UNL     1       1.604  -0.048   0.000  0.00  0.00    +0.000 A 
ATOM     16  C   UNL     1      -2.468  -1.303   0.000  0.00  0.00    +0.000 A 
ATOM     17  C   UNL     1       2.472  -1.177   0.000  0.00  0.00    +0.000 A 
ATOM     18  C   UNL     1      -2.337   0.331   0.000  0.00  0.00    +0.000 A 
ATOM     19  O   UNL     1      -1.528   1.804   0.000  0.00  0.00    +0.000 OA
ATOM     20  O   UNL     1       1.377   1.867   0.000  0.00  0.00    +0.000 OA
ATOM     21  C   UNL     1       2.257   0.453   0.000  0.00  0.00    +0.000 A 
ATOM     22  C   UNL     1      -3.146  -0.844   0.000  0.00  0.00    +0.000 A 
ATOM     23  C   UNL     1       3.129  -0.672   0.000  0.00  0.00    +0.000 A 
ATOM     24  C   UNL     1      -3.082  -0.023   0.000  0.00  0.00    +0.000 A 
ATOM     25  C   UNL     1       3.015   0.149   0.000  0.00  0.00    +0.000 A 
ATOM     26  O   UNL     1       3.891  -0.988   0.000  0.00  0.00    +0.000 OA
ATOM     27  O   UNL     1      -3.891  -1.198   0.000  0.00  0.00    +0.000 OA
ENDROOT
BRANCH   2  28
ATOM     28  C   UNL     1      -0.952  -2.478   0.000  0.00  0.00    +0.000 C 
ATOM     29  C   UNL     1      -0.952  -3.312   0.000  0.00  0.00    +0.000 C 
ATOM     30  O   UNL     1      -1.684  -2.061   0.000  0.00  0.00    +0.000 OA
ATOM     31  C   UNL     1      -1.684  -3.729   0.000  0.00  0.00    +0.000 C 
ATOM     32  C   UNL     1      -2.405  -3.312   0.000  0.00  0.00    +0.000 C 
ATOM     33  C   UNL     1      -2.405  -2.478   0.000  0.00  0.00    +0.000 C 
ATOM     34  O   UNL     1      -0.232  -3.729   0.000  0.00  0.00    +0.000 OA
ATOM     35  O   UNL     1      -1.684  -4.571   0.000  0.00  0.00    +0.000 OA
ATOM     36  O   UNL     1      -3.133  -3.729   0.000  0.00  0.00    +0.000 OA
BRANCH  33  37
ATOM     37  C   UNL     1      -3.133  -2.061   0.000  0.00  0.00    +0.000 C 
ATOM     38  O   UNL     1      -3.765  -2.600   0.000  0.00  0.00    +0.000 OA
ENDBRANCH  33  37
ENDBRANCH   2  28
BRANCH   1  39
ATOM     39  N   UNL     1      -0.101   2.891   0.000  0.00  0.00    +0.000 NA
BRANCH  39  40
ATOM     40  C   UNL     1       0.606   3.320   0.000  0.00  0.00    +0.000 C 
BRANCH  40  42
ATOM     41  O   UNL     1       2.034   3.350   0.000  0.00  0.00    +0.000 OA
ATOM     42  C   UNL     1       1.326   2.920   0.000  0.00  0.00    +0.000 C 
ENDBRANCH  40  42
BRANCH  40  44
ATOM     43  O   UNL     1       1.289   4.571   0.000  0.00  0.00    +0.000 OA
ATOM     44  C   UNL     1       0.581   4.141   0.000  0.00  0.00    +0.000 C 
ENDBRANCH  40  44
ENDBRANCH  39  40
ENDBRANCH   1  39
TORSDOF 6
