REMARK  Name = 
REMARK  10 active torsions:
REMARK  status: ('A' for Active; 'I' for Inactive)
REMARK    1  A    between atoms: C_2  and  C_3
REMARK    2  A    between atoms: C_3  and  C_4
REMARK    3  A    between atoms: C_4  and  O_6
REMARK    4  A    between atoms: O_6  and  C_7
REMARK    5  A    between atoms: N_15  and  C_16
REMARK    6  A    between atoms: C_16  and  C_17
REMARK    7  A    between atoms: C_17  and  C_18
REMARK    8  A    between atoms: C_18  and  C_19
REMARK    9  A    between atoms: C_19  and  C_20
REMARK   10  A    between atoms: C_20  and  N_21
REMARK                            x       y       z     vdW  Elec       q    Type
REMARK                         _______ _______ _______ _____ _____    ______ ____
ROOT
ATOM      1  C   UNL     1       2.345  -1.425   0.000  0.00  0.00    +0.000 A 
ATOM      2  N   UNL     1       1.538  -1.597   0.000  0.00  0.00    +0.000 NA
ATOM      3  C   UNL     1       0.986  -0.984   0.000  0.00  0.00    +0.000 A 
ATOM      4  N   UNL     1       0.179  -1.155   0.000  0.00  0.00    +0.000 NA
ATOM      5  C   UNL     1       1.241  -0.199   0.000  0.00  0.00    +0.000 A 
ATOM      6  N   UNL     1       0.829   0.515   0.000  0.00  0.00    +0.000 NA
ATOM      7  C   UNL     1       1.381   1.129   0.000  0.00  0.00    +0.000 A 
ATOM      8  O   UNL     1       1.209   1.935   0.000  0.00  0.00    +0.000 OA
ATOM      9  N   UNL     1       2.135   0.793   0.000  0.00  0.00    +0.000 N 
ATOM     10  C   UNL     1       2.048  -0.028   0.000  0.00  0.00    +0.000 A 
ATOM     11  N   UNL     1       2.600  -0.641   0.000  0.00  0.00    +0.000 NA
ENDROOT
BRANCH   1  12
ATOM     12  O   UNL     1       2.897  -2.038   0.000  0.00  0.00    +0.000 OA
BRANCH  12  13
ATOM     13  C   UNL     1       2.643  -2.823   0.000  0.00  0.00    +0.000 C 
ATOM     14  C   UNL     1       1.835  -2.994   0.000  0.00  0.00    +0.000 C 
BRANCH  13  15
ATOM     15  C   UNL     1       3.195  -3.436   0.000  0.00  0.00    +0.000 C 
BRANCH  15  17
ATOM     16  C   UNL     1       3.492  -4.834   0.000  0.00  0.00    +0.000 C 
ATOM     17  C   UNL     1       2.940  -4.221   0.000  0.00  0.00    +0.000 C 
ENDBRANCH  15  17
ENDBRANCH  13  15
ENDBRANCH  12  13
ENDBRANCH   1  12
BRANCH   9  18
ATOM     18  C   UNL     1       2.849   1.206   0.000  0.00  0.00    +0.000 C 
BRANCH  18  19
ATOM     19  C   UNL     1       3.563   0.793   0.000  0.00  0.00    +0.000 C 
BRANCH  19  20
ATOM     20  C   UNL     1       4.278   1.206   0.000  0.00  0.00    +0.000 C 
BRANCH  20  21
ATOM     21  C   UNL     1       4.992   0.793   0.000  0.00  0.00    +0.000 C 
BRANCH  21  22
ATOM     22  C   UNL     1       5.707   1.206   0.000  0.00  0.00    +0.000 C 
BRANCH  22  23
ATOM     23  N   UNL     1       6.421   0.793   0.000  0.00  0.00    +0.000 NA
ATOM     24  C   UNL     1       7.136   1.206   0.000  0.00  0.00    +0.000 C 
ATOM     25  C   UNL     1       7.850   0.793   0.000  0.00  0.00    +0.000 C 
ATOM     26  C   UNL     1       7.850  -0.032   0.000  0.00  0.00    +0.000 C 
ATOM     27  C   UNL     1       7.136  -0.445   0.000  0.00  0.00    +0.000 C 
ATOM     28  C   UNL     1       6.421  -0.032   0.000  0.00  0.00    +0.000 C 
ENDBRANCH  22  23
ENDBRANCH  21  22
ENDBRANCH  20  21
ENDBRANCH  19  20
ENDBRANCH  18  19
ENDBRANCH   9  18
TORSDOF 10
