REMARK  Name = 
REMARK  5 active torsions:
REMARK  status: ('A' for Active; 'I' for Inactive)
REMARK    1  A    between atoms: N_3  and  C_14
REMARK    2  A    between atoms: C_4  and  C_5
REMARK    3  A    between atoms: C_4  and  C_6
REMARK    4  A    between atoms: C_4  and  C_9
REMARK    5  A    between atoms: C_9  and  C_14
REMARK                            x       y       z     vdW  Elec       q    Type
REMARK                         _______ _______ _______ _____ _____    ______ ____
ROOT
ATOM      1  C   UNL     1       4.400  -3.737   0.000  0.00  0.00    +0.000 C 
ENDROOT
BRANCH   1   3
ATOM      2 CL   UNL     1       1.533  -5.393   0.000  0.00  0.00    +0.000 Cl
ATOM      3  C   UNL     1       3.675  -4.157   0.000  0.00  0.00    +0.000 A 
ATOM      4  C   UNL     1       2.959  -3.747   0.000  0.00  0.00    +0.000 A 
ATOM      5  C   UNL     1       3.675  -4.983   0.000  0.00  0.00    +0.000 A 
ATOM      6  C   UNL     1       2.248  -4.983   0.000  0.00  0.00    +0.000 A 
ATOM      7  C   UNL     1       2.248  -4.157   0.000  0.00  0.00    +0.000 A 
ATOM      8  C   UNL     1       2.959  -5.393   0.000  0.00  0.00    +0.000 A 
ENDBRANCH   1   3
BRANCH   1  10
ATOM      9  C   UNL     1       5.822  -3.737   0.000  0.00  0.00    +0.000 A 
ATOM     10  C   UNL     1       5.111  -4.147   0.000  0.00  0.00    +0.000 A 
ATOM     11  N   UNL     1       5.111  -4.983   0.000  0.00  0.00    +0.000 NA
ATOM     12  C   UNL     1       6.537  -4.147   0.000  0.00  0.00    +0.000 A 
ATOM     13  C   UNL     1       5.822  -5.393   0.000  0.00  0.00    +0.000 A 
ATOM     14  C   UNL     1       6.537  -4.983   0.000  0.00  0.00    +0.000 A 
ENDBRANCH   1  10
BRANCH   1  15
ATOM     15  C   UNL     1       4.400  -2.921   0.000  0.00  0.00    +0.000 C 
BRANCH  15  16
ATOM     16  C   UNL     1       5.106  -2.511   0.000  0.00  0.00    +0.000 C 
BRANCH  16  17
ATOM     17  N   UNL     1       5.106  -1.685   0.000  0.00  0.00    +0.000 NA
ATOM     18  C   UNL     1       4.380  -1.264   0.000  0.00  0.00    +0.000 C 
ATOM     19  C   UNL     1       5.807  -1.279   0.000  0.00  0.00    +0.000 C 
ENDBRANCH  16  17
ENDBRANCH  15  16
ENDBRANCH   1  15
TORSDOF 5
