REMARK  Name = 
REMARK  22 active torsions:
REMARK  status: ('A' for Active; 'I' for Inactive)
REMARK    1  A    between atoms: C_1  and  C_2
REMARK    2  A    between atoms: C_1  and  C_52
REMARK    3  A    between atoms: C_2  and  S_3
REMARK    4  A    between atoms: S_3  and  C_4
REMARK    5  A    between atoms: C_4  and  C_5
REMARK    6  A    between atoms: C_5  and  N_6
REMARK    7  A    between atoms: C_7  and  C_8
REMARK    8  A    between atoms: C_8  and  C_9
REMARK    9  A    between atoms: C_9  and  N_10
REMARK   10  A    between atoms: C_11  and  C_12
REMARK   11  A    between atoms: C_12  and  C_13
REMARK   12  A    between atoms: C_13  and  C_14
REMARK   13  A    between atoms: C_14  and  O_15
REMARK   14  A    between atoms: O_15  and  P_22
REMARK   15  A    between atoms: P_22  and  O_51
REMARK   16  A    between atoms: C_26  and  O_32
REMARK   17  A    between atoms: C_27  and  C_30
REMARK   18  A    between atoms: C_29  and  N_39
REMARK   19  A    between atoms: C_30  and  O_47
REMARK   20  A    between atoms: O_32  and  P_33
REMARK   21  A    between atoms: O_47  and  P_48
REMARK   22  A    between atoms: P_48  and  O_51
REMARK                            x       y       z     vdW  Elec       q    Type
REMARK                         _______ _______ _______ _____ _____    ______ ____
ROOT
ATOM      1  P   UNL     1      15.997 -12.127   0.000  0.00  0.00    +0.000 P 
ATOM      2  O   UNL     1      16.822 -12.127   0.000  0.00  0.00    +0.000 OA
ATOM      3  O   UNL     1      15.997 -12.953   0.000  0.00  0.00    +0.000 OA
ENDROOT
BRANCH   1   4
ATOM      4  O   UNL     1      15.172 -12.127   0.000  0.00  0.00    +0.000 OA
BRANCH   4   5
ATOM      5  C   UNL     1      14.458 -11.715   0.000  0.00  0.00    +0.000 C 
BRANCH   5   6
ATOM      6  C   UNL     1      13.743 -12.127   0.000  0.00  0.00    +0.000 C 
ATOM      7  C   UNL     1      13.743 -11.303   0.000  0.00  0.00    +0.000 C 
ATOM      8  C   UNL     1      13.743 -12.953   0.000  0.00  0.00    +0.000 C 
BRANCH   6   9
ATOM      9  C   UNL     1      13.029 -11.715   0.000  0.00  0.00    +0.000 C 
ATOM     10  O   UNL     1      13.029 -10.890   0.000  0.00  0.00    +0.000 OA
BRANCH   9  12
ATOM     11  N   UNL     1      11.600 -11.715   0.000  0.00  0.00    +0.000 NA
ATOM     12  C   UNL     1      12.314 -12.127   0.000  0.00  0.00    +0.000 C 
ATOM     13  O   UNL     1      12.314 -12.952   0.000  0.00  0.00    +0.000 OA
BRANCH  11  14
ATOM     14  C   UNL     1      10.885 -12.127   0.000  0.00  0.00    +0.000 C 
BRANCH  14  15
ATOM     15  C   UNL     1      10.171 -11.715   0.000  0.00  0.00    +0.000 C 
BRANCH  15  17
ATOM     16  N   UNL     1       8.742 -11.715   0.000  0.00  0.00    +0.000 NA
ATOM     17  C   UNL     1       9.456 -12.127   0.000  0.00  0.00    +0.000 C 
ATOM     18  O   UNL     1       9.456 -12.952   0.000  0.00  0.00    +0.000 OA
BRANCH  16  19
ATOM     19  C   UNL     1       8.027 -12.127   0.000  0.00  0.00    +0.000 C 
BRANCH  19  20
ATOM     20  C   UNL     1       7.313 -11.715   0.000  0.00  0.00    +0.000 C 
BRANCH  20  21
ATOM     21  S   UNL     1       6.598 -12.127   0.000  0.00  0.00    +0.000 S 
BRANCH  21  22
ATOM     22  C   UNL     1       5.884 -11.715   0.000  0.00  0.00    +0.000 C 
ATOM     23  O   UNL     1       5.884 -10.890   0.000  0.00  0.00    +0.000 OA
BRANCH  22  24
ATOM     24  C   UNL     1       5.169 -12.127   0.000  0.00  0.00    +0.000 C 
BRANCH  24  25
ATOM     25  C   UNL     1       4.442 -11.715   0.000  0.00  0.00    +0.000 C 
ATOM     26  C   UNL     1       3.727 -12.127   0.000  0.00  0.00    +0.000 C 
ATOM     27  O   UNL     1       4.439 -10.890   0.000  0.00  0.00    +0.000 OA
ENDBRANCH  24  25
ENDBRANCH  22  24
ENDBRANCH  21  22
ENDBRANCH  20  21
ENDBRANCH  19  20
ENDBRANCH  16  19
ENDBRANCH  15  17
ENDBRANCH  14  15
ENDBRANCH  11  14
ENDBRANCH   9  12
ENDBRANCH   6   9
ENDBRANCH   5   6
ENDBRANCH   4   5
ENDBRANCH   1   4
BRANCH   1  28
ATOM     28  O   UNL     1      16.019 -10.314   0.000  0.00  0.00    +0.000 OA
BRANCH  28  29
ATOM     29  P   UNL     1      16.019  -8.416   0.000  0.00  0.00    +0.000 P 
ATOM     30  O   UNL     1      16.019  -7.591   0.000  0.00  0.00    +0.000 OA
ATOM     31  O   UNL     1      16.844  -8.416   0.000  0.00  0.00    +0.000 OA
BRANCH  29  32
ATOM     32  O   UNL     1      15.194  -8.416   0.000  0.00  0.00    +0.000 OA
BRANCH  32  33
ATOM     33  C   UNL     1      14.026  -8.161   0.000  0.00  0.00    +0.000 C 
BRANCH  33  36
ATOM     34  C   UNL     1      12.169  -9.199   0.000  0.00  0.00    +0.000 C 
ATOM     35  C   UNL     1      12.994  -9.199   0.000  0.00  0.00    +0.000 C 
ATOM     36  C   UNL     1      13.249  -8.414   0.000  0.00  0.00    +0.000 C 
ATOM     37  O   UNL     1      12.581  -7.929   0.000  0.00  0.00    +0.000 OA
ATOM     38  C   UNL     1      11.914  -8.414   0.000  0.00  0.00    +0.000 C 
ATOM     39  O   UNL     1      11.684  -9.866   0.000  0.00  0.00    +0.000 OA
BRANCH  38  42
ATOM     40  C   UNL     1       9.488  -7.343   0.000  0.00  0.00    +0.000 A 
ATOM     41  C   UNL     1       9.488  -8.168   0.000  0.00  0.00    +0.000 A 
ATOM     42  N   UNL     1      10.916  -8.168   0.000  0.00  0.00    +0.000 N 
ATOM     43  C   UNL     1      10.916  -7.343   0.000  0.00  0.00    +0.000 A 
ATOM     44  N   UNL     1      10.202  -6.930   0.000  0.00  0.00    +0.000 NA
ATOM     45  C   UNL     1       8.773  -6.930   0.000  0.00  0.00    +0.000 A 
ATOM     46  N   UNL     1       8.059  -7.343   0.000  0.00  0.00    +0.000 NA
ATOM     47  C   UNL     1       8.059  -8.168   0.000  0.00  0.00    +0.000 A 
ATOM     48  N   UNL     1       8.773  -8.580   0.000  0.00  0.00    +0.000 NA
ATOM     49  N   UNL     1       8.773  -6.105   0.000  0.00  0.00    +0.000 NA
ENDBRANCH  38  42
BRANCH  35  50
ATOM     50  O   UNL     1      13.479  -9.866   0.000  0.00  0.00    +0.000 OA
BRANCH  50  51
ATOM     51  P   UNL     1      14.304  -9.866   0.000  0.00  0.00    +0.000 P 
ATOM     52  O   UNL     1      14.304  -9.041   0.000  0.00  0.00    +0.000 OA
ATOM     53  O   UNL     1      15.129  -9.866   0.000  0.00  0.00    +0.000 OA
ATOM     54  O   UNL     1      14.304 -10.691   0.000  0.00  0.00    +0.000 OA
ENDBRANCH  50  51
ENDBRANCH  35  50
ENDBRANCH  33  36
ENDBRANCH  32  33
ENDBRANCH  29  32
ENDBRANCH  28  29
ENDBRANCH   1  28
TORSDOF 22
