REMARK  Name = 
REMARK  27 active torsions:
REMARK  status: ('A' for Active; 'I' for Inactive)
REMARK    1  A    between atoms: C_3  and  C_5
REMARK    2  A    between atoms: C_5  and  C_6
REMARK    3  A    between atoms: C_6  and  C_7
REMARK    4  A    between atoms: C_7  and  N_8
REMARK    5  A    between atoms: C_7  and  C_73
REMARK    6  A    between atoms: N_11  and  C_12
REMARK    7  A    between atoms: C_12  and  C_13
REMARK    8  A    between atoms: C_12  and  C_70
REMARK    9  A    between atoms: C_13  and  C_14
REMARK   10  A    between atoms: C_14  and  C_15
REMARK   11  A    between atoms: C_15  and  C_16
REMARK   12  A    between atoms: C_16  and  N_17
REMARK   13  A    between atoms: C_18  and  C_20
REMARK   14  A    between atoms: C_20  and  C_21
REMARK   15  A    between atoms: C_20  and  N_32
REMARK   16  A    between atoms: C_21  and  C_22
REMARK   17  A    between atoms: C_33  and  C_35
REMARK   18  A    between atoms: C_38  and  C_39
REMARK   19  A    between atoms: C_39  and  N_40
REMARK   20  A    between atoms: C_41  and  C_43
REMARK   21  A    between atoms: C_43  and  N_44
REMARK   22  A    between atoms: N_47  and  C_48
REMARK   23  A    between atoms: C_48  and  C_49
REMARK   24  A    between atoms: N_54  and  C_55
REMARK   25  A    between atoms: C_55  and  C_56
REMARK   26  A    between atoms: N_61  and  C_62
REMARK   27  A    between atoms: C_62  and  C_63
REMARK                            x       y       z     vdW  Elec       q    Type
REMARK                         _______ _______ _______ _____ _____    ______ ____
ROOT
ATOM      1 LU   UNL     1       4.856  -5.787   0.000  0.00  0.00    +0.000 Lu
ENDROOT
TORSDOF 0
REMARK  Name = 
REMARK  27 active torsions:
REMARK  status: ('A' for Active; 'I' for Inactive)
REMARK    1  A    between atoms: C_3  and  C_5
REMARK    2  A    between atoms: C_5  and  C_6
REMARK    3  A    between atoms: C_6  and  C_7
REMARK    4  A    between atoms: C_7  and  N_8
REMARK    5  A    between atoms: C_7  and  C_73
REMARK    6  A    between atoms: N_11  and  C_12
REMARK    7  A    between atoms: C_12  and  C_13
REMARK    8  A    between atoms: C_12  and  C_70
REMARK    9  A    between atoms: C_13  and  C_14
REMARK   10  A    between atoms: C_14  and  C_15
REMARK   11  A    between atoms: C_15  and  C_16
REMARK   12  A    between atoms: C_16  and  N_17
REMARK   13  A    between atoms: C_18  and  C_20
REMARK   14  A    between atoms: C_20  and  C_21
REMARK   15  A    between atoms: C_20  and  N_32
REMARK   16  A    between atoms: C_21  and  C_22
REMARK   17  A    between atoms: C_33  and  C_35
REMARK   18  A    between atoms: C_38  and  C_39
REMARK   19  A    between atoms: C_39  and  N_40
REMARK   20  A    between atoms: C_41  and  C_43
REMARK   21  A    between atoms: C_43  and  N_44
REMARK   22  A    between atoms: N_47  and  C_48
REMARK   23  A    between atoms: C_48  and  C_49
REMARK   24  A    between atoms: N_54  and  C_55
REMARK   25  A    between atoms: C_55  and  C_56
REMARK   26  A    between atoms: N_61  and  C_62
REMARK   27  A    between atoms: C_62  and  C_63
REMARK                            x       y       z     vdW  Elec       q    Type
REMARK                         _______ _______ _______ _____ _____    ______ ____
ROOT
ATOM      1  N   UNK A   1       1.490   1.662   0.000  0.00  0.00    +0.000 NA
ATOM      2  C   UNK A   1       2.205   2.075   0.000  0.00  0.00    +0.000 C 
ATOM      3  O   UNK A   1       2.205   2.900   0.000  0.00  0.00    +0.000 OA
ENDROOT
BRANCH   2   4
ATOM      4  C   UNK A   1       2.919   1.662   0.000  0.00  0.00    +0.000 C 
ATOM      5  C   UNK A   1       3.634   2.075   0.000  0.00  0.00    +0.000 C 
ATOM      6  C   UNK A   1       4.348   1.662   0.000  0.00  0.00    +0.000 C 
ATOM      7  C   UNK A   1       4.348   0.837   0.000  0.00  0.00    +0.000 C 
ATOM      8  C   UNK A   1       3.634   0.425   0.000  0.00  0.00    +0.000 C 
ATOM      9  C   UNK A   1       2.919   0.837   0.000  0.00  0.00    +0.000 C 
BRANCH   7  10
ATOM     10  C   UNK A   1       5.062   0.425   0.000  0.00  0.00    +0.000 C 
BRANCH  10  11
ATOM     11  N   UNK A   1       5.062  -0.400   0.000  0.00  0.00    +0.000 NA
ATOM     12  C   UNK A   1       5.777  -0.813   0.000  0.00  0.00    +0.000 C 
ATOM     13  O   UNK A   1       6.492  -0.400   0.000  0.00  0.00    +0.000 OA
BRANCH  12  14
ATOM     14  C   UNK A   1       5.777  -1.638   0.000  0.00  0.00    +0.000 C 
BRANCH  14  15
ATOM     15  N   UNK A   1       6.492  -2.050   0.000  0.00  0.00    +0.000 NA
ATOM     16  C   UNK A   1       5.908  -2.634   0.000  0.00  0.00    +0.000 C 
ATOM     17  C   UNK A   1       6.122  -3.430   0.000  0.00  0.00    +0.000 C 
ATOM     18  N   UNK A   1       6.918  -3.644   0.000  0.00  0.00    +0.000 NA
ATOM     19  C   UNK A   1       7.502  -4.227   0.000  0.00  0.00    +0.000 C 
ATOM     20  C   UNK A   1       8.299  -4.014   0.000  0.00  0.00    +0.000 C 
ATOM     21  N   UNK A   1       8.512  -3.217   0.000  0.00  0.00    +0.000 NA
ATOM     22  C   UNK A   1       9.096  -2.634   0.000  0.00  0.00    +0.000 C 
ATOM     23  C   UNK A   1       8.882  -1.837   0.000  0.00  0.00    +0.000 C 
ATOM     24  N   UNK A   1       8.085  -1.623   0.000  0.00  0.00    +0.000 NA
ATOM     25  C   UNK A   1       7.502  -1.040   0.000  0.00  0.00    +0.000 C 
ATOM     26  C   UNK A   1       6.705  -1.253   0.000  0.00  0.00    +0.000 C 
BRANCH  18  27
ATOM     27  C   UNK A   1       6.506  -4.358   0.000  0.00  0.00    +0.000 C 
BRANCH  27  28
ATOM     28  C   UNK A   1       5.681  -4.358   0.000  0.00  0.00    +0.000 C 
ATOM     29  O   UNK A   1       5.269  -3.644   0.000  0.00  0.00    +0.000 OA
ATOM     30  O   UNK A   1       5.269  -5.073   0.000  0.00  0.00    +0.000 OA
ENDBRANCH  27  28
ENDBRANCH  18  27
BRANCH  21  31
ATOM     31  C   UNK A   1       9.227  -3.629   0.000  0.00  0.00    +0.000 C 
BRANCH  31  32
ATOM     32  C   UNK A   1       9.227  -4.454   0.000  0.00  0.00    +0.000 C 
ATOM     33  O   UNK A   1       9.941  -4.867   0.000  0.00  0.00    +0.000 OA
ATOM     34  O   UNK A   1       8.512  -4.867   0.000  0.00  0.00    +0.000 OA
ENDBRANCH  31  32
ENDBRANCH  21  31
BRANCH  24  35
ATOM     35  C   UNK A   1       8.498  -0.909   0.000  0.00  0.00    +0.000 C 
BRANCH  35  36
ATOM     36  C   UNK A   1       9.323  -0.909   0.000  0.00  0.00    +0.000 C 
ATOM     37  O   UNK A   1       9.735  -0.194   0.000  0.00  0.00    +0.000 OA
ATOM     38  O   UNK A   1       9.735  -1.623   0.000  0.00  0.00    +0.000 OA
ENDBRANCH  35  36
ENDBRANCH  24  35
ENDBRANCH  14  15
ENDBRANCH  12  14
ENDBRANCH  10  11
ENDBRANCH   7  10
ENDBRANCH   2   4
BRANCH   1  39
ATOM     39  C   UNK A   1       0.776   2.075   0.000  0.00  0.00    +0.000 C 
BRANCH  39  41
ATOM     40  N   UNK A   1      -0.653   2.075   0.000  0.00  0.00    +0.000 NA
ATOM     41  C   UNK A   1       0.061   1.662   0.000  0.00  0.00    +0.000 C 
ATOM     42  O   UNK A   1       0.061   0.837   0.000  0.00  0.00    +0.000 OA
BRANCH  40  43
ATOM     43  C   UNK A   1      -1.368   1.662   0.000  0.00  0.00    +0.000 C 
BRANCH  43  44
ATOM     44  C   UNK A   1      -2.082   2.075   0.000  0.00  0.00    +0.000 C 
BRANCH  44  45
ATOM     45  C   UNK A   1      -2.796   1.662   0.000  0.00  0.00    +0.000 C 
BRANCH  45  46
ATOM     46  C   UNK A   1      -3.511   2.075   0.000  0.00  0.00    +0.000 C 
BRANCH  46  47
ATOM     47  C   UNK A   1      -4.226   1.662   0.000  0.00  0.00    +0.000 C 
BRANCH  47  51
ATOM     48  N   UNK A   1      -6.369   2.075   0.000  0.00  0.00    +0.000 NA
ATOM     49  C   UNK A   0      -5.654   1.662   0.000  0.00  0.00    +0.000 C 
ATOM     50  O   UNK A   0      -5.654   0.837   0.000  0.00  0.00    +0.000 OA
ATOM     51  N   UNK A   1      -4.940   2.075   0.000  0.00  0.00    +0.000 NA
BRANCH  48  52
ATOM     52  C   UNK A   1      -7.083   1.662   0.000  0.00  0.00    +0.000 C 
BRANCH  52  53
ATOM     53  C   UNK A   1      -7.083   0.837   0.000  0.00  0.00    +0.000 C 
ATOM     54  O   UNK A   1      -6.369   0.425   0.000  0.00  0.00    +0.000 OA
ATOM     55  O   UNK A   1      -7.798   0.425   0.000  0.00  0.00    +0.000 OA
ENDBRANCH  52  53
BRANCH  52  56
ATOM     56  C   UNK A   1      -7.798   2.075   0.000  0.00  0.00    +0.000 C 
BRANCH  56  57
ATOM     57  C   UNK A   1      -8.512   1.662   0.000  0.00  0.00    +0.000 C 
BRANCH  57  59
ATOM     58  O   UNK A   1      -9.941   1.662   0.000  0.00  0.00    +0.000 OA
ATOM     59  C   UNK A   1      -9.227   2.075   0.000  0.00  0.00    +0.000 C 
ATOM     60  O   UNK A   1      -9.227   2.900   0.000  0.00  0.00    +0.000 OA
ENDBRANCH  57  59
ENDBRANCH  56  57
ENDBRANCH  52  56
ENDBRANCH  48  52
ENDBRANCH  47  51
BRANCH  47  61
ATOM     61  C   UNK A   1      -4.226   0.837   0.000  0.00  0.00    +0.000 C 
ATOM     62  O   UNK A   1      -4.940   0.425   0.000  0.00  0.00    +0.000 OA
ATOM     63  O   UNK A   1      -3.511   0.425   0.000  0.00  0.00    +0.000 OA
ENDBRANCH  47  61
ENDBRANCH  46  47
ENDBRANCH  45  46
ENDBRANCH  44  45
ENDBRANCH  43  44
ENDBRANCH  40  43
ENDBRANCH  39  41
BRANCH  39  64
ATOM     64  C   UNK A   1       0.776   2.900   0.000  0.00  0.00    +0.000 C 
BRANCH  64  65
ATOM     65  C   UNK A   1       0.061   3.312   0.000  0.00  0.00    +0.000 A 
ATOM     66  C   UNK A   1      -0.653   2.900   0.000  0.00  0.00    +0.000 A 
ATOM     67  C   UNK A   1      -1.368   3.312   0.000  0.00  0.00    +0.000 A 
ATOM     68  C   UNK A   1      -1.368   4.137   0.000  0.00  0.00    +0.000 A 
ATOM     69  C   UNK A   1      -2.082   4.550   0.000  0.00  0.00    +0.000 A 
ATOM     70  C   UNK A   1      -2.082   5.375   0.000  0.00  0.00    +0.000 A 
ATOM     71  C   UNK A   1      -1.368   5.787   0.000  0.00  0.00    +0.000 A 
ATOM     72  C   UNK A   1      -0.653   5.375   0.000  0.00  0.00    +0.000 A 
ATOM     73  C   UNK A   1      -0.653   4.550   0.000  0.00  0.00    +0.000 A 
ATOM     74  C   UNK A   1       0.061   4.137   0.000  0.00  0.00    +0.000 A 
ENDBRANCH  64  65
ENDBRANCH  39  64
ENDBRANCH   1  39
TORSDOF 27
