REMARK  Name = 
REMARK  16 active torsions:
REMARK  status: ('A' for Active; 'I' for Inactive)
REMARK    1  A    between atoms: S_1  and  C_12
REMARK    2  A    between atoms: S_1  and  C_14
REMARK    3  A    between atoms: O_5  and  C_29
REMARK    4  A    between atoms: O_5  and  C_37
REMARK    5  A    between atoms: N_7  and  C_9
REMARK    6  A    between atoms: N_8  and  C_16
REMARK    7  A    between atoms: C_9  and  C_10
REMARK    8  A    between atoms: C_9  and  C_11
REMARK    9  A    between atoms: C_10  and  C_12
REMARK   10  A    between atoms: C_11  and  C_13
REMARK   11  A    between atoms: C_13  and  C_17
REMARK   12  A    between atoms: C_14  and  C_19
REMARK   13  A    between atoms: C_15  and  C_16
REMARK   14  A    between atoms: C_16  and  C_18
REMARK   15  A    between atoms: C_18  and  C_22
REMARK   16  A    between atoms: C_37  and  C_38
REMARK                            x       y       z     vdW  Elec       q    Type
REMARK                         _______ _______ _______ _____ _____    ______ ____
ROOT
ATOM      1  O   UNL     1       0.000   0.619   0.000  0.00  0.00    +0.000 OA
ATOM      2  N   UNL     1      -1.429   0.619   0.000  0.00  0.00    +0.000 N 
ATOM      3  C   UNL     1      -0.715   1.031   0.000  0.00  0.00    +0.000 C 
ATOM      4  H   UNL     1      -1.872   0.875   0.000  0.00  0.00    +0.000 HD
ENDROOT
BRANCH   3   5
ATOM      5  C   UNL     1      -0.715   1.856   0.000  0.00  0.00    +0.000 C 
BRANCH   5   7
ATOM      6  O   UNL     1       0.715   1.031   0.000  0.00  0.00    +0.000 OA
ATOM      7  N   UNL     1       0.000   2.269   0.000  0.00  0.00    +0.000 N 
ATOM      8  C   UNL     1       0.715   1.856   0.000  0.00  0.00    +0.000 C 
ATOM      9  H   UNL     1       0.000   2.780   0.000  0.00  0.00    +0.000 HD
BRANCH   8  10
ATOM     10  O   UNL     1       1.429   2.269   0.000  0.00  0.00    +0.000 OA
BRANCH  10  11
ATOM     11  C   UNL     1       2.143   1.856   0.000  0.00  0.00    +0.000 C 
BRANCH  11  12
ATOM     12  C   UNL     1       2.858   2.269   0.000  0.00  0.00    +0.000 A 
ATOM     13  C   UNL     1       3.572   1.856   0.000  0.00  0.00    +0.000 A 
ATOM     14  C   UNL     1       2.858   3.094   0.000  0.00  0.00    +0.000 A 
ATOM     15  C   UNL     1       4.287   2.269   0.000  0.00  0.00    +0.000 A 
ATOM     16  C   UNL     1       3.572   3.506   0.000  0.00  0.00    +0.000 A 
ATOM     17  C   UNL     1       4.287   3.094   0.000  0.00  0.00    +0.000 A 
ENDBRANCH  11  12
ENDBRANCH  10  11
ENDBRANCH   8  10
ENDBRANCH   5   7
BRANCH   5  18
ATOM     18  C   UNL     1      -1.429   2.269   0.000  0.00  0.00    +0.000 C 
BRANCH  18  19
ATOM     19  C   UNL     1      -1.429   3.094   0.000  0.00  0.00    +0.000 A 
ATOM     20  C   UNL     1      -2.143   3.506   0.000  0.00  0.00    +0.000 A 
ATOM     21  C   UNL     1      -0.715   3.506   0.000  0.00  0.00    +0.000 A 
ATOM     22  C   UNL     1      -2.143   4.331   0.000  0.00  0.00    +0.000 A 
ATOM     23  C   UNL     1      -0.715   4.331   0.000  0.00  0.00    +0.000 A 
ATOM     24  C   UNL     1      -1.429   4.744   0.000  0.00  0.00    +0.000 A 
ENDBRANCH  18  19
ENDBRANCH   5  18
ENDBRANCH   3   5
BRANCH   2  25
ATOM     25  C   UNL     1      -1.429  -0.206   0.000  0.00  0.00    +0.000 C 
BRANCH  25  26
ATOM     26  C   UNL     1      -0.715  -0.619   0.000  0.00  0.00    +0.000 C 
BRANCH  26  27
ATOM     27  C   UNL     1       0.000  -0.206   0.000  0.00  0.00    +0.000 C 
BRANCH  27  28
ATOM     28  C   UNL     1       0.715  -0.619   0.000  0.00  0.00    +0.000 A 
ATOM     29  C   UNL     1       1.429  -0.206   0.000  0.00  0.00    +0.000 A 
ATOM     30  C   UNL     1       0.715  -1.444   0.000  0.00  0.00    +0.000 A 
ATOM     31  C   UNL     1       2.143  -0.619   0.000  0.00  0.00    +0.000 A 
ATOM     32  C   UNL     1       1.429  -1.856   0.000  0.00  0.00    +0.000 A 
ATOM     33  C   UNL     1       2.143  -1.444   0.000  0.00  0.00    +0.000 A 
ENDBRANCH  27  28
ENDBRANCH  26  27
ENDBRANCH  25  26
BRANCH  25  34
ATOM     34  C   UNL     1      -2.143  -0.619   0.000  0.00  0.00    +0.000 C 
BRANCH  34  35
ATOM     35  C   UNL     1      -2.143  -1.444   0.000  0.00  0.00    +0.000 C 
BRANCH  35  36
ATOM     36  S   UNL     1      -2.858  -1.856   0.000  0.00  0.00    +0.000 S 
ATOM     37  O   UNL     1      -3.270  -1.142   0.000  0.00  0.00    +0.000 OA
ATOM     38  O   UNL     1      -2.445  -2.571   0.000  0.00  0.00    +0.000 OA
BRANCH  36  39
ATOM     39  C   UNL     1      -3.572  -2.269   0.000  0.00  0.00    +0.000 C 
BRANCH  39  40
ATOM     40  C   UNL     1      -3.572  -3.094   0.000  0.00  0.00    +0.000 A 
ATOM     41  C   UNL     1      -2.858  -3.506   0.000  0.00  0.00    +0.000 A 
ATOM     42  C   UNL     1      -4.287  -3.506   0.000  0.00  0.00    +0.000 A 
ATOM     43  C   UNL     1      -2.858  -4.331   0.000  0.00  0.00    +0.000 A 
ATOM     44  C   UNL     1      -4.287  -4.331   0.000  0.00  0.00    +0.000 A 
ATOM     45  C   UNL     1      -3.572  -4.744   0.000  0.00  0.00    +0.000 A 
ENDBRANCH  39  40
ENDBRANCH  36  39
ENDBRANCH  35  36
ENDBRANCH  34  35
ENDBRANCH  25  34
ENDBRANCH   2  25
TORSDOF 16
