REMARK  Name = 
REMARK  11 active torsions:
REMARK  status: ('A' for Active; 'I' for Inactive)
REMARK    1  A    between atoms: N_10  and  C_16
REMARK    2  A    between atoms: N_11  and  C_26
REMARK    3  A    between atoms: N_12  and  C_29
REMARK    4  A    between atoms: C_15  and  C_20
REMARK    5  A    between atoms: C_21  and  C_22
REMARK    6  A    between atoms: C_22  and  C_23
REMARK    7  A    between atoms: C_23  and  C_24
REMARK    8  A    between atoms: C_24  and  C_25
REMARK    9  A    between atoms: C_25  and  C_26
REMARK   10  A    between atoms: C_26  and  C_27
REMARK   11  A    between atoms: C_28  and  C_29
REMARK                            x       y       z     vdW  Elec       q    Type
REMARK                         _______ _______ _______ _____ _____    ______ ____
ROOT
ATOM      1  O   UNK A   0       0.942  -0.725   0.000  0.00  0.00    +0.000 OA
ATOM      2  N   UNK A   1       1.954   0.283   0.000  0.00  0.00    +0.000 N 
ATOM      3  C   UNK A   0       1.157   0.071   0.000  0.00  0.00    +0.000 C 
ATOM      4  H   UNK A   1       2.088   0.777   0.000  0.00  0.00    +0.000 HD
ENDROOT
BRANCH   2  11
ATOM      5  S   UNK A   1       4.153  -0.050   0.000  0.00  0.00    +0.000 S 
ATOM      6  O   UNK A   1       1.954  -1.718   0.000  0.00  0.00    +0.000 OA
ATOM      7  N   UNK A   1       3.368  -1.130   0.000  0.00  0.00    +0.000 N 
ATOM      8  C   UNK A   1       3.368  -0.305   0.000  0.00  0.00    +0.000 C 
ATOM      9  C   UNK A   1       4.638  -0.717   0.000  0.00  0.00    +0.000 C 
ATOM     10  C   UNK A   1       4.153  -1.385   0.000  0.00  0.00    +0.000 C 
ATOM     11  C   UNK A   1       2.537  -0.301   0.000  0.00  0.00    +0.000 C 
ATOM     12  C   UNK A   1       2.537  -1.133   0.000  0.00  0.00    +0.000 C 
ATOM     13  C   UNK A   1       5.305  -1.202   0.000  0.00  0.00    +0.000 C 
ATOM     14  C   UNK A   1       5.305  -0.232   0.000  0.00  0.00    +0.000 C 
BRANCH  10  17
ATOM     15  O   UNK A   2       3.856  -2.782   0.000  0.00  0.00    +0.000 OA
ATOM     16  O   UNK A   2       5.215  -2.341   0.000  0.00  0.00    +0.000 OA
ATOM     17  C   UNK A   1       4.408  -2.169   0.000  0.00  0.00    +0.000 C 
ENDBRANCH  10  17
ENDBRANCH   2  11
BRANCH   3  18
ATOM     18  C   UNK A   0       0.575   0.656   0.000  0.00  0.00    +0.000 C 
BRANCH  18  19
ATOM     19  C   UNK A   0      -0.222   0.444   0.000  0.00  0.00    +0.000 C 
BRANCH  19  20
ATOM     20  C   UNK A   0      -0.804   1.028   0.000  0.00  0.00    +0.000 C 
BRANCH  20  21
ATOM     21  C   UNK A   0      -1.602   0.817   0.000  0.00  0.00    +0.000 C 
BRANCH  21  22
ATOM     22  C   UNK A   0      -2.184   1.401   0.000  0.00  0.00    +0.000 C 
BRANCH  22  24
ATOM     23  O   UNK A   1      -3.348   2.570   0.000  0.00  0.00    +0.000 OA
ATOM     24  N   UNK A   2      -2.981   1.189   0.000  0.00  0.00    +0.000 N 
ATOM     25  C   UNK A   1      -3.563   1.774   0.000  0.00  0.00    +0.000 C 
ATOM     26  H   UNK A   2      -3.115   0.696   0.000  0.00  0.00    +0.000 HD
BRANCH  25  27
ATOM     27  C   UNK A   1      -4.361   1.562   0.000  0.00  0.00    +0.000 C 
BRANCH  27  28
ATOM     28  N   UNK A   1      -4.943   2.147   0.000  0.00  0.00    +0.000 N 
ATOM     29  H   UNK A   1      -4.580   2.507   0.000  0.00  0.00    +0.000 HD
ATOM     30  H   UNK A   1      -5.305   1.786   0.000  0.00  0.00    +0.000 HD
ATOM     31  H   UNK A   1      -5.304   2.509   0.000  0.00  0.00    +0.000 HD
ENDBRANCH  27  28
ENDBRANCH  25  27
ENDBRANCH  22  24
BRANCH  22  34
ATOM     32  O   UNK A   2      -2.551   2.782   0.000  0.00  0.00    +0.000 OA
ATOM     33  O   UNK A   2      -1.171   2.410   0.000  0.00  0.00    +0.000 OA
ATOM     34  C   UNK A   0      -1.969   2.198   0.000  0.00  0.00    +0.000 C 
ENDBRANCH  22  34
ENDBRANCH  21  22
ENDBRANCH  20  21
ENDBRANCH  19  20
ENDBRANCH  18  19
ENDBRANCH   3  18
TORSDOF 11
