REMARK  Name = 
REMARK  10 active torsions:
REMARK  status: ('A' for Active; 'I' for Inactive)
REMARK    1  A    between atoms: C_4  and  C_22
REMARK    2  A    between atoms: C_6  and  S_7
REMARK    3  A    between atoms: S_7  and  C_8
REMARK    4  A    between atoms: C_8  and  C_15
REMARK    5  A    between atoms: N_9  and  O_10
REMARK    6  A    between atoms: O_10  and  S_11
REMARK    7  A    between atoms: C_15  and  C_16
REMARK    8  A    between atoms: C_16  and  C_17
REMARK    9  A    between atoms: C_17  and  C_18
REMARK   10  A    between atoms: C_18  and  S_19
REMARK                            x       y       z     vdW  Elec       q    Type
REMARK                         _______ _______ _______ _____ _____    ______ ____
ROOT
ATOM      1  C   UNL     1       0.108  -0.121   0.000  0.00  0.00    +0.000 C 
ATOM      2  N   UNL     1      -0.779  -0.601   0.000  0.00  0.00    +0.000 NA
ENDROOT
BRANCH   2   3
ATOM      3  O   UNL     1      -1.190   0.048   0.000  0.00  0.00    +0.000 OA
BRANCH   3   4
ATOM      4  S   UNL     1      -2.015   0.048   0.000  0.00  0.00    +0.000 S 
ATOM      5  O   UNL     1      -2.230   0.847   0.000  0.00  0.00    +0.000 OA
ATOM      6  O   UNL     1      -2.015  -0.777   0.000  0.00  0.00    +0.000 OA
ATOM      7  O   UNL     1      -2.840   0.048   0.000  0.00  0.00    +0.000 OA
ENDBRANCH   3   4
ENDBRANCH   2   3
BRANCH   1   8
ATOM      8  S   UNL     1       0.823  -0.531   0.000  0.00  0.00    +0.000 S 
BRANCH   8  14
ATOM      9  C   UNL     1       0.108  -1.771   0.000  0.00  0.00    +0.000 C 
ATOM     10  C   UNL     1       0.108  -2.601   0.000  0.00  0.00    +0.000 C 
ATOM     11  C   UNL     1       0.823  -3.011   0.000  0.00  0.00    +0.000 C 
ATOM     12  C   UNL     1       1.542  -2.601   0.000  0.00  0.00    +0.000 C 
ATOM     13  O   UNL     1       1.542  -1.771   0.000  0.00  0.00    +0.000 OA
ATOM     14  C   UNL     1       0.823  -1.361   0.000  0.00  0.00    +0.000 C 
ATOM     15  O   UNL     1       0.823  -3.837   0.000  0.00  0.00    +0.000 OA
ATOM     16  O   UNL     1      -0.606  -3.011   0.000  0.00  0.00    +0.000 OA
ATOM     17  O   UNL     1      -0.606  -1.361   0.000  0.00  0.00    +0.000 OA
BRANCH  12  18
ATOM     18  C   UNL     1       2.122  -3.181   0.000  0.00  0.00    +0.000 C 
ATOM     19  O   UNL     1       2.840  -2.771   0.000  0.00  0.00    +0.000 OA
ENDBRANCH  12  18
ENDBRANCH   8  14
ENDBRANCH   1   8
BRANCH   1  20
ATOM     20  C   UNL     1       0.108   0.704   0.000  0.00  0.00    +0.000 C 
BRANCH  20  21
ATOM     21  C   UNL     1      -0.606   1.119   0.000  0.00  0.00    +0.000 C 
BRANCH  21  22
ATOM     22  C   UNL     1      -0.606   1.944   0.000  0.00  0.00    +0.000 C 
BRANCH  22  23
ATOM     23  C   UNL     1      -1.320   2.354   0.000  0.00  0.00    +0.000 C 
BRANCH  23  24
ATOM     24  S   UNL     1      -1.320   3.179   0.000  0.00  0.00    +0.000 S 
ATOM     25  C   UNL     1      -2.119   3.393   0.000  0.00  0.00    +0.000 C 
ATOM     26  O   UNL     1      -0.363   3.837   0.000  0.00  0.00    +0.000 OA
ENDBRANCH  23  24
ENDBRANCH  22  23
ENDBRANCH  21  22
ENDBRANCH  20  21
ENDBRANCH   1  20
TORSDOF 10
