REMARK  Name = 
REMARK  22 active torsions:
REMARK  status: ('A' for Active; 'I' for Inactive)
REMARK    1  A    between atoms: C_2  and  C_4
REMARK    2  A    between atoms: C_4  and  O_5
REMARK    3  A    between atoms: O_5  and  C_6
REMARK    4  A    between atoms: C_6  and  C_8
REMARK    5  A    between atoms: C_8  and  C_9
REMARK    6  A    between atoms: C_8  and  N_16
REMARK    7  A    between atoms: C_9  and  C_10
REMARK    8  A    between atoms: N_16  and  P_17
REMARK    9  A    between atoms: P_17  and  C_19
REMARK   10  A    between atoms: P_17  and  N_37
REMARK   11  A    between atoms: C_19  and  O_20
REMARK   12  A    between atoms: O_20  and  C_21
REMARK   13  A    between atoms: C_21  and  C_22
REMARK   14  A    between atoms: C_22  and  N_23
REMARK   15  A    between atoms: N_33  and  C_34
REMARK   16  A    between atoms: N_37  and  C_38
REMARK   17  A    between atoms: C_38  and  C_39
REMARK   18  A    between atoms: C_38  and  C_46
REMARK   19  A    between atoms: C_39  and  C_40
REMARK   20  A    between atoms: C_46  and  O_48
REMARK   21  A    between atoms: O_48  and  C_49
REMARK   22  A    between atoms: C_49  and  C_50
REMARK                            x       y       z     vdW  Elec       q    Type
REMARK                         _______ _______ _______ _____ _____    ______ ____
ROOT
ATOM      1  P   UNL     1      -2.522   2.666   0.000  0.00  0.00    +0.000 P 
ATOM      2  O   UNL     1      -1.738   2.921   0.000  0.00  0.00    +0.000 OA
ENDROOT
BRANCH   1   3
ATOM      3  C   UNL     1      -2.267   1.882   0.000  0.00  0.00    +0.000 C 
BRANCH   3   4
ATOM      4  O   UNL     1      -1.460   1.710   0.000  0.00  0.00    +0.000 OA
BRANCH   4   5
ATOM      5  C   UNL     1      -1.205   0.926   0.000  0.00  0.00    +0.000 C 
BRANCH   5   6
ATOM      6  C   UNL     1      -0.398   0.754   0.000  0.00  0.00    +0.000 C 
BRANCH   6   7
ATOM      7  N   UNL     1      -0.143  -0.030   0.000  0.00  0.00    +0.000 N 
ATOM      8  C   UNL     1      -0.628  -0.698   0.000  0.00  0.00    +0.000 A 
ATOM      9  N   UNL     1      -0.143  -1.365   0.000  0.00  0.00    +0.000 NA
ATOM     10  C   UNL     1       0.641  -1.110   0.000  0.00  0.00    +0.000 A 
ATOM     11  C   UNL     1       0.641  -0.285   0.000  0.00  0.00    +0.000 A 
ATOM     12  N   UNL     1       1.356   0.127   0.000  0.00  0.00    +0.000 NA
ATOM     13  C   UNL     1       2.070  -0.285   0.000  0.00  0.00    +0.000 A 
ATOM     14  N   UNL     1       2.784   0.127   0.000  0.00  0.00    +0.000 NA
ATOM     15  N   UNL     1       2.070  -1.110   0.000  0.00  0.00    +0.000 NA
ATOM     16  C   UNL     1       1.356  -1.523   0.000  0.00  0.00    +0.000 A 
ATOM     17  N   UNL     1       1.356  -2.348   0.000  0.00  0.00    +0.000 NA
BRANCH  17  18
ATOM     18  C   UNL     1       2.070  -2.760   0.000  0.00  0.00    +0.000 C 
ATOM     19  C   UNL     1       2.895  -2.760   0.000  0.00  0.00    +0.000 C 
ATOM     20  C   UNL     1       2.483  -3.475   0.000  0.00  0.00    +0.000 C 
ENDBRANCH  17  18
ENDBRANCH   6   7
ENDBRANCH   5   6
ENDBRANCH   4   5
ENDBRANCH   3   4
ENDBRANCH   1   3
BRANCH   1  21
ATOM     21  N   UNL     1      -3.307   2.412   0.000  0.00  0.00    +0.000 NA
BRANCH  21  22
ATOM     22  C   UNL     1      -3.478   1.605   0.000  0.00  0.00    +0.000 C 
BRANCH  22  23
ATOM     23  C   UNL     1      -4.263   1.350   0.000  0.00  0.00    +0.000 C 
ATOM     24  O   UNL     1      -4.876   1.902   0.000  0.00  0.00    +0.000 OA
BRANCH  23  25
ATOM     25  O   UNL     1      -4.435   0.543   0.000  0.00  0.00    +0.000 OA
BRANCH  25  26
ATOM     26  C   UNL     1      -5.219   0.288   0.000  0.00  0.00    +0.000 C 
BRANCH  26  28
ATOM     27  C   UNL     1      -6.175  -0.774   0.000  0.00  0.00    +0.000 C 
ATOM     28  C   UNL     1      -5.391  -0.519   0.000  0.00  0.00    +0.000 C 
ATOM     29  C   UNL     1      -4.778  -1.071   0.000  0.00  0.00    +0.000 C 
ENDBRANCH  26  28
ENDBRANCH  25  26
ENDBRANCH  23  25
ENDBRANCH  22  23
BRANCH  22  30
ATOM     30  C   UNL     1      -2.865   1.052   0.000  0.00  0.00    +0.000 C 
BRANCH  30  31
ATOM     31  C   UNL     1      -3.037   0.245   0.000  0.00  0.00    +0.000 A 
ATOM     32  C   UNL     1      -2.424  -0.306   0.000  0.00  0.00    +0.000 A 
ATOM     33  C   UNL     1      -2.595  -1.113   0.000  0.00  0.00    +0.000 A 
ATOM     34  C   UNL     1      -3.380  -1.368   0.000  0.00  0.00    +0.000 A 
ATOM     35  C   UNL     1      -3.993  -0.816   0.000  0.00  0.00    +0.000 A 
ATOM     36  C   UNL     1      -3.821  -0.009   0.000  0.00  0.00    +0.000 A 
ENDBRANCH  30  31
ENDBRANCH  22  30
ENDBRANCH  21  22
ENDBRANCH   1  21
BRANCH   1  37
ATOM     37  N   UNL     1      -2.777   3.451   0.000  0.00  0.00    +0.000 NA
BRANCH  37  38
ATOM     38  C   UNL     1      -2.225   4.064   0.000  0.00  0.00    +0.000 C 
BRANCH  38  39
ATOM     39  C   UNL     1      -2.480   4.849   0.000  0.00  0.00    +0.000 C 
ATOM     40  O   UNL     1      -1.928   5.462   0.000  0.00  0.00    +0.000 OA
BRANCH  39  41
ATOM     41  O   UNL     1      -3.287   5.020   0.000  0.00  0.00    +0.000 OA
BRANCH  41  42
ATOM     42  C   UNL     1      -3.542   5.805   0.000  0.00  0.00    +0.000 C 
BRANCH  42  43
ATOM     43  C   UNL     1      -4.349   5.976   0.000  0.00  0.00    +0.000 C 
ATOM     44  C   UNL     1      -4.901   5.363   0.000  0.00  0.00    +0.000 C 
ATOM     45  C   UNL     1      -4.604   6.761   0.000  0.00  0.00    +0.000 C 
ENDBRANCH  42  43
ENDBRANCH  41  42
ENDBRANCH  39  41
ENDBRANCH  38  39
BRANCH  38  46
ATOM     46  C   UNL     1      -1.418   3.893   0.000  0.00  0.00    +0.000 C 
BRANCH  46  47
ATOM     47  C   UNL     1      -0.866   4.506   0.000  0.00  0.00    +0.000 A 
ATOM     48  C   UNL     1      -1.121   5.290   0.000  0.00  0.00    +0.000 A 
ATOM     49  C   UNL     1      -0.569   5.903   0.000  0.00  0.00    +0.000 A 
ATOM     50  C   UNL     1       0.238   5.732   0.000  0.00  0.00    +0.000 A 
ATOM     51  C   UNL     1       0.493   4.947   0.000  0.00  0.00    +0.000 A 
ATOM     52  C   UNL     1      -0.059   4.334   0.000  0.00  0.00    +0.000 A 
ENDBRANCH  46  47
ENDBRANCH  38  46
ENDBRANCH  37  38
ENDBRANCH   1  37
TORSDOF 22
