REMARK  Name = 
REMARK  5 active torsions:
REMARK  status: ('A' for Active; 'I' for Inactive)
REMARK    1  A    between atoms: C_11  and  C_14
REMARK    2  A    between atoms: C_14  and  C_15
REMARK    3  A    between atoms: C_15  and  N_16
REMARK    4  A    between atoms: N_21  and  C_22
REMARK    5  A    between atoms: C_25  and  C_28
REMARK                            x       y       z     vdW  Elec       q    Type
REMARK                         _______ _______ _______ _____ _____    ______ ____
ROOT
ATOM      1  N   UNL     1      -0.151  -0.163   0.000  0.00  0.00    +0.000 NA
ATOM      2  C   UNL     1       0.569   0.256   0.000  0.00  0.00    +0.000 C 
ATOM      3  C   UNL     1      -0.151  -0.988   0.000  0.00  0.00    +0.000 C 
ATOM      4  C   UNL     1       1.278  -0.163   0.000  0.00  0.00    +0.000 C 
ATOM      5  C   UNL     1       0.569  -1.394   0.000  0.00  0.00    +0.000 C 
ATOM      6  N   UNL     1       1.278  -0.988   0.000  0.00  0.00    +0.000 N 
ENDROOT
BRANCH   6   7
ATOM      7  C   UNL     1       1.998  -1.394   0.000  0.00  0.00    +0.000 A 
ATOM      8  C   UNL     1       2.707  -0.988   0.000  0.00  0.00    +0.000 A 
ATOM      9  C   UNL     1       1.998  -2.219   0.000  0.00  0.00    +0.000 A 
ATOM     10  C   UNL     1       3.428  -1.394   0.000  0.00  0.00    +0.000 A 
ATOM     11  C   UNL     1       2.707  -2.638   0.000  0.00  0.00    +0.000 A 
ATOM     12  C   UNL     1       3.428  -2.219   0.000  0.00  0.00    +0.000 A 
BRANCH  10  13
ATOM     13  C   UNL     1       4.137  -0.988   0.000  0.00  0.00    +0.000 C 
ATOM     14  F   UNL     1       4.555  -1.696   0.000  0.00  0.00    +0.000 F 
ATOM     15  F   UNL     1       4.857  -0.569   0.000  0.00  0.00    +0.000 F 
ATOM     16  F   UNL     1       3.730  -0.267   0.000  0.00  0.00    +0.000 F 
ENDBRANCH  10  13
ENDBRANCH   6   7
BRANCH   1  17
ATOM     17  C   UNL     1      -0.860   0.256   0.000  0.00  0.00    +0.000 C 
BRANCH  17  18
ATOM     18  C   UNL     1      -0.860   1.081   0.000  0.00  0.00    +0.000 C 
BRANCH  18  29
ATOM     19  C   UNL     1      -4.857   1.301   0.000  0.00  0.00    +0.000 C 
ATOM     20  C   UNL     1      -4.381   1.975   0.000  0.00  0.00    +0.000 C 
ATOM     21  C   UNL     1      -4.381   0.639   0.000  0.00  0.00    +0.000 C 
ATOM     22  C   UNL     1      -3.590   1.720   0.000  0.00  0.00    +0.000 C 
ATOM     23  C   UNL     1      -3.590   0.895   0.000  0.00  0.00    +0.000 C 
ATOM     24  C   UNL     1      -2.812   1.975   0.000  0.00  0.00    +0.000 A 
ATOM     25  N   UNL     1      -2.324   1.301   0.000  0.00  0.00    +0.000 N 
ATOM     26  C   UNL     1      -2.812   0.639   0.000  0.00  0.00    +0.000 C 
ATOM     27  N   UNL     1      -2.324   2.638   0.000  0.00  0.00    +0.000 NA
ATOM     28  N   UNL     1      -1.534   2.382   0.000  0.00  0.00    +0.000 NA
ATOM     29  C   UNL     1      -1.534   1.557   0.000  0.00  0.00    +0.000 A 
ENDBRANCH  18  29
ENDBRANCH  17  18
ENDBRANCH   1  17
TORSDOF 5
