REMARK  Name = 
REMARK  7 active torsions:
REMARK  status: ('A' for Active; 'I' for Inactive)
REMARK    1  A    between atoms: O_2  and  C_3
REMARK    2  A    between atoms: C_5  and  C_13
REMARK    3  A    between atoms: C_7  and  O_11
REMARK    4  A    between atoms: C_8  and  O_9
REMARK    5  A    between atoms: C_14  and  C_15
REMARK    6  A    between atoms: N_20  and  C_23
REMARK    7  A    between atoms: C_23  and  C_24
REMARK                            x       y       z     vdW  Elec       q    Type
REMARK                         _______ _______ _______ _____ _____    ______ ____
ROOT
ATOM      1  C   UNL     1      -0.715   9.241   0.000  0.00  0.00    +0.000 C 
ATOM      2  O   UNL     1       0.000   9.654   0.000  0.00  0.00    +0.000 OA
ATOM      3  N   UNL     1      -0.715   8.416   0.000  0.00  0.00    +0.000 N 
ATOM      4  C   UNL     1       0.000   8.004   0.000  0.00  0.00    +0.000 C 
ATOM      5  C   UNL     1       0.000   7.179   0.000  0.00  0.00    +0.000 C 
ATOM      6  N   UNL     1      -0.715   6.766   0.000  0.00  0.00    +0.000 NA
ATOM      7  C   UNL     1      -1.429   7.179   0.000  0.00  0.00    +0.000 C 
ATOM      8  C   UNL     1      -1.429   8.004   0.000  0.00  0.00    +0.000 C 
ENDROOT
BRANCH   1  10
ATOM      9  C   UNL     1      -1.429  10.479   0.000  0.00  0.00    +0.000 C 
ATOM     10  C   UNL     1      -1.429   9.654   0.000  0.00  0.00    +0.000 C 
BRANCH   9  13
ATOM     11  C   UNL     1      -2.858  12.129   0.000  0.00  0.00    +0.000 A 
ATOM     12  C   UNL     1      -2.143  11.716   0.000  0.00  0.00    +0.000 A 
ATOM     13  C   UNL     1      -2.143  10.891   0.000  0.00  0.00    +0.000 A 
ATOM     14  C   UNL     1      -2.858  10.479   0.000  0.00  0.00    +0.000 A 
ATOM     15  C   UNL     1      -3.572  10.891   0.000  0.00  0.00    +0.000 A 
ATOM     16  C   UNL     1      -3.572  11.716   0.000  0.00  0.00    +0.000 A 
BRANCH  15  17
ATOM     17  O   UNL     1      -4.287  10.479   0.000  0.00  0.00    +0.000 OA
ATOM     18  C   UNL     1      -5.001  10.891   0.000  0.00  0.00    +0.000 C 
ENDBRANCH  15  17
BRANCH  11  20
ATOM     19  C   UNL     1      -3.572  13.366   0.000  0.00  0.00    +0.000 C 
ATOM     20  O   UNL     1      -2.858  12.954   0.000  0.00  0.00    +0.000 OA
ENDBRANCH  11  20
BRANCH  16  21
ATOM     21  O   UNL     1      -4.287  12.129   0.000  0.00  0.00    +0.000 OA
ATOM     22  C   UNL     1      -5.001  11.716   0.000  0.00  0.00    +0.000 C 
ENDBRANCH  16  21
ENDBRANCH   9  13
ENDBRANCH   1  10
BRANCH   6  23
ATOM     23  C   UNL     1      -0.715   5.941   0.000  0.00  0.00    +0.000 C 
BRANCH  23  24
ATOM     24  C   UNL     1       0.000   5.529   0.000  0.00  0.00    +0.000 C 
ATOM     25  O   UNL     1       0.715   5.941   0.000  0.00  0.00    +0.000 OA
ATOM     26  N   UNL     1       0.000   4.704   0.000  0.00  0.00    +0.000 N 
ATOM     27  C   UNL     1       0.667   4.219   0.000  0.00  0.00    +0.000 C 
ATOM     28  C   UNL     1       0.412   3.434   0.000  0.00  0.00    +0.000 C 
ATOM     29  C   UNL     1      -0.412   3.434   0.000  0.00  0.00    +0.000 C 
ATOM     30  C   UNL     1      -0.667   4.219   0.000  0.00  0.00    +0.000 C 
ENDBRANCH  23  24
ENDBRANCH   6  23
TORSDOF 7
