REMARK  Name = 
REMARK  0 active torsions:
REMARK  status: ('A' for Active; 'I' for Inactive)
REMARK                            x       y       z     vdW  Elec       q    Type
REMARK                         _______ _______ _______ _____ _____    ______ ____
ROOT
ATOM      1  C   UNL     1      -1.161  -0.208   0.000  0.00  0.00    +0.000 C 
ATOM      2  O   UNL     1      -1.758  -0.637   0.000  0.00  0.00    +0.000 OA
ATOM      3  O   UNL     1      -1.185   0.637   0.000  0.00  0.00    +0.000 OA
ATOM      4  O   UNL     1      -0.443  -0.614   0.000  0.00  0.00    +0.000 OA
ENDROOT
TORSDOF 0
REMARK  Name = 
REMARK  0 active torsions:
REMARK  status: ('A' for Active; 'I' for Inactive)
REMARK                            x       y       z     vdW  Elec       q    Type
REMARK                         _______ _______ _______ _____ _____    ______ ____
ROOT
ATOM      1  N   UNL     1       1.758  -0.503   0.000  0.00  0.00    +0.000 NA
ENDROOT
TORSDOF 0
