REMARK  Name = 
REMARK  0 active torsions:
REMARK  status: ('A' for Active; 'I' for Inactive)
REMARK                            x       y       z     vdW  Elec       q    Type
REMARK                         _______ _______ _______ _____ _____    ______ ____
ROOT
ATOM      1  C   UNL     1       0.184   1.869   0.000  0.00  0.00    +0.000 C 
ATOM      2  C   UNL     1       0.715   1.238   0.000  0.00  0.00    +0.000 C 
ATOM      3  C   UNL     1       1.429   0.825   0.000  0.00  0.00    +0.000 C 
ATOM      4  C   UNL     1       1.429   0.000   0.000  0.00  0.00    +0.000 C 
ATOM      5  C   UNL     1       0.715  -0.412   0.000  0.00  0.00    +0.000 C 
ATOM      6  C   UNL     1       0.000   0.000   0.000  0.00  0.00    +0.000 C 
ATOM      7  N   UNL     1       0.000   0.825   0.000  0.00  0.00    +0.000 NA
ATOM      8  O   UNL     1      -0.715   1.238   0.000  0.00  0.00    +0.000 OA
ATOM      9  C   UNL     1      -0.437  -0.700   0.000  0.00  0.00    +0.000 C 
ATOM     10  C   UNL     1      -0.825  -0.029   0.000  0.00  0.00    +0.000 C 
ATOM     11  O   UNL     1       2.143  -0.412   0.000  0.00  0.00    +0.000 OA
ATOM     12  C   UNL     1       1.245   1.869   0.000  0.00  0.00    +0.000 C 
ENDROOT
TORSDOF 0
