REMARK  Name = 
REMARK  1 active torsions:
REMARK  status: ('A' for Active; 'I' for Inactive)
REMARK    1  A    between atoms: C_2  and  C_3
REMARK                            x       y       z     vdW  Elec       q    Type
REMARK                         _______ _______ _______ _____ _____    ______ ____
ROOT
ATOM      1  O   UNL     1       1.322  -0.062   0.000  0.00  0.00    +0.000 OA
ATOM      2  C   UNL     1       2.037  -0.474   0.000  0.00  0.00    +0.000 C 
ATOM      3  N   UNL     1       2.751  -0.062   0.000  0.00  0.00    +0.000 N 
ATOM      4  C   UNL     1       2.751   0.763   0.000  0.00  0.00    +0.000 C 
ATOM      5  C   UNL     1       3.466   1.176   0.000  0.00  0.00    +0.000 C 
ATOM      6  C   UNL     1       4.180   0.763   0.000  0.00  0.00    +0.000 C 
ATOM      7  C   UNL     1       4.180  -0.062   0.000  0.00  0.00    +0.000 C 
ATOM      8  C   UNL     1       3.466  -0.474   0.000  0.00  0.00    +0.000 C 
ENDROOT
BRANCH   2   9
ATOM      9  C   UNL     1       2.037  -1.299   0.000  0.00  0.00    +0.000 C 
ATOM     10  C   UNL     1       2.704  -1.784   0.000  0.00  0.00    +0.000 C 
ATOM     11  C   UNL     1       2.449  -2.569   0.000  0.00  0.00    +0.000 C 
ATOM     12  C   UNL     1       1.624  -2.569   0.000  0.00  0.00    +0.000 C 
ATOM     13  O   UNL     1       1.139  -3.236   0.000  0.00  0.00    +0.000 OA
ATOM     14  N   UNL     1       1.369  -1.784   0.000  0.00  0.00    +0.000 NA
ENDBRANCH   2   9
TORSDOF 1
