REMARK  Name = 
REMARK  2 active torsions:
REMARK  status: ('A' for Active; 'I' for Inactive)
REMARK    1  A    between atoms: N_7  and  C_12
REMARK    2  A    between atoms: C_11  and  C_13
REMARK                            x       y       z     vdW  Elec       q    Type
REMARK                         _______ _______ _______ _____ _____    ______ ____
ROOT
ATOM      1  O   UNL     1      -0.357   0.619   0.000  0.00  0.00    +0.000 OA
ATOM      2  O   UNL     1      -0.357  -1.856   0.000  0.00  0.00    +0.000 OA
ATOM      3  O   UNL     1      -1.786  -1.031   0.000  0.00  0.00    +0.000 OA
ATOM      4  O   UNL     1       1.072  -1.031   0.000  0.00  0.00    +0.000 OA
ATOM      5  C   UNL     1      -0.357  -1.031   0.000  0.00  0.00    +0.000 C 
ATOM      6  C   UNL     1      -1.072  -0.619   0.000  0.00  0.00    +0.000 C 
ATOM      7  C   UNL     1       0.357  -0.619   0.000  0.00  0.00    +0.000 C 
ATOM      8  C   UNL     1      -1.072   0.206   0.000  0.00  0.00    +0.000 C 
ATOM      9  C   UNL     1       0.357   0.206   0.000  0.00  0.00    +0.000 C 
ENDROOT
BRANCH   9  11
ATOM     10  O   UNL     1       0.357   1.856   0.000  0.00  0.00    +0.000 OA
ATOM     11  N   UNL     1       1.072   0.619   0.000  0.00  0.00    +0.000 N 
ATOM     12  C   UNL     1       1.072   1.444   0.000  0.00  0.00    +0.000 C 
ATOM     13  C   UNL     1       1.786   1.856   0.000  0.00  0.00    +0.000 C 
ATOM     14  H   UNL     1       1.515   0.363   0.000  0.00  0.00    +0.000 HD
ENDBRANCH   9  11
BRANCH   8  16
ATOM     15  O   UNL     1      -1.786   1.444   0.000  0.00  0.00    +0.000 OA
ATOM     16  C   UNL     1      -1.786   0.619   0.000  0.00  0.00    +0.000 C 
ENDBRANCH   8  16
TORSDOF 2
