REMARK  Name = 
REMARK  7 active torsions:
REMARK  status: ('A' for Active; 'I' for Inactive)
REMARK    1  A    between atoms: C_1  and  O_33
REMARK    2  A    between atoms: C_7  and  N_8
REMARK    3  A    between atoms: C_9  and  C_10
REMARK    4  A    between atoms: C_11  and  C_12
REMARK    5  A    between atoms: C_15  and  C_16
REMARK    6  A    between atoms: C_22  and  O_23
REMARK    7  A    between atoms: O_33  and  C_34
REMARK                            x       y       z     vdW  Elec       q    Type
REMARK                         _______ _______ _______ _____ _____    ______ ____
ROOT
ATOM      1  N   UNL     1      -1.789  -1.650   0.000  0.00  0.00    +0.000 NA
ATOM      2  C   UNL     1      -2.497  -1.232   0.000  0.00  0.00    +0.000 C 
ATOM      3  O   UNL     1      -2.497  -0.407   0.000  0.00  0.00    +0.000 OA
ENDROOT
BRANCH   1  10
ATOM      4  C   UNL     1       2.497   0.000   0.000  0.00  0.00    +0.000 C 
ATOM      5  N   UNL     1       1.779  -0.407   0.000  0.00  0.00    +0.000 N 
ATOM      6  C   UNL     1       1.071   0.000   0.000  0.00  0.00    +0.000 C 
ATOM      7  C   UNL     1       0.353  -0.407   0.000  0.00  0.00    +0.000 A 
ATOM      8  C   UNL     1       0.353  -1.232   0.000  0.00  0.00    +0.000 A 
ATOM      9  C   UNL     1      -0.353  -1.650   0.000  0.00  0.00    +0.000 A 
ATOM     10  C   UNL     1      -1.071  -1.232   0.000  0.00  0.00    +0.000 A 
ATOM     11  C   UNL     1      -1.071  -0.407   0.000  0.00  0.00    +0.000 A 
ATOM     12  C   UNL     1      -0.353   0.000   0.000  0.00  0.00    +0.000 A 
ATOM     13  C   UNL     1       1.071  -1.650   0.000  0.00  0.00    +0.000 C 
ATOM     14  C   UNL     1       1.779  -1.232   0.000  0.00  0.00    +0.000 C 
ATOM     15  O   UNL     1       2.497   0.825   0.000  0.00  0.00    +0.000 OA
BRANCH   4  16
ATOM     16  O   UNL     1       3.215  -0.407   0.000  0.00  0.00    +0.000 OA
BRANCH  16  17
ATOM     17  C   UNL     1       3.932   0.000   0.000  0.00  0.00    +0.000 A 
ATOM     18  C   UNL     1       4.639  -0.407   0.000  0.00  0.00    +0.000 A 
ATOM     19  C   UNL     1       5.357   0.000   0.000  0.00  0.00    +0.000 A 
ATOM     20  C   UNL     1       5.357   0.825   0.000  0.00  0.00    +0.000 A 
ATOM     21  C   UNL     1       4.639   1.243   0.000  0.00  0.00    +0.000 A 
ATOM     22  C   UNL     1       3.932   0.825   0.000  0.00  0.00    +0.000 A 
ENDBRANCH  16  17
ENDBRANCH   4  16
ENDBRANCH   1  10
BRANCH   2  23
ATOM     23  C   UNL     1      -3.215  -1.650   0.000  0.00  0.00    +0.000 A 
ATOM     24  C   UNL     1      -3.932  -1.232   0.000  0.00  0.00    +0.000 A 
ATOM     25  C   UNL     1      -4.650  -1.650   0.000  0.00  0.00    +0.000 A 
ATOM     26  C   UNL     1      -4.650  -2.475   0.000  0.00  0.00    +0.000 A 
ATOM     27  C   UNL     1      -3.932  -2.882   0.000  0.00  0.00    +0.000 A 
ATOM     28  C   UNL     1      -3.215  -2.475   0.000  0.00  0.00    +0.000 A 
BRANCH  24  29
ATOM     29  C   UNL     1      -3.932  -0.407   0.000  0.00  0.00    +0.000 A 
ATOM     30  C   UNL     1      -4.650   0.000   0.000  0.00  0.00    +0.000 A 
ATOM     31  C   UNL     1      -4.650   0.825   0.000  0.00  0.00    +0.000 A 
ATOM     32  C   UNL     1      -3.932   1.243   0.000  0.00  0.00    +0.000 A 
ATOM     33  C   UNL     1      -3.215   0.825   0.000  0.00  0.00    +0.000 A 
ATOM     34  C   UNL     1      -3.215   0.000   0.000  0.00  0.00    +0.000 A 
BRANCH  32  35
ATOM     35  C   UNL     1      -3.932   2.068   0.000  0.00  0.00    +0.000 C 
ATOM     36  F   UNL     1      -3.215   2.475   0.000  0.00  0.00    +0.000 F 
ATOM     37  F   UNL     1      -4.650   2.475   0.000  0.00  0.00    +0.000 F 
ATOM     38  F   UNL     1      -3.932   2.882   0.000  0.00  0.00    +0.000 F 
ENDBRANCH  32  35
ENDBRANCH  24  29
BRANCH  25  39
ATOM     39  O   UNL     1      -5.357  -1.232   0.000  0.00  0.00    +0.000 OA
ATOM     40  C   UNL     1      -5.357  -0.407   0.000  0.00  0.00    +0.000 C 
ENDBRANCH  25  39
ENDBRANCH   2  23
TORSDOF 7
