REMARK  Name = 
REMARK  16 active torsions:
REMARK  status: ('A' for Active; 'I' for Inactive)
REMARK    1  A    between atoms: C_2  and  C_3
REMARK    2  A    between atoms: C_3  and  O_5
REMARK    3  A    between atoms: O_5  and  C_6
REMARK    4  A    between atoms: C_9  and  O_58
REMARK    5  A    between atoms: C_19  and  O_36
REMARK    6  A    between atoms: C_22  and  O_23
REMARK    7  A    between atoms: O_23  and  C_24
REMARK    8  A    between atoms: C_24  and  C_26
REMARK    9  A    between atoms: O_36  and  C_37
REMARK   10  A    between atoms: C_37  and  C_39
REMARK   11  A    between atoms: C_39  and  C_40
REMARK   12  A    between atoms: C_40  and  C_41
REMARK   13  A    between atoms: C_40  and  N_46
REMARK   14  A    between atoms: C_47  and  O_49
REMARK   15  A    between atoms: O_49  and  C_50
REMARK   16  A    between atoms: O_58  and  C_59
REMARK                            x       y       z     vdW  Elec       q    Type
REMARK                         _______ _______ _______ _____ _____    ______ ____
ROOT
ATOM      1  C   UNL     1       4.561   2.836   0.000  0.00  0.00    +0.000 C 
ATOM      2  C   UNL     1       5.320   2.512   0.000  0.00  0.00    +0.000 C 
ATOM      3  C   UNL     1       5.418   1.692   0.000  0.00  0.00    +0.000 C 
ATOM      4  C   UNL     1       4.757   1.198   0.000  0.00  0.00    +0.000 C 
ATOM      5  C   UNL     1       5.252   0.538   0.000  0.00  0.00    +0.000 C 
ATOM      6  O   UNL     1       5.912   1.032   0.000  0.00  0.00    +0.000 OA
ATOM      7  C   UNL     1       3.999   1.523   0.000  0.00  0.00    +0.000 C 
ATOM      8  C   UNL     1       3.901   2.342   0.000  0.00  0.00    +0.000 C 
ATOM      9  C   UNL     1       3.219   2.853   0.000  0.00  0.00    +0.000 C 
ATOM     10  O   UNL     1       3.405   3.656   0.000  0.00  0.00    +0.000 OA
ATOM     11  C   UNL     1       2.377   2.695   0.000  0.00  0.00    +0.000 C 
ATOM     12  C   UNL     1       1.826   2.018   0.000  0.00  0.00    +0.000 C 
ATOM     13  C   UNL     1       1.099   1.546   0.000  0.00  0.00    +0.000 C 
ATOM     14  C   UNL     1       1.075   0.701   0.000  0.00  0.00    +0.000 C 
ATOM     15  C   UNL     1       1.824   0.310   0.000  0.00  0.00    +0.000 C 
ATOM     16  C   UNL     1       2.590   0.715   0.000  0.00  0.00    +0.000 C 
ATOM     17  C   UNL     1       3.450   0.866   0.000  0.00  0.00    +0.000 C 
ATOM     18  C   UNL     1       2.266   1.400   0.000  0.00  0.00    +0.000 C 
ATOM     19  C   UNL     1       3.082   1.518   0.000  0.00  0.00    +0.000 C 
ATOM     20  C   UNL     1       2.767   2.055   0.000  0.00  0.00    +0.000 C 
ATOM     21  O   UNL     1       2.857  -0.066   0.000  0.00  0.00    +0.000 OA
ATOM     22  C   UNL     1       0.380   1.950   0.000  0.00  0.00    +0.000 C 
ATOM     23  O   UNL     1       1.956   3.404   0.000  0.00  0.00    +0.000 OA
ATOM     24  C   UNL     1       3.901   3.167   0.000  0.00  0.00    +0.000 C 
ENDROOT
BRANCH  17  25
ATOM     25  O   UNL     1       3.863   0.152   0.000  0.00  0.00    +0.000 OA
BRANCH  25  26
ATOM     26  C   UNL     1       3.452  -0.563   0.000  0.00  0.00    +0.000 C 
ATOM     27  O   UNL     1       2.627  -0.564   0.000  0.00  0.00    +0.000 OA
BRANCH  26  28
ATOM     28  C   UNL     1       3.865  -1.277   0.000  0.00  0.00    +0.000 A 
ATOM     29  C   UNL     1       4.690  -1.277   0.000  0.00  0.00    +0.000 A 
ATOM     30  C   UNL     1       5.103  -1.991   0.000  0.00  0.00    +0.000 A 
ATOM     31  C   UNL     1       4.691  -2.705   0.000  0.00  0.00    +0.000 A 
ATOM     32  C   UNL     1       3.866  -2.706   0.000  0.00  0.00    +0.000 A 
ATOM     33  C   UNL     1       3.453  -1.992   0.000  0.00  0.00    +0.000 A 
ENDBRANCH  26  28
ENDBRANCH  25  26
ENDBRANCH  17  25
BRANCH  14  34
ATOM     34  O   UNL     1       0.363   0.284   0.000  0.00  0.00    +0.000 OA
BRANCH  34  35
ATOM     35  C   UNL     1       0.369  -0.541   0.000  0.00  0.00    +0.000 C 
ATOM     36  O   UNL     1       1.086  -0.949   0.000  0.00  0.00    +0.000 OA
BRANCH  35  37
ATOM     37  C   UNL     1      -0.343  -0.959   0.000  0.00  0.00    +0.000 C 
ATOM     38  O   UNL     1      -1.060  -0.551   0.000  0.00  0.00    +0.000 OA
BRANCH  37  39
ATOM     39  C   UNL     1      -0.337  -1.784   0.000  0.00  0.00    +0.000 C 
BRANCH  39  40
ATOM     40  C   UNL     1       0.380  -2.191   0.000  0.00  0.00    +0.000 A 
ATOM     41  C   UNL     1       1.131  -1.850   0.000  0.00  0.00    +0.000 A 
ATOM     42  C   UNL     1       1.688  -2.460   0.000  0.00  0.00    +0.000 A 
ATOM     43  C   UNL     1       1.280  -3.177   0.000  0.00  0.00    +0.000 A 
ATOM     44  O   UNL     1       0.472  -3.011   0.000  0.00  0.00    +0.000 OA
ENDBRANCH  39  40
BRANCH  39  45
ATOM     45  N   UNL     1      -1.049  -2.201   0.000  0.00  0.00    +0.000 NA
ATOM     46  C   UNL     1      -1.043  -3.026   0.000  0.00  0.00    +0.000 C 
ATOM     47  O   UNL     1      -0.326  -3.434   0.000  0.00  0.00    +0.000 OA
BRANCH  46  48
ATOM     48  O   UNL     1      -1.755  -3.443   0.000  0.00  0.00    +0.000 OA
BRANCH  48  49
ATOM     49  C   UNL     1      -1.749  -4.269   0.000  0.00  0.00    +0.000 C 
ATOM     50  C   UNL     1      -1.743  -5.093   0.000  0.00  0.00    +0.000 C 
ATOM     51  C   UNL     1      -2.574  -4.274   0.000  0.00  0.00    +0.000 C 
ATOM     52  C   UNL     1      -0.924  -4.263   0.000  0.00  0.00    +0.000 C 
ENDBRANCH  48  49
ENDBRANCH  46  48
ENDBRANCH  39  45
ENDBRANCH  37  39
ENDBRANCH  35  37
ENDBRANCH  34  35
ENDBRANCH  14  34
BRANCH   4  53
ATOM     53  O   UNL     1       4.247   0.549   0.000  0.00  0.00    +0.000 OA
BRANCH  53  54
ATOM     54  C   UNL     1       4.554  -0.216   0.000  0.00  0.00    +0.000 C 
ATOM     55  O   UNL     1       4.044  -0.865   0.000  0.00  0.00    +0.000 OA
ATOM     56  C   UNL     1       5.371  -0.334   0.000  0.00  0.00    +0.000 C 
ENDBRANCH  53  54
ENDBRANCH   4  53
BRANCH   1  57
ATOM     57  O   UNL     1       4.463   3.655   0.000  0.00  0.00    +0.000 OA
BRANCH  57  58
ATOM     58  C   UNL     1       5.123   4.150   0.000  0.00  0.00    +0.000 C 
ATOM     59  O   UNL     1       5.882   3.825   0.000  0.00  0.00    +0.000 OA
BRANCH  58  61
ATOM     60  C   UNL     1       5.686   5.464   0.000  0.00  0.00    +0.000 C 
ATOM     61  C   UNL     1       5.025   4.969   0.000  0.00  0.00    +0.000 C 
ENDBRANCH  58  61
ENDBRANCH  57  58
ENDBRANCH   1  57
TORSDOF 16
