REMARK  Name = 
REMARK  8 active torsions:
REMARK  status: ('A' for Active; 'I' for Inactive)
REMARK    1  A    between atoms: N_2  and  C_4
REMARK    2  A    between atoms: C_4  and  C_5
REMARK    3  A    between atoms: C_13  and  C_14
REMARK    4  A    between atoms: N_16  and  C_17
REMARK    5  A    between atoms: C_17  and  C_18
REMARK    6  A    between atoms: C_18  and  O_19
REMARK    7  A    between atoms: O_19  and  C_20
REMARK    8  A    between atoms: C_23  and  C_26
REMARK                            x       y       z     vdW  Elec       q    Type
REMARK                         _______ _______ _______ _____ _____    ______ ____
ROOT
ATOM      1  C   UNL     1       2.119  -2.020   0.000  0.00  0.00    +0.000 C 
ATOM      2  O   UNL     1       2.833  -1.608   0.000  0.00  0.00    +0.000 OA
ATOM      3  N   UNL     1       2.119  -2.845   0.000  0.00  0.00    +0.000 NA
ENDROOT
BRANCH   1  12
ATOM      4  C   UNL     1       0.651  -1.943   0.000  0.00  0.00    +0.000 A 
ATOM      5  C   UNL     1       0.099  -1.330   0.000  0.00  0.00    +0.000 A 
ATOM      6  C   UNL     1      -0.726  -1.330   0.000  0.00  0.00    +0.000 A 
ATOM      7  C   UNL     1      -1.139  -0.616   0.000  0.00  0.00    +0.000 A 
ATOM      8  C   UNL     1      -0.726   0.099   0.000  0.00  0.00    +0.000 A 
ATOM      9  C   UNL     1       0.099   0.099   0.000  0.00  0.00    +0.000 A 
ATOM     10  C   UNL     1       0.511  -0.616   0.000  0.00  0.00    +0.000 A 
ATOM     11  O   UNL     1       1.318  -0.787   0.000  0.00  0.00    +0.000 OA
ATOM     12  C   UNL     1       1.405  -1.608   0.000  0.00  0.00    +0.000 A 
BRANCH   4  13
ATOM     13  C   UNL     1       0.479  -2.750   0.000  0.00  0.00    +0.000 C 
BRANCH  13  15
ATOM     14  C   UNL     1      -0.477  -3.812   0.000  0.00  0.00    +0.000 C 
ATOM     15  N   UNL     1      -0.305  -3.005   0.000  0.00  0.00    +0.000 NA
ATOM     16  C   UNL     1      -0.918  -2.453   0.000  0.00  0.00    +0.000 C 
ENDBRANCH  13  15
ENDBRANCH   4  13
ENDBRANCH   1  12
BRANCH   3  17
ATOM     17  C   UNL     1       2.833  -3.258   0.000  0.00  0.00    +0.000 C 
BRANCH  17  18
ATOM     18  C   UNL     1       3.548  -2.845   0.000  0.00  0.00    +0.000 C 
BRANCH  18  19
ATOM     19  O   UNL     1       3.548  -2.020   0.000  0.00  0.00    +0.000 OA
BRANCH  19  20
ATOM     20  C   UNL     1       4.262  -1.608   0.000  0.00  0.00    +0.000 A 
ATOM     21  C   UNL     1       4.262  -0.783   0.000  0.00  0.00    +0.000 A 
ATOM     22  C   UNL     1       4.977  -0.370   0.000  0.00  0.00    +0.000 A 
ATOM     23  C   UNL     1       5.691  -0.783   0.000  0.00  0.00    +0.000 A 
ATOM     24  C   UNL     1       5.691  -1.608   0.000  0.00  0.00    +0.000 A 
ATOM     25  C   UNL     1       4.977  -2.020   0.000  0.00  0.00    +0.000 A 
BRANCH  23  26
ATOM     26  C   UNL     1       6.406  -0.370   0.000  0.00  0.00    +0.000 C 
ATOM     27  O   UNL     1       6.406   0.455   0.000  0.00  0.00    +0.000 OA
ATOM     28  N   UNL     1       7.120  -0.783   0.000  0.00  0.00    +0.000 NA
ATOM     29  O   UNL     1       7.835  -0.370   0.000  0.00  0.00    +0.000 OA
ENDBRANCH  23  26
ENDBRANCH  19  20
ENDBRANCH  18  19
ENDBRANCH  17  18
ENDBRANCH   3  17
TORSDOF 8
