REMARK  Name = 
REMARK  9 active torsions:
REMARK  status: ('A' for Active; 'I' for Inactive)
REMARK    1  A    between atoms: C_2  and  C_3
REMARK    2  A    between atoms: C_3  and  C_4
REMARK    3  A    between atoms: C_5  and  C_14
REMARK    4  A    between atoms: C_8  and  C_10
REMARK    5  A    between atoms: C_15  and  C_16
REMARK    6  A    between atoms: N_18  and  C_19
REMARK    7  A    between atoms: C_19  and  C_21
REMARK    8  A    between atoms: C_24  and  N_28
REMARK    9  A    between atoms: N_28  and  S_29
REMARK                            x       y       z     vdW  Elec       q    Type
REMARK                         _______ _______ _______ _____ _____    ______ ____
ROOT
ATOM      1  C   UNL     1       6.430  -3.712   0.000  0.00  0.00    +0.000 C 
ATOM      2  O   UNL     1       6.430  -2.888   0.000  0.00  0.00    +0.000 OA
ATOM      3  N   UNL     1       7.145  -4.125   0.000  0.00  0.00    +0.000 NA
ENDROOT
BRANCH   1   5
ATOM      4  C   UNL     1       5.001  -3.712   0.000  0.00  0.00    +0.000 C 
ATOM      5  C   UNL     1       5.716  -4.125   0.000  0.00  0.00    +0.000 C 
BRANCH   4   7
ATOM      6  C   UNL     1       3.572  -3.712   0.000  0.00  0.00    +0.000 A 
ATOM      7  C   UNL     1       4.287  -4.125   0.000  0.00  0.00    +0.000 A 
ATOM      8  C   UNL     1       4.287  -4.950   0.000  0.00  0.00    +0.000 A 
ATOM      9  C   UNL     1       3.572  -5.362   0.000  0.00  0.00    +0.000 A 
ATOM     10  C   UNL     1       2.858  -4.950   0.000  0.00  0.00    +0.000 A 
ATOM     11  N   UNL     1       2.858  -4.125   0.000  0.00  0.00    +0.000 NA
BRANCH  10  12
ATOM     12  C   UNL     1       2.143  -5.362   0.000  0.00  0.00    +0.000 C 
ATOM     13  F   UNL     1       1.429  -5.775   0.000  0.00  0.00    +0.000 F 
ATOM     14  F   UNL     1       2.556  -6.077   0.000  0.00  0.00    +0.000 F 
ATOM     15  F   UNL     1       1.731  -4.648   0.000  0.00  0.00    +0.000 F 
ENDBRANCH  10  12
BRANCH   6  16
ATOM     16  C   UNL     1       3.572  -2.888   0.000  0.00  0.00    +0.000 C 
BRANCH  16  18
ATOM     17  C   UNL     1       2.858  -1.650   0.000  0.00  0.00    +0.000 C 
ATOM     18  C   UNL     1       2.858  -2.475   0.000  0.00  0.00    +0.000 C 
ENDBRANCH  16  18
ENDBRANCH   6  16
ENDBRANCH   4   7
ENDBRANCH   1   5
BRANCH   3  19
ATOM     19  C   UNL     1       7.859  -3.712   0.000  0.00  0.00    +0.000 C 
ATOM     20  C   UNL     1       7.859  -2.888   0.000  0.00  0.00    +0.000 C 
BRANCH  19  21
ATOM     21  C   UNL     1       8.574  -4.125   0.000  0.00  0.00    +0.000 A 
ATOM     22  C   UNL     1       9.288  -3.712   0.000  0.00  0.00    +0.000 A 
ATOM     23  C   UNL     1      10.003  -4.125   0.000  0.00  0.00    +0.000 A 
ATOM     24  C   UNL     1      10.003  -4.950   0.000  0.00  0.00    +0.000 A 
ATOM     25  C   UNL     1       9.288  -5.362   0.000  0.00  0.00    +0.000 A 
ATOM     26  C   UNL     1       8.574  -4.950   0.000  0.00  0.00    +0.000 A 
ATOM     27  F   UNL     1       9.288  -6.188   0.000  0.00  0.00    +0.000 F 
ATOM     28  F   UNL     1      10.717  -3.712   0.000  0.00  0.00    +0.000 F 
BRANCH  24  29
ATOM     29  N   UNL     1      10.717  -5.362   0.000  0.00  0.00    +0.000 NA
BRANCH  29  30
ATOM     30  S   UNL     1      11.431  -4.950   0.000  0.00  0.00    +0.000 S 
ATOM     31  O   UNL     1      12.146  -4.537   0.000  0.00  0.00    +0.000 OA
ATOM     32  O   UNL     1      11.844  -5.665   0.000  0.00  0.00    +0.000 OA
ATOM     33  C   UNL     1      11.019  -4.236   0.000  0.00  0.00    +0.000 C 
ENDBRANCH  29  30
ENDBRANCH  24  29
ENDBRANCH  19  21
ENDBRANCH   3  19
TORSDOF 9
