REMARK  Name = 
REMARK  5 active torsions:
REMARK  status: ('A' for Active; 'I' for Inactive)
REMARK    1  A    between atoms: N_13  and  C_14
REMARK    2  A    between atoms: C_14  and  C_15
REMARK    3  A    between atoms: C_18  and  C_21
REMARK    4  A    between atoms: C_28  and  N_29
REMARK    5  A    between atoms: N_29  and  C_30
REMARK                            x       y       z     vdW  Elec       q    Type
REMARK                         _______ _______ _______ _____ _____    ______ ____
ROOT
ATOM      1  C   UNL     1       2.414   4.152   0.000  0.00  0.00    +0.000 C 
ATOM      2  N   UNL     1       2.287   3.337   0.000  0.00  0.00    +0.000 N 
ATOM      3  C   UNL     1       2.930   2.819   0.000  0.00  0.00    +0.000 C 
ATOM      4  N   UNL     1       3.744   2.950   0.000  0.00  0.00    +0.000 NA
ATOM      5  C   UNL     1       4.120   2.216   0.000  0.00  0.00    +0.000 C 
ATOM      6  C   UNL     1       4.856   1.843   0.000  0.00  0.00    +0.000 C 
ATOM      7  C   UNL     1       4.729   1.028   0.000  0.00  0.00    +0.000 C 
ATOM      8  C   UNL     1       3.915   0.897   0.000  0.00  0.00    +0.000 C 
ATOM      9  C   UNL     1       3.538   1.631   0.000  0.00  0.00    +0.000 C 
ATOM     10  N   UNL     1       2.803   2.004   0.000  0.00  0.00    +0.000 N 
ATOM     11  C   UNL     1       2.033   1.706   0.000  0.00  0.00    +0.000 A 
ATOM     12  N   UNL     1       1.739   0.935   0.000  0.00  0.00    +0.000 NA
ATOM     13  N   UNL     1       0.915   0.977   0.000  0.00  0.00    +0.000 N 
ATOM     14  C   UNL     1       0.700   1.773   0.000  0.00  0.00    +0.000 A 
ATOM     15  C   UNL     1       1.391   2.224   0.000  0.00  0.00    +0.000 A 
ATOM     16  C   UNL     1       1.518   3.039   0.000  0.00  0.00    +0.000 C 
ATOM     17  O   UNL     1       0.875   3.557   0.000  0.00  0.00    +0.000 OA
ENDROOT
BRANCH  13  18
ATOM     18  C   UNL     1       0.398   0.334   0.000  0.00  0.00    +0.000 C 
BRANCH  18  19
ATOM     19  C   UNL     1      -0.417   0.461   0.000  0.00  0.00    +0.000 A 
ATOM     20  C   UNL     1      -0.935  -0.181   0.000  0.00  0.00    +0.000 A 
ATOM     21  C   UNL     1      -1.750  -0.054   0.000  0.00  0.00    +0.000 A 
ATOM     22  C   UNL     1      -2.048   0.715   0.000  0.00  0.00    +0.000 A 
ATOM     23  C   UNL     1      -1.530   1.358   0.000  0.00  0.00    +0.000 A 
ATOM     24  C   UNL     1      -0.715   1.231   0.000  0.00  0.00    +0.000 A 
BRANCH  22  25
ATOM     25  C   UNL     1      -2.863   0.842   0.000  0.00  0.00    +0.000 A 
ATOM     26  N   UNL     1      -3.381   0.200   0.000  0.00  0.00    +0.000 NA
ATOM     27  C   UNL     1      -4.196   0.327   0.000  0.00  0.00    +0.000 A 
ATOM     28  F   UNL     1      -4.713  -0.315   0.000  0.00  0.00    +0.000 F 
ATOM     29  C   UNL     1      -4.493   1.096   0.000  0.00  0.00    +0.000 A 
ATOM     30  C   UNL     1      -3.976   1.739   0.000  0.00  0.00    +0.000 A 
ATOM     31  C   UNL     1      -3.160   1.612   0.000  0.00  0.00    +0.000 A 
ENDBRANCH  22  25
ENDBRANCH  18  19
ENDBRANCH  13  18
BRANCH  14  32
ATOM     32  N   UNL     1      -0.071   2.067   0.000  0.00  0.00    +0.000 NA
BRANCH  32  33
ATOM     33  C   UNL     1      -0.202   2.881   0.000  0.00  0.00    +0.000 A 
ATOM     34  C   UNL     1      -0.973   3.175   0.000  0.00  0.00    +0.000 A 
ATOM     35  C   UNL     1      -1.104   3.989   0.000  0.00  0.00    +0.000 A 
ATOM     36  C   UNL     1      -0.464   4.510   0.000  0.00  0.00    +0.000 A 
ATOM     37  C   UNL     1       0.307   4.216   0.000  0.00  0.00    +0.000 A 
ATOM     38  C   UNL     1       0.438   3.402   0.000  0.00  0.00    +0.000 A 
ENDBRANCH  32  33
ENDBRANCH  14  32
TORSDOF 5
