REMARK  Name = 
REMARK  1 active torsions:
REMARK  status: ('A' for Active; 'I' for Inactive)
REMARK    1  A    between atoms: C_4  and  C_8
REMARK                            x       y       z     vdW  Elec       q    Type
REMARK                         _______ _______ _______ _____ _____    ______ ____
ROOT
ATOM      1  C   UNL     1       1.429  -1.650   0.000  0.00  0.00    +0.000 A 
ATOM      2  C   UNL     1       1.429  -2.475   0.000  0.00  0.00    +0.000 A 
ATOM      3  C   UNL     1       0.715  -2.888   0.000  0.00  0.00    +0.000 A 
ATOM      4  C   UNL     1       0.000  -2.475   0.000  0.00  0.00    +0.000 A 
ATOM      5  C   UNL     1       0.000  -1.650   0.000  0.00  0.00    +0.000 A 
ATOM      6  C   UNL     1       0.715  -1.238   0.000  0.00  0.00    +0.000 A 
ATOM      7 CL   UNL     1       0.715  -0.412   0.000  0.00  0.00    +0.000 Cl
ATOM      8 CL   UNL     1       0.715  -3.712   0.000  0.00  0.00    +0.000 Cl
ENDROOT
BRANCH   4   9
ATOM      9  C   UNL     1      -0.715  -2.888   0.000  0.00  0.00    +0.000 A 
ATOM     10  N   UNL     1      -0.715  -3.712   0.000  0.00  0.00    +0.000 NA
ATOM     11  C   UNL     1      -1.429  -4.125   0.000  0.00  0.00    +0.000 A 
ATOM     12  N   UNL     1      -2.143  -3.712   0.000  0.00  0.00    +0.000 NA
ATOM     13  C   UNL     1      -2.143  -2.888   0.000  0.00  0.00    +0.000 A 
ATOM     14  N   UNL     1      -1.429  -2.475   0.000  0.00  0.00    +0.000 NA
ATOM     15  N   UNL     1      -2.858  -2.475   0.000  0.00  0.00    +0.000 NA
ATOM     16  N   UNL     1      -1.429  -4.950   0.000  0.00  0.00    +0.000 NA
ENDBRANCH   4   9
TORSDOF 1
