REMARK  Name = 
REMARK  8 active torsions:
REMARK  status: ('A' for Active; 'I' for Inactive)
REMARK    1  A    between atoms: C_3  and  N_13
REMARK    2  A    between atoms: C_6  and  C_7
REMARK    3  A    between atoms: C_7  and  CA_8
REMARK    4  A    between atoms: CA_8  and  C_9
REMARK    5  A    between atoms: N_13  and  C_14
REMARK    6  A    between atoms: N_13  and  C_17
REMARK    7  A    between atoms: C_14  and  C_15
REMARK    8  A    between atoms: C_17  and  C_18
REMARK                            x       y       z     vdW  Elec       q    Type
REMARK                         _______ _______ _______ _____ _____    ______ ____
ROOT
ATOM      1  C   UNL     1       1.165   0.608   0.000  0.00  0.00    +0.000 A 
ATOM      2  C   UNL     1       1.165  -0.217   0.000  0.00  0.00    +0.000 A 
ATOM      3  C   UNL     1       0.451  -0.630   0.000  0.00  0.00    +0.000 A 
ATOM      4  C   UNL     1      -0.264  -0.217   0.000  0.00  0.00    +0.000 A 
ATOM      5  C   UNL     1      -0.264   0.608   0.000  0.00  0.00    +0.000 A 
ATOM      6  C   UNL     1       0.451   1.020   0.000  0.00  0.00    +0.000 A 
ENDROOT
BRANCH   3   7
ATOM      7  N   UNL     1       0.451  -1.455   0.000  0.00  0.00    +0.000 NA
ATOM      8  O   UNL     1       1.276  -1.455   0.000  0.00  0.00    +0.000 OA
BRANCH   7   9
ATOM      9  C   UNL     1       0.451  -2.280   0.000  0.00  0.00    +0.000 C 
BRANCH   9  10
ATOM     10  C   UNL     1      -0.264  -2.692   0.000  0.00  0.00    +0.000 C 
ATOM     11 CL   UNL     1      -0.264  -3.517   0.000  0.00  0.00    +0.000 Cl
ENDBRANCH   9  10
ENDBRANCH   7   9
BRANCH   7  12
ATOM     12  C   UNL     1      -0.374  -1.455   0.000  0.00  0.00    +0.000 C 
BRANCH  12  13
ATOM     13  C   UNL     1      -0.787  -2.169   0.000  0.00  0.00    +0.000 C 
ATOM     14 CL   UNL     1      -1.612  -2.169   0.000  0.00  0.00    +0.000 Cl
ENDBRANCH  12  13
ENDBRANCH   7  12
ENDBRANCH   3   7
BRANCH   6  15
ATOM     15  C   UNL     1       0.451   1.845   0.000  0.00  0.00    +0.000 C 
BRANCH  15  16
ATOM     16  CA  UNL     1      -0.264   2.258   0.000  0.00  0.00    +0.000 C 
ATOM     17  N   UNL     1      -0.978   1.845   0.000  0.00  0.00    +0.000 NA
BRANCH  16  18
ATOM     18  C   UNL     1      -0.264   3.083   0.000  0.00  0.00    +0.000 C 
ATOM     19  O   UNL     1      -0.978   3.495   0.000  0.00  0.00    +0.000 OA
ATOM     20  OXT UNL     1       0.451   3.495   0.000  0.00  0.00    +0.000 OA
ENDBRANCH  16  18
ENDBRANCH  15  16
ENDBRANCH   6  15
TORSDOF 8
REMARK  Name = 
REMARK  8 active torsions:
REMARK  status: ('A' for Active; 'I' for Inactive)
REMARK    1  A    between atoms: C_3  and  N_13
REMARK    2  A    between atoms: C_6  and  C_7
REMARK    3  A    between atoms: C_7  and  CA_8
REMARK    4  A    between atoms: CA_8  and  C_9
REMARK    5  A    between atoms: N_13  and  C_14
REMARK    6  A    between atoms: N_13  and  C_17
REMARK    7  A    between atoms: C_14  and  C_15
REMARK    8  A    between atoms: C_17  and  C_18
REMARK                            x       y       z     vdW  Elec       q    Type
REMARK                         _______ _______ _______ _____ _____    ______ ____
ROOT
ATOM      1 CL   UNL     1       3.279   0.000   0.000  0.00  0.00    +0.000 Cl
ENDROOT
TORSDOF 0
REMARK  Name = 
REMARK  8 active torsions:
REMARK  status: ('A' for Active; 'I' for Inactive)
REMARK    1  A    between atoms: C_3  and  N_13
REMARK    2  A    between atoms: C_6  and  C_7
REMARK    3  A    between atoms: C_7  and  CA_8
REMARK    4  A    between atoms: CA_8  and  C_9
REMARK    5  A    between atoms: N_13  and  C_14
REMARK    6  A    between atoms: N_13  and  C_17
REMARK    7  A    between atoms: C_14  and  C_15
REMARK    8  A    between atoms: C_17  and  C_18
REMARK                            x       y       z     vdW  Elec       q    Type
REMARK                         _______ _______ _______ _____ _____    ______ ____
ROOT
ATOM      1 CL   UNL     1       0.000  -5.167   0.000  0.00  0.00    +0.000 Cl
ENDROOT
TORSDOF 0
