REMARK  Name = 
REMARK  31 active torsions:
REMARK  status: ('A' for Active; 'I' for Inactive)
REMARK    1  A    between atoms: C_1  and  C_2
REMARK    2  A    between atoms: N_3  and  C_4
REMARK    3  A    between atoms: C_4  and  C_5
REMARK    4  A    between atoms: C_4  and  C_59
REMARK    5  A    between atoms: N_6  and  C_7
REMARK    6  A    between atoms: C_7  and  C_8
REMARK    7  A    between atoms: C_7  and  C_70
REMARK    8  A    between atoms: N_9  and  C_10
REMARK    9  A    between atoms: C_10  and  C_11
REMARK   10  A    between atoms: C_10  and  C_63
REMARK   11  A    between atoms: N_12  and  N_13
REMARK   12  A    between atoms: N_15  and  C_16
REMARK   13  A    between atoms: C_16  and  C_17
REMARK   14  A    between atoms: C_16  and  C_47
REMARK   15  A    between atoms: N_18  and  C_19
REMARK   16  A    between atoms: C_19  and  C_20
REMARK   17  A    between atoms: C_19  and  C_51
REMARK   18  A    between atoms: N_21  and  C_22
REMARK   19  A    between atoms: C_22  and  C_23
REMARK   20  A    between atoms: C_22  and  C_37
REMARK   21  A    between atoms: C_37  and  C_38
REMARK   22  A    between atoms: C_47  and  C_48
REMARK   23  A    between atoms: C_51  and  C_52
REMARK   24  A    between atoms: C_52  and  C_53
REMARK   25  A    between atoms: C_53  and  N_54
REMARK   26  A    between atoms: C_59  and  C_60
REMARK   27  A    between atoms: C_63  and  C_64
REMARK   28  A    between atoms: C_75  and  C_76
REMARK   29  A    between atoms: C_76  and  N_77
REMARK   30  A    between atoms: C_76  and  C_80
REMARK   31  A    between atoms: C_80  and  C_81
REMARK                            x       y       z     vdW  Elec       q    Type
REMARK                         _______ _______ _______ _____ _____    ______ ____
ROOT
ATOM      1  C   UNL     1      -0.608   0.956   0.000  0.00  0.00    +0.000 C 
ENDROOT
BRANCH   1   2
ATOM      2  C   UNL     1       0.107   0.544   0.000  0.00  0.00    +0.000 C 
ATOM      3  N   UNL     1       0.821   0.956   0.000  0.00  0.00    +0.000 NA
ATOM      4  O   UNL     1       0.107  -0.281   0.000  0.00  0.00    +0.000 OA
BRANCH   3   5
ATOM      5  N   UNL     1       1.536   0.544   0.000  0.00  0.00    +0.000 NA
ATOM      6  C   UNL     1       2.250   0.956   0.000  0.00  0.00    +0.000 C 
ATOM      7  N   UNL     1       2.965   0.544   0.000  0.00  0.00    +0.000 NA
ATOM      8  O   UNL     1       2.250   1.781   0.000  0.00  0.00    +0.000 OA
BRANCH   7   9
ATOM      9  C   UNL     1       3.679   0.956   0.000  0.00  0.00    +0.000 C 
BRANCH   9  10
ATOM     10  C   UNL     1       4.394   0.544   0.000  0.00  0.00    +0.000 C 
ATOM     11  N   UNL     1       5.108   0.956   0.000  0.00  0.00    +0.000 NA
ATOM     12  O   UNL     1       4.394  -0.281   0.000  0.00  0.00    +0.000 OA
BRANCH  11  13
ATOM     13  C   UNL     1       5.823   0.544   0.000  0.00  0.00    +0.000 C 
BRANCH  13  14
ATOM     14  C   UNL     1       6.537   0.956   0.000  0.00  0.00    +0.000 C 
ATOM     15  N   UNL     1       7.252   0.544   0.000  0.00  0.00    +0.000 NA
ATOM     16  O   UNL     1       6.537   1.781   0.000  0.00  0.00    +0.000 OA
BRANCH  15  17
ATOM     17  C   UNL     1       7.966   0.956   0.000  0.00  0.00    +0.000 C 
BRANCH  17  18
ATOM     18  C   UNL     1       8.681   0.544   0.000  0.00  0.00    +0.000 C 
ATOM     19  N   UNL     1       9.395   0.956   0.000  0.00  0.00    +0.000 NA
ATOM     20  O   UNL     1       8.681  -0.281   0.000  0.00  0.00    +0.000 OA
ENDBRANCH  17  18
BRANCH  17  21
ATOM     21  C   UNL     1       7.966   1.781   0.000  0.00  0.00    +0.000 C 
BRANCH  21  22
ATOM     22  C   UNL     1       8.681   2.194   0.000  0.00  0.00    +0.000 A 
ATOM     23  C   UNL     1       9.436   1.862   0.000  0.00  0.00    +0.000 A 
ATOM     24  N   UNL     1       9.982   2.470   0.000  0.00  0.00    +0.000 NA
ATOM     25  C   UNL     1       9.571   3.182   0.000  0.00  0.00    +0.000 A 
ATOM     26  C   UNL     1       8.770   3.014   0.000  0.00  0.00    +0.000 A 
ATOM     27  C   UNL     1       8.226   3.621   0.000  0.00  0.00    +0.000 A 
ATOM     28  C   UNL     1       8.480   4.399   0.000  0.00  0.00    +0.000 A 
ATOM     29  C   UNL     1       9.276   4.568   0.000  0.00  0.00    +0.000 A 
ATOM     30  C   UNL     1       9.826   3.963   0.000  0.00  0.00    +0.000 A 
ENDBRANCH  21  22
ENDBRANCH  17  21
ENDBRANCH  15  17
ENDBRANCH  13  14
BRANCH  13  31
ATOM     31  C   UNL     1       5.823  -0.281   0.000  0.00  0.00    +0.000 C 
BRANCH  31  32
ATOM     32  C   UNL     1       6.235  -0.996   0.000  0.00  0.00    +0.000 C 
BRANCH  32  33
ATOM     33  C   UNL     1       5.823  -1.710   0.000  0.00  0.00    +0.000 C 
BRANCH  33  34
ATOM     34  N   UNL     1       6.235  -2.425   0.000  0.00  0.00    +0.000 NA
ATOM     35  C   UNL     1       5.823  -3.139   0.000  0.00  0.00    +0.000 C 
ATOM     36  N   UNL     1       6.235  -3.854   0.000  0.00  0.00    +0.000 NA
ATOM     37  C   UNL     1       5.823  -4.568   0.000  0.00  0.00    +0.000 C 
ATOM     38  N   UNL     1       4.997  -3.139   0.000  0.00  0.00    +0.000 NA
ENDBRANCH  33  34
ENDBRANCH  32  33
ENDBRANCH  31  32
ENDBRANCH  13  31
ENDBRANCH  11  13
ENDBRANCH   9  10
BRANCH   9  39
ATOM     39  C   UNL     1       3.679   1.781   0.000  0.00  0.00    +0.000 C 
BRANCH  39  40
ATOM     40  C   UNL     1       4.394   2.194   0.000  0.00  0.00    +0.000 C 
ATOM     41  C   UNL     1       4.394   3.019   0.000  0.00  0.00    +0.000 C 
ATOM     42  C   UNL     1       5.108   1.781   0.000  0.00  0.00    +0.000 C 
ENDBRANCH  39  40
ENDBRANCH   9  39
ENDBRANCH   7   9
ENDBRANCH   3   5
ENDBRANCH   1   2
BRANCH   1  44
ATOM     43  C   UNL     1      -2.037   0.956   0.000  0.00  0.00    +0.000 C 
ATOM     44  N   UNL     1      -1.322   0.544   0.000  0.00  0.00    +0.000 NA
ATOM     45  O   UNL     1      -2.037   1.781   0.000  0.00  0.00    +0.000 OA
BRANCH  43  46
ATOM     46  C   UNL     1      -2.751   0.544   0.000  0.00  0.00    +0.000 C 
BRANCH  46  47
ATOM     47  C   UNL     1      -2.751  -0.281   0.000  0.00  0.00    +0.000 C 
ATOM     48  O   UNL     1      -2.037  -0.694   0.000  0.00  0.00    +0.000 OA
ATOM     49  C   UNL     1      -3.466  -0.694   0.000  0.00  0.00    +0.000 C 
ENDBRANCH  46  47
BRANCH  46  51
ATOM     50  C   UNL     1      -4.180   0.544   0.000  0.00  0.00    +0.000 C 
ATOM     51  N   UNL     1      -3.466   0.956   0.000  0.00  0.00    +0.000 NA
ATOM     52  O   UNL     1      -4.180  -0.281   0.000  0.00  0.00    +0.000 OA
BRANCH  50  53
ATOM     53  C   UNL     1      -4.895   0.956   0.000  0.00  0.00    +0.000 C 
BRANCH  53  55
ATOM     54  C   UNL     1      -6.324   0.956   0.000  0.00  0.00    +0.000 C 
ATOM     55  N   UNL     1      -5.609   0.544   0.000  0.00  0.00    +0.000 NA
ATOM     56  O   UNL     1      -6.324   1.781   0.000  0.00  0.00    +0.000 OA
BRANCH  54  57
ATOM     57  C   UNL     1      -7.038   0.544   0.000  0.00  0.00    +0.000 C 
ATOM     58  C   UNL     1      -7.753   0.956   0.000  0.00  0.00    +0.000 C 
ATOM     59  N   UNL     1      -7.224  -0.278   0.000  0.00  0.00    +0.000 N 
ATOM     60  C   UNL     1      -8.025  -0.358   0.000  0.00  0.00    +0.000 C 
ATOM     61  C   UNL     1      -8.357   0.401   0.000  0.00  0.00    +0.000 C 
ATOM     62  O   UNL     1      -9.154   0.615   0.000  0.00  0.00    +0.000 OA
ATOM     63  C   UNL     1      -6.427  -0.491   0.000  0.00  0.00    +0.000 C 
ATOM     64  O   UNL     1      -5.843   0.092   0.000  0.00  0.00    +0.000 OA
BRANCH  63  65
ATOM     65  C   UNL     1      -6.213  -1.288   0.000  0.00  0.00    +0.000 C 
BRANCH  65  66
ATOM     66  N   UNL     1      -5.416  -1.502   0.000  0.00  0.00    +0.000 NA
ATOM     67  C   UNL     1      -5.203  -2.298   0.000  0.00  0.00    +0.000 C 
ATOM     68  C   UNL     1      -4.406  -2.512   0.000  0.00  0.00    +0.000 C 
ATOM     69  O   UNL     1      -5.786  -2.882   0.000  0.00  0.00    +0.000 OA
ENDBRANCH  65  66
BRANCH  65  70
ATOM     70  C   UNL     1      -6.796  -1.871   0.000  0.00  0.00    +0.000 C 
BRANCH  70  71
ATOM     71  C   UNL     1      -7.593  -1.658   0.000  0.00  0.00    +0.000 A 
ATOM     72  C   UNL     1      -8.177  -2.241   0.000  0.00  0.00    +0.000 A 
ATOM     73  C   UNL     1      -8.971  -2.027   0.000  0.00  0.00    +0.000 A 
ATOM     74  C   UNL     1      -9.185  -1.230   0.000  0.00  0.00    +0.000 A 
ATOM     75  C   UNL     1      -8.605  -0.649   0.000  0.00  0.00    +0.000 A 
ATOM     76  C   UNL     1      -7.808  -0.858   0.000  0.00  0.00    +0.000 A 
ATOM     77  O   UNL     1      -9.982  -1.017   0.000  0.00  0.00    +0.000 OA
ENDBRANCH  70  71
ENDBRANCH  65  70
ENDBRANCH  63  65
ENDBRANCH  54  57
ENDBRANCH  53  55
BRANCH  53  78
ATOM     78  C   UNL     1      -4.895   1.781   0.000  0.00  0.00    +0.000 C 
BRANCH  78  79
ATOM     79  C   UNL     1      -4.482   2.496   0.000  0.00  0.00    +0.000 C 
ATOM     80  N   UNL     1      -4.895   3.210   0.000  0.00  0.00    +0.000 NA
ATOM     81  O   UNL     1      -3.657   2.496   0.000  0.00  0.00    +0.000 OA
ENDBRANCH  78  79
ENDBRANCH  53  78
ENDBRANCH  50  53
ENDBRANCH  46  51
ENDBRANCH  43  46
ENDBRANCH   1  44
BRANCH   1  82
ATOM     82  C   UNL     1      -0.608   1.781   0.000  0.00  0.00    +0.000 C 
BRANCH  82  83
ATOM     83  C   UNL     1       0.107   2.194   0.000  0.00  0.00    +0.000 A 
ATOM     84  C   UNL     1       0.107   3.019   0.000  0.00  0.00    +0.000 A 
ATOM     85  C   UNL     1       0.820   3.429   0.000  0.00  0.00    +0.000 A 
ATOM     86  C   UNL     1       1.534   3.017   0.000  0.00  0.00    +0.000 A 
ATOM     87  C   UNL     1       1.536   2.196   0.000  0.00  0.00    +0.000 A 
ATOM     88  C   UNL     1       0.824   1.780   0.000  0.00  0.00    +0.000 A 
ENDBRANCH  82  83
ENDBRANCH   1  82
TORSDOF 31
