REMARK  Name = 
REMARK  8 active torsions:
REMARK  status: ('A' for Active; 'I' for Inactive)
REMARK    1  A    between atoms: C_3  and  N_24
REMARK    2  A    between atoms: C_4  and  N_24
REMARK    3  A    between atoms: C_14  and  C_20
REMARK    4  A    between atoms: C_14  and  N_24
REMARK    5  A    between atoms: C_15  and  N_26
REMARK    6  A    between atoms: C_16  and  C_21
REMARK    7  A    between atoms: C_17  and  C_21
REMARK    8  A    between atoms: C_19  and  N_25
REMARK                            x       y       z     vdW  Elec       q    Type
REMARK                         _______ _______ _______ _____ _____    ______ ____
ROOT
ATOM      1  C   UNL     1       2.037   2.001   0.000  0.00  0.00    +0.000 A 
ATOM      2  C   UNL     1       2.037   1.176   0.000  0.00  0.00    +0.000 A 
ATOM      3  C   UNL     1       3.466   2.001   0.000  0.00  0.00    +0.000 A 
ATOM      4  C   UNL     1       2.751   2.413   0.000  0.00  0.00    +0.000 A 
ATOM      5  C   UNL     1       3.466   1.176   0.000  0.00  0.00    +0.000 A 
ATOM      6  C   UNL     1       2.751   0.763   0.000  0.00  0.00    +0.000 A 
ENDROOT
BRANCH   6  11
ATOM      7  C   UNL     1       3.164  -1.331   0.000  0.00  0.00    +0.000 A 
ATOM      8  C   UNL     1       3.419  -0.546   0.000  0.00  0.00    +0.000 A 
ATOM      9  C   UNL     1       2.084  -0.546   0.000  0.00  0.00    +0.000 A 
ATOM     10  N   UNL     1       2.339  -1.331   0.000  0.00  0.00    +0.000 NA
ATOM     11  N   UNL     1       2.751  -0.062   0.000  0.00  0.00    +0.000 N 
BRANCH   9  12
ATOM     12  C   UNL     1       1.299  -0.292   0.000  0.00  0.00    +0.000 C 
BRANCH  12  13
ATOM     13  N   UNL     1       0.686  -0.844   0.000  0.00  0.00    +0.000 NA
BRANCH  13  15
ATOM     14  C   UNL     1      -0.270   0.218   0.000  0.00  0.00    +0.000 C 
ATOM     15  C   UNL     1      -0.099  -0.589   0.000  0.00  0.00    +0.000 C 
ENDBRANCH  13  15
BRANCH  13  17
ATOM     16  C   UNL     1       1.642  -1.905   0.000  0.00  0.00    +0.000 C 
ATOM     17  C   UNL     1       0.858  -1.651   0.000  0.00  0.00    +0.000 C 
ENDBRANCH  13  17
ENDBRANCH  12  13
ENDBRANCH   9  12
ENDBRANCH   6  11
BRANCH   4  18
ATOM     18  N   UNL     1       2.751   3.238   0.000  0.00  0.00    +0.000 N 
ATOM     19  O   UNL     1       3.466   3.651   0.000  0.00  0.00    +0.000 OA
ATOM     20  O   UNL     1       2.037   3.651   0.000  0.00  0.00    +0.000 OA
ENDBRANCH   4  18
BRANCH   5  21
ATOM     21  C   UNL     1       4.180   0.763   0.000  0.00  0.00    +0.000 C 
ATOM     22  O   UNL     1       4.180  -0.062   0.000  0.00  0.00    +0.000 OA
BRANCH  21  27
ATOM     23  C   UNL     1       6.324   1.176   0.000  0.00  0.00    +0.000 A 
ATOM     24  C   UNL     1       6.324   2.001   0.000  0.00  0.00    +0.000 A 
ATOM     25  C   UNL     1       5.609   0.763   0.000  0.00  0.00    +0.000 A 
ATOM     26  C   UNL     1       5.609   2.413   0.000  0.00  0.00    +0.000 A 
ATOM     27  C   UNL     1       4.895   1.176   0.000  0.00  0.00    +0.000 A 
ATOM     28  C   UNL     1       4.895   2.001   0.000  0.00  0.00    +0.000 A 
ATOM     29 CL   UNL     1       4.180   2.413   0.000  0.00  0.00    +0.000 Cl
ENDBRANCH  21  27
ENDBRANCH   5  21
TORSDOF 8
