REMARK  Name = 
REMARK  5 active torsions:
REMARK  status: ('A' for Active; 'I' for Inactive)
REMARK    1  A    between atoms: C_2  and  C_3
REMARK    2  A    between atoms: C_3  and  C_4
REMARK    3  A    between atoms: C_6  and  C_27
REMARK    4  A    between atoms: C_7  and  C_19
REMARK    5  A    between atoms: N_29  and  C_30
REMARK                            x       y       z     vdW  Elec       q    Type
REMARK                         _______ _______ _______ _____ _____    ______ ____
ROOT
ATOM      1  C   UNL     1       3.262   0.656   0.000  0.00  0.00    +0.000 C 
ATOM      2  N   UNL     1       3.902   0.135   0.000  0.00  0.00    +0.000 NA
ATOM      3  C   UNL     1       3.604  -0.634   0.000  0.00  0.00    +0.000 C 
ATOM      4  C   UNL     1       2.781  -0.589   0.000  0.00  0.00    +0.000 C 
ATOM      5  C   UNL     1       2.569   0.208   0.000  0.00  0.00    +0.000 C 
ATOM      6  C   UNL     1       2.614   1.032   0.000  0.00  0.00    +0.000 C 
ATOM      7  O   UNL     1       2.911   1.801   0.000  0.00  0.00    +0.000 OA
ATOM      8  N   UNL     1       1.844   1.329   0.000  0.00  0.00    +0.000 NA
ATOM      9  C   UNL     1       1.324   0.689   0.000  0.00  0.00    +0.000 A 
ATOM     10  C   UNL     1       1.772  -0.004   0.000  0.00  0.00    +0.000 A 
ATOM     11  C   UNL     1       1.395  -0.738   0.000  0.00  0.00    +0.000 A 
ATOM     12  C   UNL     1       0.571  -0.779   0.000  0.00  0.00    +0.000 A 
ATOM     13  C   UNL     1       0.124  -0.086   0.000  0.00  0.00    +0.000 A 
ATOM     14  C   UNL     1       0.500   0.648   0.000  0.00  0.00    +0.000 A 
ATOM     15 CL   UNL     1      -0.700  -0.128   0.000  0.00  0.00    +0.000 Cl
ENDROOT
BRANCH   4  16
ATOM     16  C   UNL     1       2.260  -1.229   0.000  0.00  0.00    +0.000 A 
ATOM     17  C   UNL     1       1.445  -1.098   0.000  0.00  0.00    +0.000 A 
ATOM     18  C   UNL     1       0.925  -1.738   0.000  0.00  0.00    +0.000 A 
ATOM     19  C   UNL     1       1.219  -2.509   0.000  0.00  0.00    +0.000 A 
ATOM     20  C   UNL     1       2.033  -2.640   0.000  0.00  0.00    +0.000 A 
ATOM     21  C   UNL     1       2.554  -2.000   0.000  0.00  0.00    +0.000 A 
ATOM     22 CL   UNL     1       0.110  -1.607   0.000  0.00  0.00    +0.000 Cl
ATOM     23  F   UNL     1       0.621  -1.140   0.000  0.00  0.00    +0.000 F 
ENDBRANCH   4  16
BRANCH   3  24
ATOM     24  C   UNL     1       4.052  -1.327   0.000  0.00  0.00    +0.000 C 
ATOM     25  O   UNL     1       3.676  -2.062   0.000  0.00  0.00    +0.000 OA
ATOM     26  N   UNL     1       4.876  -1.286   0.000  0.00  0.00    +0.000 NA
BRANCH  26  27
ATOM     27  C   UNL     1       5.324  -1.979   0.000  0.00  0.00    +0.000 C 
ATOM     28  C   UNL     1       6.148  -1.938   0.000  0.00  0.00    +0.000 C 
ATOM     29  C   UNL     1       6.596  -2.631   0.000  0.00  0.00    +0.000 C 
ATOM     30  C   UNL     1       6.219  -3.365   0.000  0.00  0.00    +0.000 C 
ATOM     31  C   UNL     1       5.395  -3.406   0.000  0.00  0.00    +0.000 C 
ATOM     32  C   UNL     1       4.948  -2.713   0.000  0.00  0.00    +0.000 C 
ATOM     33  O   UNL     1       6.667  -4.058   0.000  0.00  0.00    +0.000 OA
ENDBRANCH  26  27
ENDBRANCH   3  24
BRANCH   1  34
ATOM     34  C   UNL     1       3.307   1.480   0.000  0.00  0.00    +0.000 C 
BRANCH  34  36
ATOM     35  C   UNL     1       4.779   2.225   0.000  0.00  0.00    +0.000 C 
ATOM     36  C   UNL     1       4.043   1.852   0.000  0.00  0.00    +0.000 C 
ATOM     37  C   UNL     1       4.416   1.117   0.000  0.00  0.00    +0.000 C 
ATOM     38  C   UNL     1       3.670   2.588   0.000  0.00  0.00    +0.000 C 
ENDBRANCH  34  36
ENDBRANCH   1  34
TORSDOF 5
