REMARK  Name = 
REMARK  2 active torsions:
REMARK  status: ('A' for Active; 'I' for Inactive)
REMARK    1  A    between atoms: C_3  and  C_13
REMARK    2  A    between atoms: C_5  and  C_8
REMARK                            x       y       z     vdW  Elec       q    Type
REMARK                         _______ _______ _______ _____ _____    ______ ____
ROOT
ATOM      1  C   UNL     1      -0.886   1.149   0.000  0.00  0.00    +0.000 A 
ATOM      2  N   UNL     1      -0.551   0.395   0.000  0.00  0.00    +0.000 NA
ATOM      3  C   UNL     1      -1.707   1.236   0.000  0.00  0.00    +0.000 A 
ATOM      4  C   UNL     1      -1.037  -0.272   0.000  0.00  0.00    +0.000 A 
ATOM      5  C   UNL     1      -2.192   0.569   0.000  0.00  0.00    +0.000 A 
ATOM      6  N   UNL     1      -1.857  -0.184   0.000  0.00  0.00    +0.000 NA
ATOM      7  C   UNL     1      -2.042   1.990   0.000  0.00  0.00    +0.000 A 
ATOM      8  C   UNL     1      -2.862   2.077   0.000  0.00  0.00    +0.000 A 
ATOM      9  C   UNL     1      -3.012   0.656   0.000  0.00  0.00    +0.000 A 
ATOM     10  C   UNL     1      -3.347   1.410   0.000  0.00  0.00    +0.000 A 
ATOM     11  N   UNL     1      -0.702  -1.025   0.000  0.00  0.00    +0.000 N 
ATOM     12  C   UNL     1       0.118  -1.112   0.000  0.00  0.00    +0.000 C 
ATOM     13  C   UNL     1      -1.188  -1.692   0.000  0.00  0.00    +0.000 C 
ATOM     14  C   UNL     1       0.453  -1.866   0.000  0.00  0.00    +0.000 C 
ATOM     15  C   UNL     1      -0.853  -2.446   0.000  0.00  0.00    +0.000 C 
ATOM     16  N   UNL     1      -0.032  -2.533   0.000  0.00  0.00    +0.000 NA
ATOM     17  C   UNL     1       0.340  -3.086   0.000  0.00  0.00    +0.000 C 
ENDROOT
BRANCH   1  20
ATOM     18  C   UNL     1      -0.655   2.601   0.000  0.00  0.00    +0.000 C 
ATOM     19  N   UNL     1       0.013   3.086   0.000  0.00  0.00    +0.000 NA
ATOM     20  C   UNL     1      -0.401   1.816   0.000  0.00  0.00    +0.000 C 
ATOM     21  C   UNL     1       0.680   2.600   0.000  0.00  0.00    +0.000 C 
ATOM     22  C   UNL     1       0.424   1.816   0.000  0.00  0.00    +0.000 C 
ATOM     23  O   UNL     1      -1.240   2.997   0.000  0.00  0.00    +0.000 OA
ATOM     24  O   UNL     1       1.305   2.918   0.000  0.00  0.00    +0.000 OA
BRANCH  22  25
ATOM     25  C   UNL     1       0.909   1.148   0.000  0.00  0.00    +0.000 A 
ATOM     26  C   UNL     1       1.734   1.147   0.000  0.00  0.00    +0.000 A 
ATOM     27  C   UNL     1       0.653   0.363   0.000  0.00  0.00    +0.000 A 
ATOM     28  C   UNL     1       1.988   0.362   0.000  0.00  0.00    +0.000 A 
ATOM     29  N   UNL     1       1.320  -0.122   0.000  0.00  0.00    +0.000 NA
ATOM     30  C   UNL     1       2.286   1.760   0.000  0.00  0.00    +0.000 A 
ATOM     31  C   UNL     1       3.093   1.588   0.000  0.00  0.00    +0.000 A 
ATOM     32  C   UNL     1       2.795   0.190   0.000  0.00  0.00    +0.000 A 
ATOM     33  C   UNL     1       3.347   0.803   0.000  0.00  0.00    +0.000 A 
ENDBRANCH  22  25
ENDBRANCH   1  20
TORSDOF 2
