REMARK  Name = 
REMARK  2 active torsions:
REMARK  status: ('A' for Active; 'I' for Inactive)
REMARK    1  A    between atoms: C_6  and  C_9
REMARK    2  A    between atoms: C_9  and  C_11
REMARK                            x       y       z     vdW  Elec       q    Type
REMARK                         _______ _______ _______ _____ _____    ______ ____
ROOT
ATOM      1  C   UNL     1       3.572   6.766   0.000  0.00  0.00    +0.000 C 
ATOM      2  C   UNL     1       3.572   5.941   0.000  0.00  0.00    +0.000 A 
ATOM      3  C   UNL     1       4.287   5.529   0.000  0.00  0.00    +0.000 A 
ATOM      4  C   UNL     1       4.287   4.704   0.000  0.00  0.00    +0.000 A 
ATOM      5  C   UNL     1       3.572   4.291   0.000  0.00  0.00    +0.000 A 
ATOM      6  C   UNL     1       2.858   4.704   0.000  0.00  0.00    +0.000 A 
ATOM      7  C   UNL     1       2.858   5.529   0.000  0.00  0.00    +0.000 A 
ATOM      8  C   UNL     1       2.143   5.941   0.000  0.00  0.00    +0.000 C 
ENDROOT
BRANCH   6   9
ATOM      9  C   UNL     1       2.143   4.291   0.000  0.00  0.00    +0.000 C 
ATOM     10  C   UNL     1       1.429   4.704   0.000  0.00  0.00    +0.000 C 
BRANCH   9  11
ATOM     11  C   UNL     1       2.143   3.466   0.000  0.00  0.00    +0.000 A 
ATOM     12  C   UNL     1       2.811   2.981   0.000  0.00  0.00    +0.000 A 
ATOM     13  N   UNL     1       2.556   2.196   0.000  0.00  0.00    +0.000 NA
ATOM     14  C   UNL     1       1.731   2.196   0.000  0.00  0.00    +0.000 A 
ATOM     15  S   UNL     1       1.246   1.529   0.000  0.00  0.00    +0.000 S 
ATOM     16  N   UNL     1       1.476   2.981   0.000  0.00  0.00    +0.000 NA
ENDBRANCH   9  11
ENDBRANCH   6   9
TORSDOF 2
