REMARK  Name = 
REMARK  20 active torsions:
REMARK  status: ('A' for Active; 'I' for Inactive)
REMARK    1  A    between atoms: C_2  and  C_3
REMARK    2  A    between atoms: C_3  and  C_5
REMARK    3  A    between atoms: C_5  and  C_6
REMARK    4  A    between atoms: C_5  and  N_33
REMARK    5  A    between atoms: C_6  and  C_7
REMARK    6  A    between atoms: C_6  and  O_31
REMARK    7  A    between atoms: C_7  and  C_8
REMARK    8  A    between atoms: C_14  and  C_15
REMARK    9  A    between atoms: C_15  and  C_16
REMARK   10  A    between atoms: C_15  and  O_29
REMARK   11  A    between atoms: C_16  and  C_18
REMARK   12  A    between atoms: N_20  and  C_21
REMARK   13  A    between atoms: C_21  and  C_22
REMARK   14  A    between atoms: C_22  and  C_23
REMARK   15  A    between atoms: C_35  and  C_37
REMARK   16  A    between atoms: C_37  and  C_38
REMARK   17  A    between atoms: C_37  and  N_41
REMARK   18  A    between atoms: C_42  and  C_44
REMARK   19  A    between atoms: C_44  and  C_45
REMARK   20  A    between atoms: C_44  and  N_48
REMARK                            x       y       z     vdW  Elec       q    Type
REMARK                         _______ _______ _______ _____ _____    ______ ____
ROOT
ATOM      1  C   UNL     1       5.713  -5.450   0.000  0.00  0.00    +0.000 C 
ENDROOT
BRANCH   1   2
ATOM      2  O   UNL     1       5.557  -6.260   0.000  0.00  0.00    +0.000 OA
ATOM      3  C   UNL     1       6.181  -6.800   0.000  0.00  0.00    +0.000 C 
ENDBRANCH   1   2
BRANCH   1   4
ATOM      4  C   UNL     1       5.090  -4.910   0.000  0.00  0.00    +0.000 C 
BRANCH   4   5
ATOM      5  C   UNL     1       4.310  -5.180   0.000  0.00  0.00    +0.000 C 
ATOM      6  O   UNL     1       3.686  -4.640   0.000  0.00  0.00    +0.000 OA
ATOM      7  N   UNL     1       4.154  -5.990   0.000  0.00  0.00    +0.000 N 
ATOM      8  C   UNL     1       4.718  -6.592   0.000  0.00  0.00    +0.000 C 
ATOM      9  C   UNL     1       4.319  -7.315   0.000  0.00  0.00    +0.000 C 
ATOM     10  C   UNL     1       3.509  -7.159   0.000  0.00  0.00    +0.000 C 
ATOM     11  C   UNL     1       3.407  -6.340   0.000  0.00  0.00    +0.000 C 
BRANCH  11  12
ATOM     12  C   UNL     1       2.685  -5.941   0.000  0.00  0.00    +0.000 C 
BRANCH  12  13
ATOM     13  C   UNL     1       1.978  -6.368   0.000  0.00  0.00    +0.000 C 
ATOM     14  C   UNL     1       1.994  -7.193   0.000  0.00  0.00    +0.000 C 
BRANCH  13  15
ATOM     15  C   UNL     1       1.256  -5.969   0.000  0.00  0.00    +0.000 C 
ATOM     16  O   UNL     1       1.240  -5.144   0.000  0.00  0.00    +0.000 OA
ATOM     17  N   UNL     1       0.550  -6.395   0.000  0.00  0.00    +0.000 NA
BRANCH  17  18
ATOM     18  C   UNL     1      -0.173  -5.997   0.000  0.00  0.00    +0.000 C 
BRANCH  18  19
ATOM     19  C   UNL     1      -0.879  -6.423   0.000  0.00  0.00    +0.000 C 
BRANCH  19  20
ATOM     20  C   UNL     1      -1.601  -6.024   0.000  0.00  0.00    +0.000 A 
ATOM     21  C   UNL     1      -2.308  -6.451   0.000  0.00  0.00    +0.000 A 
ATOM     22  C   UNL     1      -3.030  -6.052   0.000  0.00  0.00    +0.000 A 
ATOM     23  C   UNL     1      -3.046  -5.227   0.000  0.00  0.00    +0.000 A 
ATOM     24  C   UNL     1      -2.340  -4.801   0.000  0.00  0.00    +0.000 A 
ATOM     25  C   UNL     1      -1.617  -5.199   0.000  0.00  0.00    +0.000 A 
ENDBRANCH  19  20
ENDBRANCH  18  19
ENDBRANCH  17  18
ENDBRANCH  13  15
ENDBRANCH  12  13
BRANCH  12  26
ATOM     26  O   UNL     1       2.669  -5.117   0.000  0.00  0.00    +0.000 OA
ATOM     27  C   UNL     1       1.946  -4.718   0.000  0.00  0.00    +0.000 C 
ENDBRANCH  12  26
ENDBRANCH  11  12
ENDBRANCH   4   5
ENDBRANCH   1   4
BRANCH   1  28
ATOM     28  C   UNL     1       6.493  -5.180   0.000  0.00  0.00    +0.000 C 
BRANCH  28  29
ATOM     29  N   UNL     1       7.116  -5.720   0.000  0.00  0.00    +0.000 N 
ATOM     30  C   UNL     1       6.960  -6.530   0.000  0.00  0.00    +0.000 C 
ATOM     31  C   UNL     1       7.896  -5.450   0.000  0.00  0.00    +0.000 C 
ATOM     32  O   UNL     1       8.052  -4.640   0.000  0.00  0.00    +0.000 OA
BRANCH  31  33
ATOM     33  C   UNL     1       8.520  -5.990   0.000  0.00  0.00    +0.000 C 
BRANCH  33  34
ATOM     34  C   UNL     1       8.364  -6.800   0.000  0.00  0.00    +0.000 C 
ATOM     35  C   UNL     1       8.987  -7.340   0.000  0.00  0.00    +0.000 C 
ATOM     36  C   UNL     1       7.584  -7.070   0.000  0.00  0.00    +0.000 C 
ENDBRANCH  33  34
BRANCH  33  37
ATOM     37  N   UNL     1       9.299  -5.720   0.000  0.00  0.00    +0.000 NA
ATOM     38  C   UNL     1       9.923  -6.260   0.000  0.00  0.00    +0.000 C 
ATOM     39  O   UNL     1       9.767  -7.070   0.000  0.00  0.00    +0.000 OA
BRANCH  38  40
ATOM     40  C   UNL     1      10.702  -5.990   0.000  0.00  0.00    +0.000 C 
BRANCH  40  41
ATOM     41  N   UNL     1      10.858  -5.180   0.000  0.00  0.00    +0.000 NA
ATOM     42  C   UNL     1      10.235  -4.640   0.000  0.00  0.00    +0.000 C 
ATOM     43  C   UNL     1      11.638  -4.910   0.000  0.00  0.00    +0.000 C 
ENDBRANCH  40  41
BRANCH  40  44
ATOM     44  C   UNL     1      11.326  -6.530   0.000  0.00  0.00    +0.000 C 
ATOM     45  C   UNL     1      12.105  -6.260   0.000  0.00  0.00    +0.000 C 
ATOM     46  C   UNL     1      11.170  -7.340   0.000  0.00  0.00    +0.000 C 
ENDBRANCH  40  44
ENDBRANCH  38  40
ENDBRANCH  33  37
ENDBRANCH  31  33
ENDBRANCH  28  29
BRANCH  28  47
ATOM     47  C   UNL     1       6.649  -4.370   0.000  0.00  0.00    +0.000 C 
ATOM     48  C   UNL     1       7.428  -4.100   0.000  0.00  0.00    +0.000 C 
BRANCH  47  50
ATOM     49  C   UNL     1       6.181  -3.020   0.000  0.00  0.00    +0.000 C 
ATOM     50  C   UNL     1       6.025  -3.830   0.000  0.00  0.00    +0.000 C 
ENDBRANCH  47  50
ENDBRANCH  28  47
ENDBRANCH   1  28
TORSDOF 20
