REMARK  Name = 
REMARK  6 active torsions:
REMARK  status: ('A' for Active; 'I' for Inactive)
REMARK    1  A    between atoms: C_2  and  N_3
REMARK    2  A    between atoms: N_3  and  C_4
REMARK    3  A    between atoms: N_3  and  C_6
REMARK    4  A    between atoms: C_6  and  C_7
REMARK    5  A    between atoms: C_7  and  N_8
REMARK    6  A    between atoms: C_14  and  C_16
REMARK                            x       y       z     vdW  Elec       q    Type
REMARK                         _______ _______ _______ _____ _____    ______ ____
ROOT
ATOM      1  N   UNL     1      -2.477   1.890   0.000  0.00  0.00    +0.000 N 
ATOM      2  C   UNL     1      -2.648   1.083   0.000  0.00  0.00    +0.000 C 
ATOM      3  C   UNL     1      -2.035   0.531   0.000  0.00  0.00    +0.000 C 
ATOM      4  C   UNL     1      -1.251   0.786   0.000  0.00  0.00    +0.000 A 
ATOM      5  C   UNL     1      -1.079   1.593   0.000  0.00  0.00    +0.000 A 
ATOM      6  C   UNL     1      -0.259   1.679   0.000  0.00  0.00    +0.000 A 
ATOM      7  C   UNL     1       0.077   0.926   0.000  0.00  0.00    +0.000 A 
ATOM      8  N   UNL     1      -0.536   0.374   0.000  0.00  0.00    +0.000 NA
ATOM      9  C   UNL     1       0.154   2.394   0.000  0.00  0.00    +0.000 C 
ATOM     10  C   UNL     1      -1.692   2.145   0.000  0.00  0.00    +0.000 C 
ATOM     11  O   UNL     1      -1.521   2.952   0.000  0.00  0.00    +0.000 OA
ENDROOT
BRANCH   7  12
ATOM     12  C   UNL     1       0.884   0.754   0.000  0.00  0.00    +0.000 C 
ATOM     13  C   UNL     1       1.139  -0.030   0.000  0.00  0.00    +0.000 C 
ATOM     14  C   UNL     1       1.923  -0.285   0.000  0.00  0.00    +0.000 A 
ATOM     15  C   UNL     1       2.638   0.127   0.000  0.00  0.00    +0.000 A 
ATOM     16  C   UNL     1       3.352  -0.285   0.000  0.00  0.00    +0.000 A 
ATOM     17  C   UNL     1       3.352  -1.110   0.000  0.00  0.00    +0.000 A 
ATOM     18  C   UNL     1       2.638  -1.523   0.000  0.00  0.00    +0.000 A 
ATOM     19  C   UNL     1       1.923  -1.110   0.000  0.00  0.00    +0.000 A 
ATOM     20  N   UNL     1       1.139  -1.365   0.000  0.00  0.00    +0.000 NA
ATOM     21  C   UNL     1       0.654  -0.698   0.000  0.00  0.00    +0.000 C 
ATOM     22  O   UNL     1      -0.171  -0.698   0.000  0.00  0.00    +0.000 OA
ATOM     23  F   UNL     1       4.067   0.127   0.000  0.00  0.00    +0.000 F 
ENDBRANCH   7  12
BRANCH   1  24
ATOM     24  C   UNL     1      -3.090   2.442   0.000  0.00  0.00    +0.000 C 
BRANCH  24  25
ATOM     25  C   UNL     1      -3.875   2.187   0.000  0.00  0.00    +0.000 C 
BRANCH  25  26
ATOM     26  N   UNL     1      -4.488   2.739   0.000  0.00  0.00    +0.000 NA
BRANCH  26  27
ATOM     27  C   UNL     1      -4.316   3.546   0.000  0.00  0.00    +0.000 C 
ATOM     28  C   UNL     1      -4.929   4.098   0.000  0.00  0.00    +0.000 C 
ENDBRANCH  26  27
BRANCH  26  30
ATOM     29  C   UNL     1      -5.886   3.036   0.000  0.00  0.00    +0.000 C 
ATOM     30  C   UNL     1      -5.272   2.484   0.000  0.00  0.00    +0.000 C 
ENDBRANCH  26  30
ENDBRANCH  25  26
ENDBRANCH  24  25
ENDBRANCH   1  24
TORSDOF 6
