REMARK  Name = 
REMARK  3 active torsions:
REMARK  status: ('A' for Active; 'I' for Inactive)
REMARK    1  A    between atoms: N_5  and  C_13
REMARK    2  A    between atoms: C_8  and  C_10
REMARK    3  A    between atoms: C_16  and  C_19
REMARK                            x       y       z     vdW  Elec       q    Type
REMARK                         _______ _______ _______ _____ _____    ______ ____
ROOT
ATOM      1  C   UNL     1       2.070   1.110   0.000  0.00  0.00    +0.000 A 
ATOM      2  C   UNL     1       1.356   0.698   0.000  0.00  0.00    +0.000 A 
ATOM      3  C   UNL     1       0.641   1.110   0.000  0.00  0.00    +0.000 A 
ATOM      4  C   UNL     1      -0.143   0.856   0.000  0.00  0.00    +0.000 A 
ATOM      5  N   UNL     1      -0.628   1.523   0.000  0.00  0.00    +0.000 N 
ATOM      6  N   UNL     1      -0.143   2.190   0.000  0.00  0.00    +0.000 NA
ATOM      7  C   UNL     1       0.641   1.935   0.000  0.00  0.00    +0.000 A 
ATOM      8  C   UNL     1       1.356   2.348   0.000  0.00  0.00    +0.000 A 
ATOM      9  C   UNL     1       2.070   1.935   0.000  0.00  0.00    +0.000 A 
ENDROOT
BRANCH   5  10
ATOM     10  C   UNL     1      -1.453   1.523   0.000  0.00  0.00    +0.000 A 
ATOM     11  C   UNL     1      -1.866   0.808   0.000  0.00  0.00    +0.000 A 
ATOM     12  C   UNL     1      -2.691   0.808   0.000  0.00  0.00    +0.000 A 
ATOM     13  C   UNL     1      -3.103   1.523   0.000  0.00  0.00    +0.000 A 
ATOM     14  C   UNL     1      -2.691   2.237   0.000  0.00  0.00    +0.000 A 
ATOM     15  C   UNL     1      -1.866   2.237   0.000  0.00  0.00    +0.000 A 
BRANCH  13  16
ATOM     16  C   UNL     1      -3.928   1.523   0.000  0.00  0.00    +0.000 C 
ATOM     17  C   UNL     1      -4.341   0.808   0.000  0.00  0.00    +0.000 C 
ATOM     18  C   UNL     1      -5.166   0.808   0.000  0.00  0.00    +0.000 C 
ATOM     19  C   UNL     1      -5.578   1.523   0.000  0.00  0.00    +0.000 C 
ATOM     20  N   UNL     1      -5.166   2.237   0.000  0.00  0.00    +0.000 NA
ATOM     21  C   UNL     1      -4.341   2.237   0.000  0.00  0.00    +0.000 C 
ENDBRANCH  13  16
ENDBRANCH   5  10
BRANCH   8  22
ATOM     22  C   UNL     1       1.356   3.173   0.000  0.00  0.00    +0.000 C 
ATOM     23  O   UNL     1       2.070   3.585   0.000  0.00  0.00    +0.000 OA
ATOM     24  N   UNL     1       0.641   3.585   0.000  0.00  0.00    +0.000 NA
ENDBRANCH   8  22
TORSDOF 3
