REMARK  Name = 
REMARK  2 active torsions:
REMARK  status: ('A' for Active; 'I' for Inactive)
REMARK    1  A    between atoms: N_2  and  C_5
REMARK    2  A    between atoms: C_12  and  C_19
REMARK                            x       y       z     vdW  Elec       q    Type
REMARK                         _______ _______ _______ _____ _____    ______ ____
ROOT
ATOM      1  C   UNL     1       0.706  -0.825   0.000  0.00  0.00    +0.000 A 
ATOM      2  N   UNL     1       1.420  -0.412   0.000  0.00  0.00    +0.000 N 
ATOM      3  C   UNL     1       0.706  -1.650   0.000  0.00  0.00    +0.000 A 
ATOM      4  N   UNL     1      -0.009  -0.412   0.000  0.00  0.00    +0.000 NA
ATOM      5  C   UNL     1       2.135  -0.825   0.000  0.00  0.00    +0.000 A 
ATOM      6  C   UNL     1       1.420  -2.062   0.000  0.00  0.00    +0.000 A 
ATOM      7  C   UNL     1      -0.009  -2.062   0.000  0.00  0.00    +0.000 A 
ATOM      8  C   UNL     1      -0.723  -0.825   0.000  0.00  0.00    +0.000 A 
ATOM      9  C   UNL     1       2.135  -1.650   0.000  0.00  0.00    +0.000 A 
ATOM     10  O   UNL     1       1.420  -2.887   0.000  0.00  0.00    +0.000 OA
ATOM     11  C   UNL     1      -0.723  -1.650   0.000  0.00  0.00    +0.000 A 
ATOM     12  N   UNL     1      -1.438  -0.412   0.000  0.00  0.00    +0.000 N 
ATOM     13  F   UNL     1      -1.438  -2.062   0.000  0.00  0.00    +0.000 F 
ATOM     14  C   UNL     1      -2.191  -0.748   0.000  0.00  0.00    +0.000 C 
ATOM     15  C   UNL     1      -1.524   0.408   0.000  0.00  0.00    +0.000 C 
ATOM     16  C   UNL     1      -2.743  -0.135   0.000  0.00  0.00    +0.000 C 
ATOM     17  C   UNL     1      -2.331   0.580   0.000  0.00  0.00    +0.000 C 
ATOM     18  N   UNL     1      -3.564  -0.221   0.000  0.00  0.00    +0.000 NA
ENDROOT
BRANCH   2  19
ATOM     19  C   UNL     1       1.420   0.412   0.000  0.00  0.00    +0.000 A 
ATOM     20  C   UNL     1       0.706   0.825   0.000  0.00  0.00    +0.000 A 
ATOM     21  C   UNL     1       2.135   0.825   0.000  0.00  0.00    +0.000 A 
ATOM     22  C   UNL     1       0.706   1.650   0.000  0.00  0.00    +0.000 A 
ATOM     23  F   UNL     1      -0.009   0.412   0.000  0.00  0.00    +0.000 F 
ATOM     24  C   UNL     1       2.135   1.650   0.000  0.00  0.00    +0.000 A 
ATOM     25  C   UNL     1       1.420   2.062   0.000  0.00  0.00    +0.000 A 
ATOM     26  F   UNL     1       1.420   2.888   0.000  0.00  0.00    +0.000 F 
ENDBRANCH   2  19
BRANCH   9  27
ATOM     27  C   UNL     1       2.849  -2.062   0.000  0.00  0.00    +0.000 C 
ATOM     28  O   UNL     1       2.849  -2.887   0.000  0.00  0.00    +0.000 OA
ATOM     29  O   UNL     1       3.564  -1.650   0.000  0.00  0.00    +0.000 OA
ENDBRANCH   9  27
TORSDOF 2
