REMARK  Name = 
REMARK  10 active torsions:
REMARK  status: ('A' for Active; 'I' for Inactive)
REMARK    1  A    between atoms: C_2  and  N_5
REMARK    2  A    between atoms: C_6  and  C_8
REMARK    3  A    between atoms: C_11  and  O_28
REMARK    4  A    between atoms: C_12  and  N_14
REMARK    5  A    between atoms: N_14  and  S_15
REMARK    6  A    between atoms: S_15  and  C_18
REMARK    7  A    between atoms: C_21  and  C_25
REMARK    8  A    between atoms: O_28  and  C_29
REMARK    9  A    between atoms: C_32  and  C_36
REMARK   10  A    between atoms: C_36  and  C_37
REMARK                            x       y       z     vdW  Elec       q    Type
REMARK                         _______ _______ _______ _____ _____    ______ ____
ROOT
ATOM      1  C   UNL     1       2.858  -2.475   0.000  0.00  0.00    +0.000 A 
ATOM      2  C   UNL     1       2.858  -1.650   0.000  0.00  0.00    +0.000 A 
ATOM      3  C   UNL     1       2.143  -1.238   0.000  0.00  0.00    +0.000 A 
ATOM      4  C   UNL     1       1.429  -1.650   0.000  0.00  0.00    +0.000 A 
ATOM      5  C   UNL     1       1.429  -2.475   0.000  0.00  0.00    +0.000 A 
ATOM      6  C   UNL     1       2.143  -2.888   0.000  0.00  0.00    +0.000 A 
ENDROOT
BRANCH   1   8
ATOM      7  N   UNL     1       3.572  -3.712   0.000  0.00  0.00    +0.000 NA
ATOM      8  C   UNL     1       3.572  -2.888   0.000  0.00  0.00    +0.000 C 
ATOM      9  O   UNL     1       4.287  -2.475   0.000  0.00  0.00    +0.000 OA
BRANCH   7  11
ATOM     10  C   UNL     1       2.143  -4.537   0.000  0.00  0.00    +0.000 C 
ATOM     11  C   UNL     1       2.858  -4.125   0.000  0.00  0.00    +0.000 C 
ATOM     12  C   UNL     1       3.270  -4.840   0.000  0.00  0.00    +0.000 C 
ATOM     13  C   UNL     1       2.445  -3.410   0.000  0.00  0.00    +0.000 C 
ENDBRANCH   7  11
ENDBRANCH   1   8
BRANCH   5  14
ATOM     14  N   UNL     1       0.715  -2.888   0.000  0.00  0.00    +0.000 NA
BRANCH  14  15
ATOM     15  S   UNL     1       0.715  -3.712   0.000  0.00  0.00    +0.000 S 
ATOM     16  O   UNL     1      -0.111  -3.712   0.000  0.00  0.00    +0.000 OA
ATOM     17  O   UNL     1       1.540  -3.712   0.000  0.00  0.00    +0.000 OA
BRANCH  15  18
ATOM     18  C   UNL     1       0.715  -4.537   0.000  0.00  0.00    +0.000 A 
ATOM     19  C   UNL     1       1.429  -4.950   0.000  0.00  0.00    +0.000 A 
ATOM     20  C   UNL     1       1.429  -5.775   0.000  0.00  0.00    +0.000 A 
ATOM     21  C   UNL     1       0.715  -6.188   0.000  0.00  0.00    +0.000 A 
ATOM     22  C   UNL     1       0.000  -5.775   0.000  0.00  0.00    +0.000 A 
ATOM     23  C   UNL     1       0.000  -4.950   0.000  0.00  0.00    +0.000 A 
ATOM     24 CL   UNL     1      -0.715  -4.537   0.000  0.00  0.00    +0.000 Cl
BRANCH  21  25
ATOM     25  C   UNL     1       0.715  -7.013   0.000  0.00  0.00    +0.000 C 
ATOM     26  C   UNL     1       1.127  -7.727   0.000  0.00  0.00    +0.000 C 
ATOM     27  C   UNL     1       0.302  -7.727   0.000  0.00  0.00    +0.000 C 
ENDBRANCH  21  25
ENDBRANCH  15  18
ENDBRANCH  14  15
ENDBRANCH   5  14
BRANCH   4  28
ATOM     28  O   UNL     1       0.715  -1.238   0.000  0.00  0.00    +0.000 OA
BRANCH  28  29
ATOM     29  C   UNL     1       0.715  -0.412   0.000  0.00  0.00    +0.000 A 
ATOM     30  C   UNL     1       0.000   0.000   0.000  0.00  0.00    +0.000 A 
ATOM     31  C   UNL     1       0.000   0.825   0.000  0.00  0.00    +0.000 A 
ATOM     32  C   UNL     1       0.715   1.238   0.000  0.00  0.00    +0.000 A 
ATOM     33  C   UNL     1       1.429   0.825   0.000  0.00  0.00    +0.000 A 
ATOM     34  C   UNL     1       1.429   0.000   0.000  0.00  0.00    +0.000 A 
ATOM     35 CL   UNL     1       2.143  -0.412   0.000  0.00  0.00    +0.000 Cl
ATOM     36  F   UNL     1      -0.715   1.238   0.000  0.00  0.00    +0.000 F 
BRANCH  32  37
ATOM     37  C   UNL     1       0.715   2.062   0.000  0.00  0.00    +0.000 C 
BRANCH  37  38
ATOM     38  C   UNL     1       1.429   2.475   0.000  0.00  0.00    +0.000 C 
ATOM     39  O   UNL     1       1.429   3.300   0.000  0.00  0.00    +0.000 OA
ATOM     40  O   UNL     1       2.143   2.062   0.000  0.00  0.00    +0.000 OA
ENDBRANCH  37  38
ENDBRANCH  32  37
ENDBRANCH  28  29
ENDBRANCH   4  28
TORSDOF 10
