REMARK  Name = 
REMARK  13 active torsions:
REMARK  status: ('A' for Active; 'I' for Inactive)
REMARK    1  A    between atoms: N_1  and  C_3
REMARK    2  A    between atoms: C_8  and  O_44
REMARK    3  A    between atoms: C_12  and  C_16
REMARK    4  A    between atoms: C_16  and  O_18
REMARK    5  A    between atoms: O_18  and  P_42
REMARK    6  A    between atoms: O_19  and  C_20
REMARK    7  A    between atoms: O_19  and  P_40
REMARK    8  A    between atoms: C_20  and  C_21
REMARK    9  A    between atoms: C_24  and  N_27
REMARK   10  A    between atoms: C_31  and  C_34
REMARK   11  A    between atoms: O_37  and  P_40
REMARK   12  A    between atoms: O_37  and  P_42
REMARK   13  A    between atoms: O_44  and  P_47
REMARK                            x       y       z     vdW  Elec       q    Type
REMARK                         _______ _______ _______ _____ _____    ______ ____
ROOT
ATOM      1  O   UNL     1       0.373  -2.710   0.000  0.00  0.00    +0.000 OA
ATOM      2  P   UNL     1       0.373  -1.883   0.000  0.00  0.00    +0.000 P 
ATOM      3  O   UNL     1       0.373  -1.055   0.000  0.00  0.00    +0.000 OA
ENDROOT
BRANCH   2   4
ATOM      4  O   UNL     1      -0.350  -1.475   0.000  0.00  0.00    +0.000 OA
BRANCH   4   6
ATOM      5  O   UNL     1      -1.061  -2.710   0.000  0.00  0.00    +0.000 OA
ATOM      6  P   UNL     1      -1.061  -1.883   0.000  0.00  0.00    +0.000 P 
ATOM      7  O   UNL     1      -1.061  -1.055   0.000  0.00  0.00    +0.000 OA
BRANCH   6   8
ATOM      8  O   UNL     1      -1.772  -1.475   0.000  0.00  0.00    +0.000 OA
BRANCH   8   9
ATOM      9  C   UNL     1      -2.436  -1.953   0.000  0.00  0.00    +0.000 C 
BRANCH   9  10
ATOM     10  C   UNL     1      -3.194  -1.615   0.000  0.00  0.00    +0.000 C 
ATOM     11  O   UNL     1      -3.357  -0.810   0.000  0.00  0.00    +0.000 OA
ATOM     12  C   UNL     1      -3.905  -2.034   0.000  0.00  0.00    +0.000 C 
ATOM     13  C   UNL     1      -4.185  -0.729   0.000  0.00  0.00    +0.000 C 
ATOM     14  C   UNL     1      -4.511  -1.475   0.000  0.00  0.00    +0.000 C 
ATOM     15  O   UNL     1      -3.987  -2.850   0.000  0.00  0.00    +0.000 OA
ATOM     16  O   UNL     1      -5.327  -1.649   0.000  0.00  0.00    +0.000 OA
BRANCH  13  17
ATOM     17  N   UNL     1      -4.593  -0.017   0.000  0.00  0.00    +0.000 N 
ATOM     18  C   UNL     1      -4.185   0.705   0.000  0.00  0.00    +0.000 A 
ATOM     19  C   UNL     1      -5.421  -0.017   0.000  0.00  0.00    +0.000 A 
ATOM     20  C   UNL     1      -4.593   1.416   0.000  0.00  0.00    +0.000 A 
ATOM     21  C   UNL     1      -5.829   0.705   0.000  0.00  0.00    +0.000 A 
ATOM     22  C   UNL     1      -5.421   1.416   0.000  0.00  0.00    +0.000 A 
BRANCH  20  23
ATOM     23  C   UNL     1      -4.185   2.127   0.000  0.00  0.00    +0.000 C 
ATOM     24  O   UNL     1      -4.593   2.839   0.000  0.00  0.00    +0.000 OA
ATOM     25  N   UNL     1      -3.357   2.127   0.000  0.00  0.00    +0.000 NA
ENDBRANCH  20  23
ENDBRANCH  13  17
ENDBRANCH   9  10
ENDBRANCH   8   9
ENDBRANCH   6   8
ENDBRANCH   4   6
ENDBRANCH   2   4
BRANCH   2  26
ATOM     26  O   UNL     1       1.084  -1.475   0.000  0.00  0.00    +0.000 OA
BRANCH  26  27
ATOM     27  C   UNL     1       1.830  -1.801   0.000  0.00  0.00    +0.000 C 
BRANCH  27  31
ATOM     28  C   UNL     1       3.287  -0.239   0.000  0.00  0.00    +0.000 C 
ATOM     29  O   UNL     1       2.506  -0.495   0.000  0.00  0.00    +0.000 OA
ATOM     30  C   UNL     1       3.765  -0.903   0.000  0.00  0.00    +0.000 C 
ATOM     31  C   UNL     1       2.506  -1.323   0.000  0.00  0.00    +0.000 C 
ATOM     32  C   UNL     1       3.287  -1.579   0.000  0.00  0.00    +0.000 C 
ATOM     33  O   UNL     1       3.544  -2.361   0.000  0.00  0.00    +0.000 OA
BRANCH  28  34
ATOM     34  N   UNL     1       3.544   0.542   0.000  0.00  0.00    +0.000 N 
ATOM     35  C   UNL     1       4.325   0.798   0.000  0.00  0.00    +0.000 A 
ATOM     36  C   UNL     1       3.054   1.207   0.000  0.00  0.00    +0.000 A 
ATOM     37  C   UNL     1       4.325   1.615   0.000  0.00  0.00    +0.000 A 
ATOM     38  N   UNL     1       5.036   0.379   0.000  0.00  0.00    +0.000 NA
ATOM     39  N   UNL     1       3.544   1.871   0.000  0.00  0.00    +0.000 NA
ATOM     40  C   UNL     1       5.036   2.034   0.000  0.00  0.00    +0.000 A 
ATOM     41  C   UNL     1       5.747   0.798   0.000  0.00  0.00    +0.000 A 
ATOM     42  N   UNL     1       5.747   1.615   0.000  0.00  0.00    +0.000 NA
ATOM     43  N   UNL     1       5.036   2.850   0.000  0.00  0.00    +0.000 NA
ENDBRANCH  28  34
BRANCH  30  44
ATOM     44  O   UNL     1       4.593  -0.903   0.000  0.00  0.00    +0.000 OA
BRANCH  44  47
ATOM     45  O   UNL     1       4.593  -2.337   0.000  0.00  0.00    +0.000 OA
ATOM     46  O   UNL     1       5.829  -1.626   0.000  0.00  0.00    +0.000 OA
ATOM     47  P   UNL     1       5.001  -1.626   0.000  0.00  0.00    +0.000 P 
ATOM     48  O   UNL     1       5.421  -2.337   0.000  0.00  0.00    +0.000 OA
ENDBRANCH  44  47
ENDBRANCH  30  44
ENDBRANCH  27  31
ENDBRANCH  26  27
ENDBRANCH   2  26
TORSDOF 13
