REMARK  Name = 
REMARK  0 active torsions:
REMARK  status: ('A' for Active; 'I' for Inactive)
REMARK                            x       y       z     vdW  Elec       q    Type
REMARK                         _______ _______ _______ _____ _____    ______ ____
ROOT
ATOM      1 CA   UNL     1      -1.595   0.000   0.000  0.00  0.00    +0.000 Ca
ENDROOT
TORSDOF 0
REMARK  Name = 
REMARK  0 active torsions:
REMARK  status: ('A' for Active; 'I' for Inactive)
REMARK                            x       y       z     vdW  Elec       q    Type
REMARK                         _______ _______ _______ _____ _____    ______ ____
ROOT
ATOM      1  O   UNL     1       0.770   0.825   0.000  0.00  0.00    +0.000 OA
ATOM      2  O   UNL     1       0.770  -0.825   0.000  0.00  0.00    +0.000 OA
ATOM      3  O   UNL     1       1.595   0.000   0.000  0.00  0.00    +0.000 OA
ATOM      4  S   UNL     1       0.770   0.000   0.000  0.00  0.00    +0.000 S 
ATOM      5  O   UNL     1      -0.055   0.000   0.000  0.00  0.00    +0.000 OA
ENDROOT
TORSDOF 0
