REMARK  Name = 
REMARK  5 active torsions:
REMARK  status: ('A' for Active; 'I' for Inactive)
REMARK    1  A    between atoms: C_3  and  C_22
REMARK    2  A    between atoms: N_10  and  C_11
REMARK    3  A    between atoms: C_11  and  C_12
REMARK    4  A    between atoms: C_15  and  S_18
REMARK    5  A    between atoms: C_22  and  C_23
REMARK                            x       y       z     vdW  Elec       q    Type
REMARK                         _______ _______ _______ _____ _____    ______ ____
ROOT
ATOM      1  C   UNL     1      -0.171  -0.698   0.000  0.00  0.00    +0.000 C 
ATOM      2  C   UNL     1       0.654  -0.698   0.000  0.00  0.00    +0.000 A 
ATOM      3  C   UNL     1       1.139  -0.030   0.000  0.00  0.00    +0.000 A 
ATOM      4  C   UNL     1       1.923  -0.285   0.000  0.00  0.00    +0.000 A 
ATOM      5  C   UNL     1       2.638   0.127   0.000  0.00  0.00    +0.000 A 
ATOM      6  C   UNL     1       3.352  -0.285   0.000  0.00  0.00    +0.000 A 
ATOM      7  C   UNL     1       3.352  -1.110   0.000  0.00  0.00    +0.000 A 
ATOM      8  N   UNL     1       2.638  -1.523   0.000  0.00  0.00    +0.000 NA
ATOM      9  C   UNL     1       1.923  -1.110   0.000  0.00  0.00    +0.000 A 
ATOM     10  N   UNL     1       1.139  -1.365   0.000  0.00  0.00    +0.000 N 
ENDROOT
BRANCH  10  11
ATOM     11  C   UNL     1       0.884  -2.150   0.000  0.00  0.00    +0.000 C 
BRANCH  11  12
ATOM     12  C   UNL     1       1.436  -2.763   0.000  0.00  0.00    +0.000 A 
ATOM     13  C   UNL     1       2.243  -2.592   0.000  0.00  0.00    +0.000 A 
ATOM     14  C   UNL     1       2.795  -3.205   0.000  0.00  0.00    +0.000 A 
ATOM     15  C   UNL     1       2.540  -3.989   0.000  0.00  0.00    +0.000 A 
ATOM     16  C   UNL     1       1.733  -4.161   0.000  0.00  0.00    +0.000 A 
ATOM     17  C   UNL     1       1.181  -3.548   0.000  0.00  0.00    +0.000 A 
BRANCH  15  18
ATOM     18  S   UNL     1       3.092  -4.602   0.000  0.00  0.00    +0.000 S 
ATOM     19  O   UNL     1       3.644  -5.215   0.000  0.00  0.00    +0.000 OA
ATOM     20  O   UNL     1       3.705  -4.050   0.000  0.00  0.00    +0.000 OA
ATOM     21  C   UNL     1       2.479  -5.154   0.000  0.00  0.00    +0.000 C 
ENDBRANCH  15  18
ENDBRANCH  11  12
ENDBRANCH  10  11
BRANCH   3  22
ATOM     22  C   UNL     1       0.884   0.754   0.000  0.00  0.00    +0.000 C 
BRANCH  22  23
ATOM     23  C   UNL     1       1.436   1.367   0.000  0.00  0.00    +0.000 C 
ATOM     24  O   UNL     1       1.181   2.152   0.000  0.00  0.00    +0.000 OA
ATOM     25  O   UNL     1       2.243   1.196   0.000  0.00  0.00    +0.000 OA
ENDBRANCH  22  23
ENDBRANCH   3  22
TORSDOF 5
