REMARK  Name = 
REMARK  5 active torsions:
REMARK  status: ('A' for Active; 'I' for Inactive)
REMARK    1  A    between atoms: C_2  and  C_3
REMARK    2  A    between atoms: C_25  and  C_26
REMARK    3  A    between atoms: N_27  and  O_28
REMARK    4  A    between atoms: O_28  and  C_29
REMARK    5  A    between atoms: C_29  and  C_30
REMARK                            x       y       z     vdW  Elec       q    Type
REMARK                         _______ _______ _______ _____ _____    ______ ____
ROOT
ATOM      1  C   UNL     1       5.617  -0.372   0.000  0.00  0.00    +0.000 C 
ATOM      2  C   UNL     1       5.064   0.241   0.000  0.00  0.00    +0.000 A 
ATOM      3  C   UNL     1       4.258   0.069   0.000  0.00  0.00    +0.000 A 
ATOM      4  C   UNL     1       3.705   0.682   0.000  0.00  0.00    +0.000 A 
ATOM      5  N   UNL     1       3.960   1.467   0.000  0.00  0.00    +0.000 N 
ATOM      6  C   UNL     1       4.767   1.639   0.000  0.00  0.00    +0.000 A 
ATOM      7  O   UNL     1       5.022   2.423   0.000  0.00  0.00    +0.000 OA
ATOM      8  C   UNL     1       5.319   1.026   0.000  0.00  0.00    +0.000 A 
ATOM      9  C   UNL     1       6.126   1.197   0.000  0.00  0.00    +0.000 C 
ATOM     10  O   UNL     1       6.678   0.584   0.000  0.00  0.00    +0.000 OA
ATOM     11  C   UNL     1       6.423  -0.201   0.000  0.00  0.00    +0.000 C 
ATOM     12  O   UNL     1       6.976  -0.814   0.000  0.00  0.00    +0.000 OA
ATOM     13  C   UNL     1       3.293   1.952   0.000  0.00  0.00    +0.000 C 
ATOM     14  C   UNL     1       2.626   1.467   0.000  0.00  0.00    +0.000 A 
ATOM     15  C   UNL     1       2.880   0.682   0.000  0.00  0.00    +0.000 A 
ATOM     16  N   UNL     1       2.328   0.069   0.000  0.00  0.00    +0.000 NA
ATOM     17  C   UNL     1       1.521   0.241   0.000  0.00  0.00    +0.000 A 
ATOM     18  C   UNL     1       0.969  -0.372   0.000  0.00  0.00    +0.000 A 
ATOM     19  C   UNL     1       0.162  -0.201   0.000  0.00  0.00    +0.000 A 
ATOM     20  C   UNL     1      -0.092   0.584   0.000  0.00  0.00    +0.000 A 
ATOM     21  C   UNL     1       0.460   1.197   0.000  0.00  0.00    +0.000 A 
ATOM     22  C   UNL     1       1.266   1.026   0.000  0.00  0.00    +0.000 A 
ATOM     23  C   UNL     1       1.819   1.639   0.000  0.00  0.00    +0.000 A 
ATOM     24  O   UNL     1       4.917  -0.809   0.000  0.00  0.00    +0.000 OA
ENDROOT
BRANCH   1  26
ATOM     25  C   UNL     1       5.418  -1.787   0.000  0.00  0.00    +0.000 C 
ATOM     26  C   UNL     1       5.926  -1.137   0.000  0.00  0.00    +0.000 C 
ENDBRANCH   1  26
BRANCH  23  27
ATOM     27  C   UNL     1       1.564   2.423   0.000  0.00  0.00    +0.000 C 
ATOM     28  N   UNL     1       2.116   3.036   0.000  0.00  0.00    +0.000 NA
BRANCH  28  29
ATOM     29  O   UNL     1       1.861   3.821   0.000  0.00  0.00    +0.000 OA
BRANCH  29  30
ATOM     30  C   UNL     1       1.054   3.993   0.000  0.00  0.00    +0.000 C 
BRANCH  30  31
ATOM     31  C   UNL     1       0.799   4.777   0.000  0.00  0.00    +0.000 C 
ATOM     32  N   UNL     1      -0.008   4.949   0.000  0.00  0.00    +0.000 NA
ENDBRANCH  30  31
ENDBRANCH  29  30
ENDBRANCH  28  29
ENDBRANCH  23  27
TORSDOF 5
