REMARK  Name = 
REMARK  5 active torsions:
REMARK  status: ('A' for Active; 'I' for Inactive)
REMARK    1  A    between atoms: C_2  and  C_3
REMARK    2  A    between atoms: C_3  and  C_5
REMARK    3  A    between atoms: C_5  and  C_7
REMARK    4  A    between atoms: C_7  and  C_9
REMARK    5  A    between atoms: C_9  and  C_11
REMARK                            x       y       z     vdW  Elec       q    Type
REMARK                         _______ _______ _______ _____ _____    ______ ____
ROOT
ATOM      1  C   UNL     1       3.189   1.841   0.000  0.00  0.00    +0.000 C 
ATOM      2  O   UNL     1       3.189   2.666   0.000  0.00  0.00    +0.000 OA
ENDROOT
BRANCH   1   3
ATOM      3  C   UNL     1       2.475   1.429   0.000  0.00  0.00    +0.000 C 
ATOM      4  O   UNL     1       2.475   0.604   0.000  0.00  0.00    +0.000 OA
BRANCH   3   6
ATOM      5  O   UNL     1       1.046   1.429   0.000  0.00  0.00    +0.000 OA
ATOM      6  C   UNL     1       1.760   1.841   0.000  0.00  0.00    +0.000 C 
ENDBRANCH   3   6
ENDBRANCH   1   3
BRANCH   1   7
ATOM      7  C   UNL     1       3.904   1.429   0.000  0.00  0.00    +0.000 C 
ATOM      8  O   UNL     1       3.904   0.604   0.000  0.00  0.00    +0.000 OA
BRANCH   7   9
ATOM      9  C   UNL     1       4.618   1.841   0.000  0.00  0.00    +0.000 C 
ATOM     10  F   UNL     1       4.618   2.666   0.000  0.00  0.00    +0.000 F 
BRANCH   9  11
ATOM     11  C   UNL     1       5.333   1.429   0.000  0.00  0.00    +0.000 C 
ATOM     12  O   UNL     1       6.047   1.841   0.000  0.00  0.00    +0.000 OA
ENDBRANCH   9  11
ENDBRANCH   7   9
ENDBRANCH   1   7
TORSDOF 5
