REMARK  Name = 
REMARK  6 active torsions:
REMARK  status: ('A' for Active; 'I' for Inactive)
REMARK    1  A    between atoms: C_4  and  O_39
REMARK    2  A    between atoms: C_6  and  O_8
REMARK    3  A    between atoms: O_8  and  C_9
REMARK    4  A    between atoms: C_24  and  O_32
REMARK    5  A    between atoms: C_25  and  C_26
REMARK    6  A    between atoms: O_32  and  C_33
REMARK                            x       y       z     vdW  Elec       q    Type
REMARK                         _______ _______ _______ _____ _____    ______ ____
ROOT
ATOM      1  C   UNL     1       6.451   0.558   0.000  0.00  0.00    +0.000 C 
ATOM      2  C   UNL     1       6.171  -0.218   0.000  0.00  0.00    +0.000 C 
ATOM      3  C   UNL     1       5.359  -0.363   0.000  0.00  0.00    +0.000 C 
ATOM      4  C   UNL     1       4.827   0.267   0.000  0.00  0.00    +0.000 C 
ATOM      5  C   UNL     1       5.107   1.043   0.000  0.00  0.00    +0.000 C 
ATOM      6  C   UNL     1       5.919   1.188   0.000  0.00  0.00    +0.000 C 
ATOM      7  C   UNL     1       4.575   1.674   0.000  0.00  0.00    +0.000 C 
ATOM      8  C   UNL     1       3.763   1.529   0.000  0.00  0.00    +0.000 C 
ATOM      9  C   UNL     1       3.483   0.753   0.000  0.00  0.00    +0.000 C 
ATOM     10  C   UNL     1       4.015   0.122   0.000  0.00  0.00    +0.000 C 
ATOM     11  C   UNL     1       3.735  -0.654   0.000  0.00  0.00    +0.000 C 
ATOM     12  C   UNL     1       2.922  -0.799   0.000  0.00  0.00    +0.000 C 
ATOM     13  C   UNL     1       2.390  -0.168   0.000  0.00  0.00    +0.000 C 
ATOM     14  C   UNL     1       2.671   0.608   0.000  0.00  0.00    +0.000 C 
ATOM     15  C   UNL     1       2.019   1.114   0.000  0.00  0.00    +0.000 C 
ATOM     16  C   UNL     1       1.337   0.651   0.000  0.00  0.00    +0.000 C 
ATOM     17  C   UNL     1       1.566  -0.142   0.000  0.00  0.00    +0.000 C 
ATOM     18  O   UNL     1       2.869   1.409   0.000  0.00  0.00    +0.000 OA
ATOM     19  C   UNL     1       2.031  -0.911   0.000  0.00  0.00    +0.000 C 
ATOM     20  C   UNL     1       4.547  -0.509   0.000  0.00  0.00    +0.000 C 
ENDROOT
BRANCH  17  21
ATOM     21  C   UNL     1       1.060  -0.793   0.000  0.00  0.00    +0.000 C 
ATOM     22  C   UNL     1       1.289  -1.585   0.000  0.00  0.00    +0.000 C 
ATOM     23  C   UNL     1       0.606  -2.048   0.000  0.00  0.00    +0.000 C 
ATOM     24  O   UNL     1       0.579  -2.873   0.000  0.00  0.00    +0.000 OA
ATOM     25  O   UNL     1      -0.045  -1.542   0.000  0.00  0.00    +0.000 OA
ATOM     26  C   UNL     1       0.235  -0.766   0.000  0.00  0.00    +0.000 C 
ENDBRANCH  17  21
BRANCH   1  27
ATOM     27  O   UNL     1       7.263   0.703   0.000  0.00  0.00    +0.000 OA
BRANCH  27  33
ATOM     28  C   UNL     1       9.951  -0.268   0.000  0.00  0.00    +0.000 C 
ATOM     29  C   UNL     1       9.139  -0.413   0.000  0.00  0.00    +0.000 C 
ATOM     30  C   UNL     1       8.859  -1.189   0.000  0.00  0.00    +0.000 C 
ATOM     31  C   UNL     1       8.047  -1.334   0.000  0.00  0.00    +0.000 C 
ATOM     32  C   UNL     1       7.515  -0.704   0.000  0.00  0.00    +0.000 C 
ATOM     33  C   UNL     1       7.795   0.072   0.000  0.00  0.00    +0.000 C 
ATOM     34  O   UNL     1       8.607   0.217   0.000  0.00  0.00    +0.000 OA
ATOM     35  O   UNL     1       9.390  -1.820   0.000  0.00  0.00    +0.000 OA
BRANCH  31  36
ATOM     36  O   UNL     1       7.766  -2.110   0.000  0.00  0.00    +0.000 OA
ATOM     37  C   UNL     1       8.298  -2.741   0.000  0.00  0.00    +0.000 C 
ENDBRANCH  31  36
ENDBRANCH  27  33
ENDBRANCH   1  27
BRANCH  16  38
ATOM     38  O   UNL     1       0.561   0.931   0.000  0.00  0.00    +0.000 OA
BRANCH  38  39
ATOM     39  C   UNL     1       0.415   1.743   0.000  0.00  0.00    +0.000 C 
ATOM     40  O   UNL     1      -0.360   2.024   0.000  0.00  0.00    +0.000 OA
ATOM     41  C   UNL     1       1.046   2.275   0.000  0.00  0.00    +0.000 C 
ENDBRANCH  38  39
ENDBRANCH  16  38
TORSDOF 6
