REMARK  Name = 
REMARK  19 active torsions:
REMARK  status: ('A' for Active; 'I' for Inactive)
REMARK    1  A    between atoms: C_1  and  O_8
REMARK    2  A    between atoms: C_2  and  O_7
REMARK    3  A    between atoms: C_5  and  O_7
REMARK    4  A    between atoms: C_6  and  N_18
REMARK    5  A    between atoms: O_8  and  C_9
REMARK    6  A    between atoms: C_24  and  C_30
REMARK    7  A    between atoms: C_35  and  O_43
REMARK    8  A    between atoms: C_36  and  O_42
REMARK    9  A    between atoms: C_39  and  O_42
REMARK   10  A    between atoms: C_40  and  N_53
REMARK   11  A    between atoms: C_41  and  O_43
REMARK   12  A    between atoms: C_50  and  C_60
REMARK   13  A    between atoms: C_60  and  N_62
REMARK   14  A    between atoms: C_71  and  O_79
REMARK   15  A    between atoms: C_72  and  O_78
REMARK   16  A    between atoms: C_75  and  O_78
REMARK   17  A    between atoms: C_76  and  N_89
REMARK   18  A    between atoms: C_77  and  O_79
REMARK   19  A    between atoms: C_86  and  C_96
REMARK                            x       y       z     vdW  Elec       q    Type
REMARK                         _______ _______ _______ _____ _____    ______ ____
ROOT
ATOM      1  C   UNL     1       0.726  -2.354   0.000  0.00  0.00    +0.000 C 
ATOM      2  C   UNL     1      -0.513  -1.640   0.000  0.00  0.00    +0.000 C 
ATOM      3  C   UNL     1      -0.095  -2.354   0.000  0.00  0.00    +0.000 C 
ATOM      4  C   UNL     1       1.144  -1.640   0.000  0.00  0.00    +0.000 C 
ATOM      5  C   UNL     1      -0.095  -0.925   0.000  0.00  0.00    +0.000 C 
ATOM      6  C   UNL     1       0.726  -0.925   0.000  0.00  0.00    +0.000 C 
ATOM      7  O   UNL     1      -0.513  -3.068   0.000  0.00  0.00    +0.000 OA
ATOM      8  N   UNL     1       1.965  -1.640   0.000  0.00  0.00    +0.000 NA
ATOM      9  N   UNL     1      -0.513  -0.211   0.000  0.00  0.00    +0.000 NA
ENDROOT
BRANCH   2  10
ATOM     10  O   UNL     1      -1.333  -1.640   0.000  0.00  0.00    +0.000 OA
BRANCH  10  12
ATOM     11  C   UNL     1      -2.456  -2.776   0.000  0.00  0.00    +0.000 C 
ATOM     12  C   UNL     1      -2.048  -2.062   0.000  0.00  0.00    +0.000 C 
ATOM     13  C   UNL     1      -3.282  -2.776   0.000  0.00  0.00    +0.000 C 
ATOM     14  C   UNL     1      -3.704  -2.062   0.000  0.00  0.00    +0.000 C 
ATOM     15  O   UNL     1      -2.456  -1.348   0.000  0.00  0.00    +0.000 OA
ATOM     16  C   UNL     1      -3.282  -1.348   0.000  0.00  0.00    +0.000 C 
ATOM     17  O   UNL     1      -2.043  -3.490   0.000  0.00  0.00    +0.000 OA
ATOM     18  O   UNL     1      -4.419  -1.649   0.000  0.00  0.00    +0.000 OA
ATOM     19  C   UNL     1      -4.419  -2.470   0.000  0.00  0.00    +0.000 C 
BRANCH  13  20
ATOM     20  N   UNL     1      -3.695  -3.490   0.000  0.00  0.00    +0.000 NA
ATOM     21  C   UNL     1      -4.521  -3.490   0.000  0.00  0.00    +0.000 C 
ENDBRANCH  13  20
ENDBRANCH  10  12
ENDBRANCH   2  10
BRANCH   1  22
ATOM     22  O   UNL     1       1.440  -2.762   0.000  0.00  0.00    +0.000 OA
BRANCH  22  23
ATOM     23  C   UNL     1       1.848  -3.476   0.000  0.00  0.00    +0.000 C 
ATOM     24  O   UNL     1       2.679  -3.476   0.000  0.00  0.00    +0.000 OA
ATOM     25  C   UNL     1       1.440  -4.190   0.000  0.00  0.00    +0.000 C 
ATOM     26  C   UNL     1       1.848  -4.904   0.000  0.00  0.00    +0.000 C 
ATOM     27  C   UNL     1       3.087  -4.190   0.000  0.00  0.00    +0.000 C 
ATOM     28  N   UNL     1       0.610  -4.190   0.000  0.00  0.00    +0.000 NA
ATOM     29  C   UNL     1       2.679  -4.904   0.000  0.00  0.00    +0.000 C 
BRANCH  27  31
ATOM     30  N   UNL     1       4.516  -4.176   0.000  0.00  0.00    +0.000 NA
ATOM     31  C   UNL     1       3.796  -3.767   0.000  0.00  0.00    +0.000 C 
ENDBRANCH  27  31
ENDBRANCH  22  23
ENDBRANCH   1  22
TORSDOF 6
REMARK  Name = 
REMARK  19 active torsions:
REMARK  status: ('A' for Active; 'I' for Inactive)
REMARK    1  A    between atoms: C_1  and  O_8
REMARK    2  A    between atoms: C_2  and  O_7
REMARK    3  A    between atoms: C_5  and  O_7
REMARK    4  A    between atoms: C_6  and  N_18
REMARK    5  A    between atoms: O_8  and  C_9
REMARK    6  A    between atoms: C_24  and  C_30
REMARK    7  A    between atoms: C_35  and  O_43
REMARK    8  A    between atoms: C_36  and  O_42
REMARK    9  A    between atoms: C_39  and  O_42
REMARK   10  A    between atoms: C_40  and  N_53
REMARK   11  A    between atoms: C_41  and  O_43
REMARK   12  A    between atoms: C_50  and  C_60
REMARK   13  A    between atoms: C_60  and  N_62
REMARK   14  A    between atoms: C_71  and  O_79
REMARK   15  A    between atoms: C_72  and  O_78
REMARK   16  A    between atoms: C_75  and  O_78
REMARK   17  A    between atoms: C_76  and  N_89
REMARK   18  A    between atoms: C_77  and  O_79
REMARK   19  A    between atoms: C_86  and  C_96
REMARK                            x       y       z     vdW  Elec       q    Type
REMARK                         _______ _______ _______ _____ _____    ______ ____
ROOT
ATOM      1  C   UNL     1      -5.045   2.762   0.000  0.00  0.00    +0.000 C 
ATOM      2  C   UNL     1      -6.284   3.476   0.000  0.00  0.00    +0.000 C 
ATOM      3  C   UNL     1      -5.876   2.762   0.000  0.00  0.00    +0.000 C 
ATOM      4  C   UNL     1      -4.637   3.476   0.000  0.00  0.00    +0.000 C 
ATOM      5  C   UNL     1      -5.876   4.190   0.000  0.00  0.00    +0.000 C 
ATOM      6  C   UNL     1      -5.045   4.190   0.000  0.00  0.00    +0.000 C 
ATOM      7  O   UNL     1      -6.284   2.048   0.000  0.00  0.00    +0.000 OA
ATOM      8  N   UNL     1      -6.284   4.904   0.000  0.00  0.00    +0.000 NA
ATOM      9  N   UNL     1      -3.806   3.466   0.000  0.00  0.00    +0.000 NA
ENDROOT
BRANCH   2  10
ATOM     10  O   UNL     1      -7.115   3.466   0.000  0.00  0.00    +0.000 OA
BRANCH  10  12
ATOM     11  C   UNL     1      -8.237   2.339   0.000  0.00  0.00    +0.000 C 
ATOM     12  C   UNL     1      -7.829   3.053   0.000  0.00  0.00    +0.000 C 
ATOM     13  C   UNL     1      -9.058   2.339   0.000  0.00  0.00    +0.000 C 
ATOM     14  C   UNL     1      -9.476   3.053   0.000  0.00  0.00    +0.000 C 
ATOM     15  O   UNL     1      -8.237   3.767   0.000  0.00  0.00    +0.000 OA
ATOM     16  C   UNL     1      -9.058   3.767   0.000  0.00  0.00    +0.000 C 
ATOM     17  O   UNL     1      -7.819   1.625   0.000  0.00  0.00    +0.000 OA
ATOM     18  O   UNL     1     -10.204   3.461   0.000  0.00  0.00    +0.000 OA
ATOM     19  C   UNL     1     -10.204   2.645   0.000  0.00  0.00    +0.000 C 
BRANCH  13  20
ATOM     20  N   UNL     1      -9.476   1.625   0.000  0.00  0.00    +0.000 NA
ATOM     21  C   UNL     1     -10.297   1.625   0.000  0.00  0.00    +0.000 C 
ENDBRANCH  13  20
ENDBRANCH  10  12
ENDBRANCH   2  10
BRANCH   1  22
ATOM     22  O   UNL     1      -4.331   2.344   0.000  0.00  0.00    +0.000 OA
BRANCH  22  23
ATOM     23  C   UNL     1      -3.923   1.630   0.000  0.00  0.00    +0.000 C 
ATOM     24  O   UNL     1      -3.097   1.630   0.000  0.00  0.00    +0.000 OA
ATOM     25  C   UNL     1      -2.684   0.916   0.000  0.00  0.00    +0.000 C 
ATOM     26  C   UNL     1      -4.336   0.916   0.000  0.00  0.00    +0.000 C 
ATOM     27  C   UNL     1      -3.097   0.202   0.000  0.00  0.00    +0.000 C 
ATOM     28  C   UNL     1      -3.923   0.202   0.000  0.00  0.00    +0.000 C 
ATOM     29  N   UNL     1      -5.162   0.916   0.000  0.00  0.00    +0.000 NA
BRANCH  25  30
ATOM     30  C   UNL     1      -1.975   1.333   0.000  0.00  0.00    +0.000 C 
ATOM     31  C   UNL     1      -1.256   0.930   0.000  0.00  0.00    +0.000 C 
BRANCH  30  32
ATOM     32  N   UNL     1      -1.985   2.164   0.000  0.00  0.00    +0.000 NA
ATOM     33  C   UNL     1      -1.270   2.587   0.000  0.00  0.00    +0.000 C 
ENDBRANCH  30  32
ENDBRANCH  25  30
ENDBRANCH  22  23
ENDBRANCH   1  22
TORSDOF 7
REMARK  Name = 
REMARK  19 active torsions:
REMARK  status: ('A' for Active; 'I' for Inactive)
REMARK    1  A    between atoms: C_1  and  O_8
REMARK    2  A    between atoms: C_2  and  O_7
REMARK    3  A    between atoms: C_5  and  O_7
REMARK    4  A    between atoms: C_6  and  N_18
REMARK    5  A    between atoms: O_8  and  C_9
REMARK    6  A    between atoms: C_24  and  C_30
REMARK    7  A    between atoms: C_35  and  O_43
REMARK    8  A    between atoms: C_36  and  O_42
REMARK    9  A    between atoms: C_39  and  O_42
REMARK   10  A    between atoms: C_40  and  N_53
REMARK   11  A    between atoms: C_41  and  O_43
REMARK   12  A    between atoms: C_50  and  C_60
REMARK   13  A    between atoms: C_60  and  N_62
REMARK   14  A    between atoms: C_71  and  O_79
REMARK   15  A    between atoms: C_72  and  O_78
REMARK   16  A    between atoms: C_75  and  O_78
REMARK   17  A    between atoms: C_76  and  N_89
REMARK   18  A    between atoms: C_77  and  O_79
REMARK   19  A    between atoms: C_86  and  C_96
REMARK                            x       y       z     vdW  Elec       q    Type
REMARK                         _______ _______ _______ _____ _____    ______ ____
ROOT
ATOM      1  C   UNL     1       6.507   2.762   0.000  0.00  0.00    +0.000 C 
ATOM      2  C   UNL     1       5.269   3.476   0.000  0.00  0.00    +0.000 C 
ATOM      3  C   UNL     1       5.681   2.762   0.000  0.00  0.00    +0.000 C 
ATOM      4  C   UNL     1       6.920   3.476   0.000  0.00  0.00    +0.000 C 
ATOM      5  C   UNL     1       5.681   4.190   0.000  0.00  0.00    +0.000 C 
ATOM      6  C   UNL     1       6.507   4.190   0.000  0.00  0.00    +0.000 C 
ATOM      7  O   UNL     1       5.269   2.048   0.000  0.00  0.00    +0.000 OA
ATOM      8  N   UNL     1       5.269   4.904   0.000  0.00  0.00    +0.000 NA
ATOM      9  N   UNL     1       7.746   3.466   0.000  0.00  0.00    +0.000 NA
ENDROOT
BRANCH   1  10
ATOM     10  O   UNL     1       7.221   2.344   0.000  0.00  0.00    +0.000 OA
BRANCH  10  11
ATOM     11  C   UNL     1       7.630   1.630   0.000  0.00  0.00    +0.000 C 
ATOM     12  O   UNL     1       8.450   1.630   0.000  0.00  0.00    +0.000 OA
ATOM     13  C   UNL     1       8.868   0.916   0.000  0.00  0.00    +0.000 C 
ATOM     14  C   UNL     1       7.212   0.916   0.000  0.00  0.00    +0.000 C 
ATOM     15  C   UNL     1       8.450   0.202   0.000  0.00  0.00    +0.000 C 
ATOM     16  C   UNL     1       7.630   0.202   0.000  0.00  0.00    +0.000 C 
ATOM     17  N   UNL     1       6.386   0.916   0.000  0.00  0.00    +0.000 NA
BRANCH  13  18
ATOM     18  C   UNL     1       9.573   1.333   0.000  0.00  0.00    +0.000 C 
ATOM     19  N   UNL     1       9.573   2.164   0.000  0.00  0.00    +0.000 NA
ATOM     20  C   UNL     1      10.297   0.930   0.000  0.00  0.00    +0.000 C 
ENDBRANCH  13  18
ENDBRANCH  10  11
ENDBRANCH   1  10
BRANCH   2  21
ATOM     21  O   UNL     1       4.443   3.466   0.000  0.00  0.00    +0.000 OA
BRANCH  21  23
ATOM     22  C   UNL     1       3.320   2.339   0.000  0.00  0.00    +0.000 C 
ATOM     23  C   UNL     1       3.728   3.053   0.000  0.00  0.00    +0.000 C 
ATOM     24  C   UNL     1       2.490   2.339   0.000  0.00  0.00    +0.000 C 
ATOM     25  C   UNL     1       2.077   3.053   0.000  0.00  0.00    +0.000 C 
ATOM     26  O   UNL     1       3.320   3.767   0.000  0.00  0.00    +0.000 OA
ATOM     27  C   UNL     1       2.490   3.767   0.000  0.00  0.00    +0.000 C 
ATOM     28  O   UNL     1       3.728   1.625   0.000  0.00  0.00    +0.000 OA
ATOM     29  O   UNL     1       1.353   3.461   0.000  0.00  0.00    +0.000 OA
ATOM     30  C   UNL     1       1.353   2.645   0.000  0.00  0.00    +0.000 C 
BRANCH  24  31
ATOM     31  N   UNL     1       2.082   1.625   0.000  0.00  0.00    +0.000 NA
ATOM     32  C   UNL     1       1.251   1.625   0.000  0.00  0.00    +0.000 C 
ENDBRANCH  24  31
ENDBRANCH  21  23
ENDBRANCH   2  21
TORSDOF 6
