REMARK  Name = 
REMARK  12 active torsions:
REMARK  status: ('A' for Active; 'I' for Inactive)
REMARK    1  A    between atoms: C_1  and  C_9
REMARK    2  A    between atoms: C_6  and  O_12
REMARK    3  A    between atoms: N_11  and  C_13
REMARK    4  A    between atoms: C_16  and  O_19
REMARK    5  A    between atoms: N_18  and  C_20
REMARK    6  A    between atoms: C_20  and  C_21
REMARK    7  A    between atoms: C_21  and  C_22
REMARK    8  A    between atoms: C_22  and  C_23
REMARK    9  A    between atoms: C_23  and  C_24
REMARK   10  A    between atoms: C_24  and  C_25
REMARK   11  A    between atoms: C_25  and  O_26
REMARK   12  A    between atoms: O_26  and  C_28
REMARK                            x       y       z     vdW  Elec       q    Type
REMARK                         _______ _______ _______ _____ _____    ______ ____
ROOT
ATOM      1  C   UNL     1      -2.254   0.468   0.000  0.00  0.00    +0.000 C 
ATOM      2  C   UNL     1      -1.540   1.705   0.000  0.00  0.00    +0.000 C 
ATOM      3  C   UNL     1      -2.254   1.293   0.000  0.00  0.00    +0.000 C 
ATOM      4  C   UNL     1      -1.540   0.055   0.000  0.00  0.00    +0.000 C 
ATOM      5  C   UNL     1      -0.825   0.468   0.000  0.00  0.00    +0.000 C 
ATOM      6  N   UNL     1      -0.825   1.293   0.000  0.00  0.00    +0.000 NA
ENDROOT
BRANCH   1   9
ATOM      7  C   UNL     1      -3.683   0.468   0.000  0.00  0.00    +0.000 C 
ATOM      8  O   UNL     1      -3.683   1.293   0.000  0.00  0.00    +0.000 OA
ATOM      9  N   UNL     1      -2.968   0.055   0.000  0.00  0.00    +0.000 NA
BRANCH   7  10
ATOM     10  C   UNL     1      -4.397   0.055   0.000  0.00  0.00    +0.000 A 
ATOM     11  C   UNL     1      -5.112   0.468   0.000  0.00  0.00    +0.000 A 
ATOM     12  C   UNL     1      -5.826   0.055   0.000  0.00  0.00    +0.000 A 
ATOM     13  C   UNL     1      -5.826  -0.770   0.000  0.00  0.00    +0.000 A 
ATOM     14  C   UNL     1      -5.112  -1.182   0.000  0.00  0.00    +0.000 A 
ATOM     15  C   UNL     1      -4.397  -0.770   0.000  0.00  0.00    +0.000 A 
ATOM     16 CL   UNL     1      -6.541   0.468   0.000  0.00  0.00    +0.000 Cl
ATOM     17  N   UNL     1      -6.541  -1.182   0.000  0.00  0.00    +0.000 NA
BRANCH  15  18
ATOM     18  O   UNL     1      -3.683  -1.182   0.000  0.00  0.00    +0.000 OA
ATOM     19  C   UNL     1      -3.683  -2.007   0.000  0.00  0.00    +0.000 C 
ENDBRANCH  15  18
ENDBRANCH   7  10
ENDBRANCH   1   9
BRANCH   4  20
ATOM     20  O   UNL     1      -0.956  -0.528   0.000  0.00  0.00    +0.000 OA
ATOM     21  C   UNL     1      -0.159  -0.315   0.000  0.00  0.00    +0.000 C 
ENDBRANCH   4  20
BRANCH   6  22
ATOM     22  C   UNL     1      -0.111   1.705   0.000  0.00  0.00    +0.000 C 
BRANCH  22  23
ATOM     23  C   UNL     1       0.604   1.293   0.000  0.00  0.00    +0.000 C 
BRANCH  23  24
ATOM     24  C   UNL     1       1.318   1.705   0.000  0.00  0.00    +0.000 C 
BRANCH  24  25
ATOM     25  C   UNL     1       2.033   1.293   0.000  0.00  0.00    +0.000 C 
BRANCH  25  26
ATOM     26  C   UNL     1       2.747   1.705   0.000  0.00  0.00    +0.000 C 
BRANCH  26  27
ATOM     27  C   UNL     1       3.462   1.293   0.000  0.00  0.00    +0.000 C 
ATOM     28  O   UNL     1       3.462   0.468   0.000  0.00  0.00    +0.000 OA
BRANCH  27  29
ATOM     29  O   UNL     1       4.176   1.705   0.000  0.00  0.00    +0.000 OA
BRANCH  29  30
ATOM     30  C   UNL     1       4.891   1.293   0.000  0.00  0.00    +0.000 C 
ATOM     31  C   UNL     1       5.303   0.578   0.000  0.00  0.00    +0.000 C 
ATOM     32  N   UNL     1       6.128   0.578   0.000  0.00  0.00    +0.000 NA
ATOM     33  C   UNL     1       6.541   1.293   0.000  0.00  0.00    +0.000 C 
ATOM     34  C   UNL     1       6.128   2.007   0.000  0.00  0.00    +0.000 C 
ATOM     35  C   UNL     1       5.303   2.007   0.000  0.00  0.00    +0.000 C 
ATOM     36  C   UNL     1       6.018   1.595   0.000  0.00  0.00    +0.000 C 
ATOM     37  C   UNL     1       5.434   1.011   0.000  0.00  0.00    +0.000 C 
ENDBRANCH  29  30
ENDBRANCH  27  29
ENDBRANCH  26  27
ENDBRANCH  25  26
ENDBRANCH  24  25
ENDBRANCH  23  24
ENDBRANCH  22  23
ENDBRANCH   6  22
TORSDOF 12
