REMARK  Name = 
REMARK  7 active torsions:
REMARK  status: ('A' for Active; 'I' for Inactive)
REMARK    1  A    between atoms: N_1  and  C_3
REMARK    2  A    between atoms: C_12  and  C_17
REMARK    3  A    between atoms: C_17  and  S_19
REMARK    4  A    between atoms: S_19  and  C_20
REMARK    5  A    between atoms: C_20  and  C_22
REMARK    6  A    between atoms: C_22  and  CA_23
REMARK    7  A    between atoms: CA_23  and  C_24
REMARK                            x       y       z     vdW  Elec       q    Type
REMARK                         _______ _______ _______ _____ _____    ______ ____
ROOT
ATOM      1  C   UNL     1       2.965  -1.297   0.000  0.00  0.00    +0.000 C 
ATOM      2  O   UNL     1       1.875  -0.779   0.000  0.00  0.00    +0.000 OA
ATOM      3  C   UNL     1       2.548  -2.111   0.000  0.00  0.00    +0.000 C 
ATOM      4  C   UNL     1       0.883  -1.297   0.000  0.00  0.00    +0.000 C 
ATOM      5  C   UNL     1       1.292  -2.111   0.000  0.00  0.00    +0.000 C 
ATOM      6  O   UNL     1       2.927  -2.833   0.000  0.00  0.00    +0.000 OA
ATOM      7  O   UNL     1       0.894  -2.795   0.000  0.00  0.00    +0.000 OA
ENDROOT
BRANCH   1   8
ATOM      8  N   UNL     1       2.947   0.788   0.000  0.00  0.00    +0.000 N 
ATOM      9  C   UNL     1       2.163   1.043   0.000  0.00  0.00    +0.000 A 
ATOM     10  C   UNL     1       3.433   1.455   0.000  0.00  0.00    +0.000 A 
ATOM     11  C   UNL     1       2.163   1.868   0.000  0.00  0.00    +0.000 A 
ATOM     12  N   UNL     1       1.551   0.655   0.000  0.00  0.00    +0.000 NA
ATOM     13  N   UNL     1       2.947   2.123   0.000  0.00  0.00    +0.000 NA
ATOM     14  C   UNL     1       1.529   2.143   0.000  0.00  0.00    +0.000 A 
ATOM     15  C   UNL     1       0.914   1.046   0.000  0.00  0.00    +0.000 A 
ATOM     16  N   UNL     1       0.914   1.742   0.000  0.00  0.00    +0.000 NA
ATOM     17  N   UNL     1       1.529   2.833   0.000  0.00  0.00    +0.000 NA
ENDBRANCH   1   8
BRANCH   4  18
ATOM     18  C   UNL     1       0.760  -0.375   0.000  0.00  0.00    +0.000 C 
BRANCH  18  19
ATOM     19  S   UNL     1       0.083   0.063   0.000  0.00  0.00    +0.000 S 
ATOM     20  C   UNL     1       0.067   0.953   0.000  0.00  0.00    +0.000 C 
BRANCH  19  21
ATOM     21  C   UNL     1      -0.597  -0.375   0.000  0.00  0.00    +0.000 C 
BRANCH  21  22
ATOM     22  C   UNL     1      -1.296   0.063   0.000  0.00  0.00    +0.000 C 
BRANCH  22  23
ATOM     23  CA  UNL     1      -1.995  -0.375   0.000  0.00  0.00    +0.000 C 
ATOM     24  N   UNL     1      -1.984  -1.259   0.000  0.00  0.00    +0.000 NA
BRANCH  23  25
ATOM     25  C   UNL     1      -2.723   0.088   0.000  0.00  0.00    +0.000 C 
ATOM     26  O   UNL     1      -3.433  -0.375   0.000  0.00  0.00    +0.000 OA
ATOM     27  OXT UNL     1      -2.723   0.853   0.000  0.00  0.00    +0.000 OA
ENDBRANCH  23  25
ENDBRANCH  22  23
ENDBRANCH  21  22
ENDBRANCH  19  21
ENDBRANCH  18  19
ENDBRANCH   4  18
TORSDOF 7
