REMARK  Name = 
REMARK  17 active torsions:
REMARK  status: ('A' for Active; 'I' for Inactive)
REMARK    1  A    between atoms: C_1  and  C_2
REMARK    2  A    between atoms: C_1  and  C_3
REMARK    3  A    between atoms: C_2  and  C_5
REMARK    4  A    between atoms: C_3  and  C_7
REMARK    5  A    between atoms: C_5  and  C_9
REMARK    6  A    between atoms: C_9  and  O_13
REMARK    7  A    between atoms: O_13  and  CA_38
REMARK    8  A    between atoms: C_14  and  O_15
REMARK    9  A    between atoms: O_15  and  C_18
REMARK   10  A    between atoms: C_18  and  C_22
REMARK   11  A    between atoms: C_18  and  C_23
REMARK   12  A    between atoms: C_19  and  C_25
REMARK   13  A    between atoms: C_22  and  C_27
REMARK   14  A    between atoms: C_23  and  C_29
REMARK   15  A    between atoms: C_27  and  C_33
REMARK   16  A    between atoms: C_33  and  O_37
REMARK   17  A    between atoms: O_37  and  CA_38
REMARK                            x       y       z     vdW  Elec       q    Type
REMARK                         _______ _______ _______ _____ _____    ______ ____
ROOT
ATOM      1  C   UNL     1      -2.476  -1.861   0.000  0.00  0.00    +0.000 C 
ATOM      2  O   UNL     1      -2.476  -2.689   0.000  0.00  0.00    +0.000 OA
ENDROOT
BRANCH   1   3
ATOM      3  C   UNL     1      -1.766  -1.451   0.000  0.00  0.00    +0.000 C 
ATOM      4  O   UNL     1      -1.766  -0.616   0.000  0.00  0.00    +0.000 OA
BRANCH   3   5
ATOM      5  C   UNL     1      -1.044  -1.855   0.000  0.00  0.00    +0.000 C 
ATOM      6  O   UNL     1      -1.041  -2.689   0.000  0.00  0.00    +0.000 OA
BRANCH   5   7
ATOM      7  O   UNL     1      -0.327  -1.440   0.000  0.00  0.00    +0.000 OA
BRANCH   7   8
ATOM      8 CA   UNL     1       0.546  -1.436   0.000  0.00  0.00    +0.000 Ca
BRANCH   8   9
ATOM      9  O   UNL     1       1.624  -1.437   0.000  0.00  0.00    +0.000 OA
BRANCH   9  10
ATOM     10  C   UNL     1       2.342  -1.843   0.000  0.00  0.00    +0.000 C 
ATOM     11  O   UNL     1       2.338  -2.678   0.000  0.00  0.00    +0.000 OA
BRANCH  10  12
ATOM     12  C   UNL     1       3.063  -1.448   0.000  0.00  0.00    +0.000 C 
ATOM     13  O   UNL     1       3.063  -0.612   0.000  0.00  0.00    +0.000 OA
BRANCH  12  14
ATOM     14  C   UNL     1       3.773  -1.850   0.000  0.00  0.00    +0.000 C 
ATOM     15  O   UNL     1       3.773  -2.678   0.000  0.00  0.00    +0.000 OA
BRANCH  14  16
ATOM     16  C   UNL     1       4.491  -1.458   0.000  0.00  0.00    +0.000 C 
ATOM     17  O   UNL     1       4.491  -0.622   0.000  0.00  0.00    +0.000 OA
BRANCH  16  18
ATOM     18  C   UNL     1       5.205  -1.857   0.000  0.00  0.00    +0.000 C 
ATOM     19  O   UNL     1       5.205  -2.682   0.000  0.00  0.00    +0.000 OA
BRANCH  18  20
ATOM     20  C   UNL     1       5.926  -1.458   0.000  0.00  0.00    +0.000 C 
ATOM     21  O   UNL     1       6.641  -1.857   0.000  0.00  0.00    +0.000 OA
ENDBRANCH  18  20
ENDBRANCH  16  18
ENDBRANCH  14  16
ENDBRANCH  12  14
ENDBRANCH  10  12
ENDBRANCH   9  10
ENDBRANCH   8   9
ENDBRANCH   7   8
ENDBRANCH   5   7
ENDBRANCH   3   5
ENDBRANCH   1   3
BRANCH   1  22
ATOM     22  C   UNL     1      -3.194  -1.454   0.000  0.00  0.00    +0.000 C 
BRANCH  22  23
ATOM     23  C   UNL     1      -3.908  -1.868   0.000  0.00  0.00    +0.000 C 
ATOM     24  O   UNL     1      -3.908  -2.693   0.000  0.00  0.00    +0.000 OA
BRANCH  23  25
ATOM     25  C   UNL     1      -4.629  -1.454   0.000  0.00  0.00    +0.000 C 
ATOM     26  O   UNL     1      -5.343  -1.868   0.000  0.00  0.00    +0.000 OA
ENDBRANCH  23  25
ENDBRANCH  22  23
BRANCH  22  27
ATOM     27  O   UNL     1      -3.225   0.091   0.000  0.00  0.00    +0.000 OA
BRANCH  27  28
ATOM     28  C   UNL     1      -4.167   0.526   0.000  0.00  0.00    +0.000 C 
ATOM     29  O   UNL     1      -4.588   1.237   0.000  0.00  0.00    +0.000 OA
ATOM     30  C   UNL     1      -4.564  -0.195   0.000  0.00  0.00    +0.000 C 
ATOM     31  C   UNL     1      -5.374   1.240   0.000  0.00  0.00    +0.000 C 
ATOM     32  C   UNL     1      -5.409  -0.174   0.000  0.00  0.00    +0.000 C 
ATOM     33  O   UNL     1      -4.174  -0.912   0.000  0.00  0.00    +0.000 OA
ATOM     34  C   UNL     1      -5.782   0.540   0.000  0.00  0.00    +0.000 C 
ATOM     35  O   UNL     1      -5.813  -0.902   0.000  0.00  0.00    +0.000 OA
ATOM     36  O   UNL     1      -6.641   0.547   0.000  0.00  0.00    +0.000 OA
BRANCH  31  37
ATOM     37  C   UNL     1      -5.788   1.989   0.000  0.00  0.00    +0.000 C 
ATOM     38  O   UNL     1      -5.347   2.693   0.000  0.00  0.00    +0.000 OA
ENDBRANCH  31  37
ENDBRANCH  27  28
ENDBRANCH  22  27
ENDBRANCH   1  22
TORSDOF 17
