REMARK  Name = 
REMARK  5 active torsions:
REMARK  status: ('A' for Active; 'I' for Inactive)
REMARK    1  A    between atoms: S_1  and  N_9
REMARK    2  A    between atoms: S_1  and  C_11
REMARK    3  A    between atoms: N_9  and  C_12
REMARK    4  A    between atoms: N_10  and  C_18
REMARK    5  A    between atoms: C_13  and  C_21
REMARK                            x       y       z     vdW  Elec       q    Type
REMARK                         _______ _______ _______ _____ _____    ______ ____
ROOT
ATOM      1  S   UNL     1       0.419   0.560   0.000  0.00  0.00    +0.000 S 
ATOM      2  O   UNL     1       0.831  -0.154   0.000  0.00  0.00    +0.000 OA
ATOM      3  O   UNL     1       0.006   1.275   0.000  0.00  0.00    +0.000 OA
ENDROOT
BRANCH   1   5
ATOM      4  S   UNL     1       2.026   1.965   0.000  0.00  0.00    +0.000 S 
ATOM      5  C   UNL     1       1.133   0.973   0.000  0.00  0.00    +0.000 A 
ATOM      6  C   UNL     1       1.220   1.793   0.000  0.00  0.00    +0.000 A 
ATOM      7  C   UNL     1       1.887   0.637   0.000  0.00  0.00    +0.000 A 
ATOM      8  C   UNL     1       2.439   1.250   0.000  0.00  0.00    +0.000 A 
BRANCH   6  11
ATOM      9  O   UNL     1       0.778   3.152   0.000  0.00  0.00    +0.000 OA
ATOM     10  O   UNL     1      -0.178   2.090   0.000  0.00  0.00    +0.000 OA
ATOM     11  C   UNL     1       0.607   2.345   0.000  0.00  0.00    +0.000 C 
ENDBRANCH   6  11
ENDBRANCH   1   5
BRANCH   1  12
ATOM     12  N   UNL     1      -0.295   0.148   0.000  0.00  0.00    +0.000 N 
ATOM     13  H   UNL     1      -0.739   0.403   0.000  0.00  0.00    +0.000 HD
BRANCH  12  14
ATOM     14  C   UNL     1      -0.295  -0.677   0.000  0.00  0.00    +0.000 A 
ATOM     15  C   UNL     1      -1.010  -1.090   0.000  0.00  0.00    +0.000 A 
ATOM     16  C   UNL     1       0.419  -1.090   0.000  0.00  0.00    +0.000 A 
ATOM     17  C   UNL     1      -1.010  -1.915   0.000  0.00  0.00    +0.000 A 
ATOM     18  C   UNL     1       0.419  -1.915   0.000  0.00  0.00    +0.000 A 
ATOM     19  C   UNL     1      -0.295  -2.327   0.000  0.00  0.00    +0.000 A 
BRANCH  17  22
ATOM     20  O   UNL     1      -1.725  -3.152   0.000  0.00  0.00    +0.000 OA
ATOM     21  O   UNL     1      -2.439  -1.915   0.000  0.00  0.00    +0.000 OA
ATOM     22  N   UNL     1      -1.725  -2.327   0.000  0.00  0.00    +0.000 N 
ENDBRANCH  17  22
ENDBRANCH  12  14
ENDBRANCH   1  12
TORSDOF 5
