REMARK  Name = 
REMARK  14 active torsions:
REMARK  status: ('A' for Active; 'I' for Inactive)
REMARK    1  A    between atoms: CG_2  and  CB_4
REMARK    2  A    between atoms: CB_4  and  CA_5
REMARK    3  A    between atoms: CA_5  and  N_6
REMARK    4  A    between atoms: CA_5  and  C_18
REMARK    5  A    between atoms: C_7  and  C_9
REMARK    6  A    between atoms: C_9  and  O_10
REMARK    7  A    between atoms: O_10  and  C_11
REMARK    8  A    between atoms: N_20  and  C_21
REMARK    9  A    between atoms: C_21  and  C_22
REMARK   10  A    between atoms: C_21  and  C_41
REMARK   11  A    between atoms: C_22  and  C_23
REMARK   12  A    between atoms: C_26  and  O_27
REMARK   13  A    between atoms: O_27  and  C_28
REMARK   14  A    between atoms: C_33  and  C_36
REMARK                            x       y       z     vdW  Elec       q    Type
REMARK                         _______ _______ _______ _____ _____    ______ ____
ROOT
ATOM      1  C   UNK A   2      -0.594   0.343   0.000  0.00  0.00    +0.000 C 
ENDROOT
BRANCH   1   2
ATOM      2  C   UNK A   2      -0.396  -0.458   0.000  0.00  0.00    +0.000 C 
ATOM      3  O   UNK A   2       0.396  -0.686   0.000  0.00  0.00    +0.000 OA
ATOM      4  O   UNK A   2      -0.991  -1.030   0.000  0.00  0.00    +0.000 OA
ENDBRANCH   1   2
BRANCH   1   7
ATOM      5  C   LEU A   1      -1.982   0.000   0.000  0.00  0.00    +0.000 C 
ATOM      6  O   LEU A   1      -1.783  -0.801   0.000  0.00  0.00    +0.000 OA
ATOM      7  N   UNK A   2      -1.387   0.572   0.000  0.00  0.00    +0.000 NA
BRANCH   5   8
ATOM      8  CA  LEU A   1      -2.774   0.229   0.000  0.00  0.00    +0.000 C 
BRANCH   8   9
ATOM      9  N   LEU A   1      -3.369  -0.343   0.000  0.00  0.00    +0.000 NA
ATOM     10  C   UNK A   0      -4.161  -0.114   0.000  0.00  0.00    +0.000 C 
ATOM     11  O   UNK A   0      -4.359   0.686   0.000  0.00  0.00    +0.000 OA
BRANCH  10  12
ATOM     12  C   UNK A   0      -4.756  -0.686   0.000  0.00  0.00    +0.000 C 
BRANCH  12  13
ATOM     13  O   UNK A   0      -5.548  -0.458   0.000  0.00  0.00    +0.000 OA
BRANCH  13  14
ATOM     14  C   UNK A   0      -6.143  -1.030   0.000  0.00  0.00    +0.000 A 
ATOM     15  C   UNK A   0      -5.945  -1.831   0.000  0.00  0.00    +0.000 A 
ATOM     16  C   UNK A   0      -6.539  -2.402   0.000  0.00  0.00    +0.000 A 
ATOM     17  C   UNK A   0      -7.332  -2.174   0.000  0.00  0.00    +0.000 A 
ATOM     18  C   UNK A   0      -7.530  -1.373   0.000  0.00  0.00    +0.000 A 
ATOM     19  C   UNK A   0      -6.936  -0.801   0.000  0.00  0.00    +0.000 A 
ATOM     20  C   UNK A   0      -7.134   0.000   0.000  0.00  0.00    +0.000 C 
ENDBRANCH  13  14
ENDBRANCH  12  13
ENDBRANCH  10  12
ENDBRANCH   8   9
BRANCH   8  21
ATOM     21  CB  LEU A   1      -2.972   1.030   0.000  0.00  0.00    +0.000 C 
BRANCH  21  23
ATOM     22  CD1 LEU A   1      -1.585   1.373   0.000  0.00  0.00    +0.000 C 
ATOM     23  CG  LEU A   1      -2.378   1.602   0.000  0.00  0.00    +0.000 C 
ATOM     24  CD2 LEU A   1      -2.576   2.402   0.000  0.00  0.00    +0.000 C 
ENDBRANCH  21  23
ENDBRANCH   8  21
ENDBRANCH   5   8
ENDBRANCH   1   7
BRANCH   1  25
ATOM     25  C   UNK A   2       0.000   0.915   0.000  0.00  0.00    +0.000 C 
BRANCH  25  26
ATOM     26  C   UNK A   2       0.793   0.686   0.000  0.00  0.00    +0.000 A 
ATOM     27  C   UNK A   2       1.387   1.258   0.000  0.00  0.00    +0.000 A 
ATOM     28  C   UNK A   2       2.180   1.030   0.000  0.00  0.00    +0.000 A 
ATOM     29  C   UNK A   2       2.378   0.229   0.000  0.00  0.00    +0.000 A 
ATOM     30  C   UNK A   2       1.783  -0.343   0.000  0.00  0.00    +0.000 A 
ATOM     31  C   UNK A   2       0.991  -0.114   0.000  0.00  0.00    +0.000 A 
BRANCH  29  32
ATOM     32  O   UNK A   2       3.171   0.000   0.000  0.00  0.00    +0.000 OA
BRANCH  32  33
ATOM     33  C   UNK A   2       3.765   0.572   0.000  0.00  0.00    +0.000 C 
ATOM     34  O   UNK A   2       3.567   1.373   0.000  0.00  0.00    +0.000 OA
ATOM     35  N   UNK A   2       4.558   0.343   0.000  0.00  0.00    +0.000 N 
ATOM     36  C   UNK A   2       5.152   0.915   0.000  0.00  0.00    +0.000 C 
ATOM     37  C   UNK A   2       5.945   0.686   0.000  0.00  0.00    +0.000 C 
ATOM     38  C   UNK A   2       6.143  -0.114   0.000  0.00  0.00    +0.000 C 
ATOM     39  C   UNK A   2       5.548  -0.686   0.000  0.00  0.00    +0.000 C 
ATOM     40  C   UNK A   2       4.756  -0.458   0.000  0.00  0.00    +0.000 C 
BRANCH  38  41
ATOM     41  C   UNK A   2       6.936  -0.343   0.000  0.00  0.00    +0.000 C 
ATOM     42  O   UNK A   2       7.530   0.229   0.000  0.00  0.00    +0.000 OA
ATOM     43  N   UNK A   2       7.134  -1.144   0.000  0.00  0.00    +0.000 NA
ENDBRANCH  38  41
ENDBRANCH  32  33
ENDBRANCH  29  32
ENDBRANCH  25  26
ENDBRANCH   1  25
TORSDOF 14
