REMARK  Name = 
REMARK  6 active torsions:
REMARK  status: ('A' for Active; 'I' for Inactive)
REMARK    1  A    between atoms: N_3  and  C_6
REMARK    2  A    between atoms: N_3  and  C_13
REMARK    3  A    between atoms: N_3  and  C_15
REMARK    4  A    between atoms: C_13  and  C_17
REMARK    5  A    between atoms: C_15  and  C_19
REMARK    6  A    between atoms: C_16  and  C_17
REMARK                            x       y       z     vdW  Elec       q    Type
REMARK                         _______ _______ _______ _____ _____    ______ ____
ROOT
ATOM      1  N   UNL     1       0.083   0.615   0.000  0.00  0.00    +0.000 NA
ENDROOT
BRANCH   1   5
ATOM      2  O   UNL     1      -2.759  -1.852   0.000  0.00  0.00    +0.000 OA
ATOM      3  C   UNL     1      -2.043  -0.615   0.000  0.00  0.00    +0.000 A 
ATOM      4  C   UNL     1      -2.043   0.212   0.000  0.00  0.00    +0.000 A 
ATOM      5  C   UNL     1      -0.619   0.212   0.000  0.00  0.00    +0.000 C 
ATOM      6  C   UNL     1      -1.335   0.622   0.000  0.00  0.00    +0.000 C 
ATOM      7  C   UNL     1      -2.759  -1.025   0.000  0.00  0.00    +0.000 A 
ATOM      8  C   UNL     1      -1.335  -1.025   0.000  0.00  0.00    +0.000 C 
ATOM      9  C   UNL     1      -0.619  -0.615   0.000  0.00  0.00    +0.000 C 
ATOM     10  C   UNL     1      -2.759   0.622   0.000  0.00  0.00    +0.000 A 
ATOM     11  C   UNL     1      -3.475  -0.615   0.000  0.00  0.00    +0.000 A 
ATOM     12  C   UNL     1      -3.475   0.212   0.000  0.00  0.00    +0.000 A 
ENDBRANCH   1   5
BRANCH   1  13
ATOM     13  C   UNL     1       0.090   1.449   0.000  0.00  0.00    +0.000 C 
BRANCH  13  14
ATOM     14  C   UNL     1       0.792   1.852   0.000  0.00  0.00    +0.000 C 
ATOM     15  C   UNL     1       1.487   1.449   0.000  0.00  0.00    +0.000 C 
ENDBRANCH  13  14
ENDBRANCH   1  13
BRANCH   1  16
ATOM     16  C   UNL     1       0.785   0.212   0.000  0.00  0.00    +0.000 C 
BRANCH  16  17
ATOM     17  C   UNL     1       1.487   0.615   0.000  0.00  0.00    +0.000 C 
BRANCH  17  19
ATOM     18  S   UNL     1       2.968   0.497   0.000  0.00  0.00    +0.000 S 
ATOM     19  C   UNL     1       2.189   0.212   0.000  0.00  0.00    +0.000 A 
ATOM     20  C   UNL     1       2.217  -0.615   0.000  0.00  0.00    +0.000 A 
ATOM     21  C   UNL     1       3.475  -0.156   0.000  0.00  0.00    +0.000 A 
ATOM     22  C   UNL     1       3.017  -0.837   0.000  0.00  0.00    +0.000 A 
ENDBRANCH  17  19
ENDBRANCH  16  17
ENDBRANCH   1  16
TORSDOF 6
