REMARK  Name = 
REMARK  4 active torsions:
REMARK  status: ('A' for Active; 'I' for Inactive)
REMARK    1  A    between atoms: C_2  and  C_3
REMARK    2  A    between atoms: C_14  and  O_15
REMARK    3  A    between atoms: O_15  and  C_16
REMARK    4  A    between atoms: C_16  and  C_17
REMARK                            x       y       z     vdW  Elec       q    Type
REMARK                         _______ _______ _______ _____ _____    ______ ____
ROOT
ATOM      1  C   UNL     1       5.617   1.197   0.000  0.00  0.00    +0.000 C 
ATOM      2  O   UNL     1       4.917   1.634   0.000  0.00  0.00    +0.000 OA
ATOM      3  C   UNL     1       6.423   1.026   0.000  0.00  0.00    +0.000 C 
ATOM      4  O   UNL     1       6.976   1.639   0.000  0.00  0.00    +0.000 OA
ATOM      5  O   UNL     1       6.678   0.241   0.000  0.00  0.00    +0.000 OA
ATOM      6  C   UNL     1       6.126  -0.372   0.000  0.00  0.00    +0.000 C 
ATOM      7  C   UNL     1       5.319  -0.201   0.000  0.00  0.00    +0.000 A 
ATOM      8  C   UNL     1       5.064   0.584   0.000  0.00  0.00    +0.000 A 
ATOM      9  C   UNL     1       4.258   0.756   0.000  0.00  0.00    +0.000 A 
ATOM     10  C   UNL     1       3.705   0.142   0.000  0.00  0.00    +0.000 A 
ATOM     11  N   UNL     1       3.960  -0.642   0.000  0.00  0.00    +0.000 N 
ATOM     12  C   UNL     1       3.293  -1.127   0.000  0.00  0.00    +0.000 C 
ATOM     13  C   UNL     1       2.626  -0.642   0.000  0.00  0.00    +0.000 A 
ATOM     14  C   UNL     1       1.819  -0.814   0.000  0.00  0.00    +0.000 A 
ATOM     15  C   UNL     1       1.266  -0.201   0.000  0.00  0.00    +0.000 A 
ATOM     16  C   UNL     1       0.460  -0.372   0.000  0.00  0.00    +0.000 A 
ATOM     17  C   UNL     1      -0.092   0.241   0.000  0.00  0.00    +0.000 A 
ATOM     18  C   UNL     1       0.162   1.026   0.000  0.00  0.00    +0.000 A 
ATOM     19  C   UNL     1       0.969   1.197   0.000  0.00  0.00    +0.000 A 
ATOM     20  C   UNL     1       1.521   0.584   0.000  0.00  0.00    +0.000 A 
ATOM     21  N   UNL     1       2.328   0.756   0.000  0.00  0.00    +0.000 NA
ATOM     22  C   UNL     1       2.880   0.142   0.000  0.00  0.00    +0.000 A 
ATOM     23  C   UNL     1       4.767  -0.814   0.000  0.00  0.00    +0.000 A 
ATOM     24  O   UNL     1       5.022  -1.598   0.000  0.00  0.00    +0.000 OA
ENDROOT
BRANCH   1  26
ATOM     25  C   UNL     1       5.418   2.612   0.000  0.00  0.00    +0.000 C 
ATOM     26  C   UNL     1       5.926   1.962   0.000  0.00  0.00    +0.000 C 
ENDBRANCH   1  26
BRANCH  12  27
ATOM     27  O   UNL     1       3.293  -1.952   0.000  0.00  0.00    +0.000 OA
BRANCH  27  28
ATOM     28  C   UNL     1       4.007  -2.365   0.000  0.00  0.00    +0.000 C 
BRANCH  28  29
ATOM     29  C   UNL     1       4.007  -3.190   0.000  0.00  0.00    +0.000 C 
ATOM     30  O   UNL     1       4.722  -3.602   0.000  0.00  0.00    +0.000 OA
ENDBRANCH  28  29
ENDBRANCH  27  28
ENDBRANCH  12  27
TORSDOF 4
