REMARK  Name = 
REMARK  5 active torsions:
REMARK  status: ('A' for Active; 'I' for Inactive)
REMARK    1  A    between atoms: C_8  and  C_12
REMARK    2  A    between atoms: C_12  and  C_13
REMARK    3  A    between atoms: C_12  and  C_23
REMARK    4  A    between atoms: C_13  and  C_14
REMARK    5  A    between atoms: C_14  and  C_15
REMARK                            x       y       z     vdW  Elec       q    Type
REMARK                         _______ _______ _______ _____ _____    ______ ____
ROOT
ATOM      1  C   UNL     1       2.858   0.000   0.000  0.00  0.00    +0.000 C 
ENDROOT
BRANCH   1   9
ATOM      2  C   UNL     1      -0.715  -0.412   0.000  0.00  0.00    +0.000 A 
ATOM      3  C   UNL     1      -0.715  -1.238   0.000  0.00  0.00    +0.000 A 
ATOM      4  C   UNL     1       0.000  -1.650   0.000  0.00  0.00    +0.000 A 
ATOM      5  C   UNL     1       0.715  -1.238   0.000  0.00  0.00    +0.000 A 
ATOM      6  C   UNL     1       0.715  -0.412   0.000  0.00  0.00    +0.000 A 
ATOM      7  C   UNL     1       0.000   0.000   0.000  0.00  0.00    +0.000 A 
ATOM      8  C   UNL     1       1.429   0.000   0.000  0.00  0.00    +0.000 A 
ATOM      9  C   UNL     1       2.143  -0.412   0.000  0.00  0.00    +0.000 A 
ATOM     10  C   UNL     1       2.143  -1.238   0.000  0.00  0.00    +0.000 A 
ATOM     11  O   UNL     1       2.858  -1.650   0.000  0.00  0.00    +0.000 OA
ATOM     12  O   UNL     1       1.429  -1.650   0.000  0.00  0.00    +0.000 OA
ATOM     13  O   UNL     1       1.429   0.825   0.000  0.00  0.00    +0.000 OA
ENDBRANCH   1   9
BRANCH   1  14
ATOM     14  C   UNL     1       2.858   0.825   0.000  0.00  0.00    +0.000 A 
ATOM     15  C   UNL     1       2.190   1.310   0.000  0.00  0.00    +0.000 A 
ATOM     16  C   UNL     1       2.445   2.095   0.000  0.00  0.00    +0.000 A 
ATOM     17  C   UNL     1       3.270   2.095   0.000  0.00  0.00    +0.000 A 
ATOM     18  S   UNL     1       3.525   1.310   0.000  0.00  0.00    +0.000 S 
ATOM     19 CL   UNL     1       3.755   2.762   0.000  0.00  0.00    +0.000 Cl
ENDBRANCH   1  14
BRANCH   1  20
ATOM     20  C   UNL     1       3.572  -0.412   0.000  0.00  0.00    +0.000 C 
BRANCH  20  21
ATOM     21  C   UNL     1       4.287   0.000   0.000  0.00  0.00    +0.000 C 
ATOM     22  O   UNL     1       4.287   0.825   0.000  0.00  0.00    +0.000 OA
BRANCH  21  23
ATOM     23  C   UNL     1       5.001  -0.412   0.000  0.00  0.00    +0.000 A 
ATOM     24  C   UNL     1       5.716   0.000   0.000  0.00  0.00    +0.000 A 
ATOM     25  C   UNL     1       6.430  -0.412   0.000  0.00  0.00    +0.000 A 
ATOM     26  C   UNL     1       6.430  -1.238   0.000  0.00  0.00    +0.000 A 
ATOM     27  C   UNL     1       5.716  -1.650   0.000  0.00  0.00    +0.000 A 
ATOM     28  C   UNL     1       5.001  -1.238   0.000  0.00  0.00    +0.000 A 
ATOM     29 CL   UNL     1       7.145  -1.650   0.000  0.00  0.00    +0.000 Cl
ENDBRANCH  21  23
ENDBRANCH  20  21
ENDBRANCH   1  20
TORSDOF 5
