REMARK  Name = 
REMARK  10 active torsions:
REMARK  status: ('A' for Active; 'I' for Inactive)
REMARK    1  A    between atoms: O_1  and  C_11
REMARK    2  A    between atoms: O_1  and  C_18
REMARK    3  A    between atoms: O_7  and  C_38
REMARK    4  A    between atoms: N_9  and  C_10
REMARK    5  A    between atoms: C_16  and  C_17
REMARK    6  A    between atoms: C_18  and  C_24
REMARK    7  A    between atoms: C_19  and  C_20
REMARK    8  A    between atoms: C_19  and  C_22
REMARK    9  A    between atoms: C_33  and  C_34
REMARK   10  A    between atoms: C_34  and  C_35
REMARK                            x       y       z     vdW  Elec       q    Type
REMARK                         _______ _______ _______ _____ _____    ______ ____
ROOT
ATOM      1  N   UNL     1      -2.734   4.378   0.000  0.00  0.00    +0.000 NA
ATOM      2  C   UNL     1      -1.571   3.451   0.000  0.00  0.00    +0.000 C 
ATOM      3  C   UNL     1      -1.929   2.708   0.000  0.00  0.00    +0.000 C 
ATOM      4  C   UNL     1      -2.734   2.524   0.000  0.00  0.00    +0.000 C 
ATOM      5  C   UNL     1      -1.929   4.194   0.000  0.00  0.00    +0.000 C 
ATOM      6  C   UNL     1      -3.379   3.038   0.000  0.00  0.00    +0.000 C 
ATOM      7  C   UNL     1      -3.379   3.863   0.000  0.00  0.00    +0.000 C 
ATOM      8  H   UNL     1      -2.848   4.877   0.000  0.00  0.00    +0.000 HD
ENDROOT
BRANCH   2  10
ATOM      9  O   UNL     1      -0.746   4.880   0.000  0.00  0.00    +0.000 OA
ATOM     10  N   UNL     1      -0.746   3.451   0.000  0.00  0.00    +0.000 N 
ATOM     11  C   UNL     1      -0.334   4.165   0.000  0.00  0.00    +0.000 C 
ATOM     12  H   UNL     1      -0.491   3.008   0.000  0.00  0.00    +0.000 HD
BRANCH  11  14
ATOM     13  O   UNL     1       2.966   4.165   0.000  0.00  0.00    +0.000 OA
ATOM     14  C   UNL     1       0.491   4.165   0.000  0.00  0.00    +0.000 A 
ATOM     15  C   UNL     1       1.729   3.451   0.000  0.00  0.00    +0.000 A 
ATOM     16  C   UNL     1       0.904   3.451   0.000  0.00  0.00    +0.000 A 
ATOM     17  C   UNL     1       0.904   4.880   0.000  0.00  0.00    +0.000 A 
ATOM     18  C   UNL     1       2.141   4.165   0.000  0.00  0.00    +0.000 A 
ATOM     19  C   UNL     1       1.729   4.880   0.000  0.00  0.00    +0.000 A 
BRANCH  15  20
ATOM     20  C   UNL     1       2.141   2.736   0.000  0.00  0.00    +0.000 C 
ATOM     21  C   UNL     1       1.729   2.022   0.000  0.00  0.00    +0.000 C 
BRANCH  20  22
ATOM     22  C   UNL     1       2.966   2.736   0.000  0.00  0.00    +0.000 C 
ATOM     23  C   UNL     1       3.379   2.022   0.000  0.00  0.00    +0.000 C 
ENDBRANCH  20  22
ENDBRANCH  15  20
ENDBRANCH  11  14
ENDBRANCH   2  10
BRANCH   3  24
ATOM     24  O   UNL     1      -1.415   2.062   0.000  0.00  0.00    +0.000 OA
BRANCH  24  26
ATOM     25  O   UNL     1      -2.532   1.171   0.000  0.00  0.00    +0.000 OA
ATOM     26  C   UNL     1      -1.716   1.294   0.000  0.00  0.00    +0.000 C 
BRANCH  26  27
ATOM     27  C   UNL     1      -1.202   0.649   0.000  0.00  0.00    +0.000 A 
ATOM     28  C   UNL     1      -0.386   0.772   0.000  0.00  0.00    +0.000 A 
ATOM     29  C   UNL     1      -1.503  -0.119   0.000  0.00  0.00    +0.000 A 
ATOM     30  C   UNL     1       0.128   0.127   0.000  0.00  0.00    +0.000 A 
ATOM     31  C   UNL     1      -0.989  -0.764   0.000  0.00  0.00    +0.000 A 
ATOM     32  C   UNL     1      -0.173  -0.641   0.000  0.00  0.00    +0.000 A 
BRANCH  32  34
ATOM     33  O   UNL     1       1.157  -1.163   0.000  0.00  0.00    +0.000 OA
ATOM     34  C   UNL     1       0.341  -1.286   0.000  0.00  0.00    +0.000 C 
BRANCH  34  36
ATOM     35  O   UNL     1      -1.290  -1.532   0.000  0.00  0.00    +0.000 OA
ATOM     36  C   UNL     1       0.040  -2.054   0.000  0.00  0.00    +0.000 A 
ATOM     37  C   UNL     1      -0.776  -2.177   0.000  0.00  0.00    +0.000 A 
ATOM     38  C   UNL     1       0.554  -2.699   0.000  0.00  0.00    +0.000 A 
ATOM     39  C   UNL     1       0.253  -3.467   0.000  0.00  0.00    +0.000 A 
ATOM     40  C   UNL     1      -1.077  -2.945   0.000  0.00  0.00    +0.000 A 
ATOM     41  C   UNL     1      -0.563  -3.590   0.000  0.00  0.00    +0.000 A 
BRANCH  39  42
ATOM     42  O   UNL     1       0.767  -4.112   0.000  0.00  0.00    +0.000 OA
ATOM     43  C   UNL     1       0.466  -4.880   0.000  0.00  0.00    +0.000 C 
ENDBRANCH  39  42
ENDBRANCH  34  36
ENDBRANCH  32  34
ENDBRANCH  26  27
ENDBRANCH  24  26
ENDBRANCH   3  24
TORSDOF 10
