REMARK  Name = 
REMARK  8 active torsions:
REMARK  status: ('A' for Active; 'I' for Inactive)
REMARK    1  A    between atoms: N_2  and  C_4
REMARK    2  A    between atoms: C_4  and  C_5
REMARK    3  A    between atoms: C_5  and  N_6
REMARK    4  A    between atoms: N_6  and  C_7
REMARK    5  A    between atoms: C_10  and  N_25
REMARK    6  A    between atoms: N_25  and  C_26
REMARK    7  A    between atoms: C_26  and  C_27
REMARK    8  A    between atoms: C_27  and  N_28
REMARK                            x       y       z     vdW  Elec       q    Type
REMARK                         _______ _______ _______ _____ _____    ______ ____
ROOT
ATOM      1  C   UNL     1       3.572  -0.412   0.000  0.00  0.00    +0.000 A 
ATOM      2  C   UNL     1       4.287   0.000   0.000  0.00  0.00    +0.000 A 
ATOM      3  C   UNL     1       4.287   0.825   0.000  0.00  0.00    +0.000 A 
ATOM      4  C   UNL     1       3.572   1.238   0.000  0.00  0.00    +0.000 A 
ATOM      5  C   UNL     1       2.858   0.825   0.000  0.00  0.00    +0.000 A 
ATOM      6  C   UNL     1       2.858   0.000   0.000  0.00  0.00    +0.000 A 
ATOM      7  C   UNL     1       2.143  -0.412   0.000  0.00  0.00    +0.000 C 
ATOM      8  O   UNL     1       2.143  -1.238   0.000  0.00  0.00    +0.000 OA
ATOM      9  C   UNL     1       1.429   0.000   0.000  0.00  0.00    +0.000 A 
ATOM     10  C   UNL     1       0.715  -0.412   0.000  0.00  0.00    +0.000 A 
ATOM     11  C   UNL     1       0.000   0.000   0.000  0.00  0.00    +0.000 A 
ATOM     12  C   UNL     1       0.000   0.825   0.000  0.00  0.00    +0.000 A 
ATOM     13  C   UNL     1       0.715   1.238   0.000  0.00  0.00    +0.000 A 
ATOM     14  C   UNL     1       1.429   0.825   0.000  0.00  0.00    +0.000 A 
ATOM     15  C   UNL     1       2.143   1.238   0.000  0.00  0.00    +0.000 C 
ATOM     16  O   UNL     1       2.143   2.062   0.000  0.00  0.00    +0.000 OA
ATOM     17  O   UNL     1       0.715   2.062   0.000  0.00  0.00    +0.000 OA
ATOM     18  O   UNL     1       0.715  -1.238   0.000  0.00  0.00    +0.000 OA
ENDROOT
BRANCH   1  19
ATOM     19  N   UNL     1       3.572  -1.238   0.000  0.00  0.00    +0.000 NA
BRANCH  19  20
ATOM     20  C   UNL     1       2.858  -1.650   0.000  0.00  0.00    +0.000 C 
BRANCH  20  21
ATOM     21  C   UNL     1       2.858  -2.475   0.000  0.00  0.00    +0.000 C 
BRANCH  21  23
ATOM     22  C   UNL     1       1.429  -3.300   0.000  0.00  0.00    +0.000 C 
ATOM     23  N   UNL     1       2.143  -2.888   0.000  0.00  0.00    +0.000 N 
ATOM     24  C   UNL     1       2.556  -3.602   0.000  0.00  0.00    +0.000 C 
ATOM     25  O   UNL     1       1.731  -2.173   0.000  0.00  0.00    +0.000 OA
ENDBRANCH  21  23
ENDBRANCH  20  21
ENDBRANCH  19  20
ENDBRANCH   1  19
BRANCH   4  26
ATOM     26  N   UNL     1       3.572   2.062   0.000  0.00  0.00    +0.000 NA
BRANCH  26  27
ATOM     27  C   UNL     1       2.858   2.475   0.000  0.00  0.00    +0.000 C 
BRANCH  27  28
ATOM     28  C   UNL     1       2.858   3.300   0.000  0.00  0.00    +0.000 C 
BRANCH  28  29
ATOM     29  N   UNL     1       2.143   3.712   0.000  0.00  0.00    +0.000 N 
ATOM     30  C   UNL     1       1.429   4.125   0.000  0.00  0.00    +0.000 C 
ATOM     31  C   UNL     1       2.556   4.427   0.000  0.00  0.00    +0.000 C 
ATOM     32  O   UNL     1       1.731   2.998   0.000  0.00  0.00    +0.000 OA
ENDBRANCH  28  29
ENDBRANCH  27  28
ENDBRANCH  26  27
ENDBRANCH   4  26
TORSDOF 8
