REMARK  Name = 
REMARK  4 active torsions:
REMARK  status: ('A' for Active; 'I' for Inactive)
REMARK    1  A    between atoms: P_1  and  O_4
REMARK    2  A    between atoms: O_4  and  C_18
REMARK    3  A    between atoms: C_13  and  C_17
REMARK    4  A    between atoms: C_14  and  C_18
REMARK                            x       y       z     vdW  Elec       q    Type
REMARK                         _______ _______ _______ _____ _____    ______ ____
ROOT
ATOM      1  O   UNL     1       1.957  -0.835   0.000  0.00  0.00    +0.000 OA
ATOM      2  O   UNL     1       1.960   0.960   0.000  0.00  0.00    +0.000 OA
ATOM      3  N   UNL     1       0.022   0.066   0.000  0.00  0.00    +0.000 NA
ATOM      4  C   UNL     1       0.505  -0.602   0.000  0.00  0.00    +0.000 C 
ATOM      5  C   UNL     1       0.508   0.733   0.000  0.00  0.00    +0.000 C 
ATOM      6  C   UNL     1       1.291  -0.348   0.000  0.00  0.00    +0.000 C 
ATOM      7  C   UNL     1       1.292   0.476   0.000  0.00  0.00    +0.000 C 
ATOM      8  H   UNL     1      -0.490   0.067   0.000  0.00  0.00    +0.000 HD
ENDROOT
BRANCH   4  13
ATOM      9  O   UNL     1      -1.246  -3.700   0.000  0.00  0.00    +0.000 OA
ATOM     10  N   UNL     1       0.249  -2.714   0.000  0.00  0.00    +0.000 N 
ATOM     11  N   UNL     1      -1.246  -1.225   0.000  0.00  0.00    +0.000 N 
ATOM     12  N   UNL     1      -1.960  -2.463   0.000  0.00  0.00    +0.000 NA
ATOM     13  C   UNL     1       0.249  -1.386   0.000  0.00  0.00    +0.000 A 
ATOM     14  C   UNL     1      -0.531  -1.638   0.000  0.00  0.00    +0.000 A 
ATOM     15  C   UNL     1       0.731  -2.050   0.000  0.00  0.00    +0.000 A 
ATOM     16  C   UNL     1      -0.531  -2.463   0.000  0.00  0.00    +0.000 A 
ATOM     17  C   UNL     1      -1.246  -2.875   0.000  0.00  0.00    +0.000 A 
ATOM     18  C   UNL     1      -1.960  -1.638   0.000  0.00  0.00    +0.000 A 
ATOM     19  H   UNL     1       0.408  -3.200   0.000  0.00  0.00    +0.000 HD
ATOM     20  H   UNL     1      -1.246  -0.714   0.000  0.00  0.00    +0.000 HD
ENDBRANCH   4  13
BRANCH   5  21
ATOM     21  C   UNL     1       0.254   1.518   0.000  0.00  0.00    +0.000 C 
BRANCH  21  22
ATOM     22  O   UNL     1       0.807   2.130   0.000  0.00  0.00    +0.000 OA
BRANCH  22  23
ATOM     23  P   UNL     1       0.554   2.915   0.000  0.00  0.00    +0.000 P 
ATOM     24  O   UNL     1       1.339   3.169   0.000  0.00  0.00    +0.000 OA
ATOM     25  O   UNL     1       0.300   3.700   0.000  0.00  0.00    +0.000 OA
ATOM     26  O   UNL     1      -0.231   2.662   0.000  0.00  0.00    +0.000 OA
ENDBRANCH  22  23
ENDBRANCH  21  22
ENDBRANCH   5  21
TORSDOF 4
