REMARK  Name = 
REMARK  6 active torsions:
REMARK  status: ('A' for Active; 'I' for Inactive)
REMARK    1  A    between atoms: C_2  and  C_4
REMARK    2  A    between atoms: C_4  and  O_5
REMARK    3  A    between atoms: O_5  and  C_6
REMARK    4  A    between atoms: C_9  and  N_13
REMARK    5  A    between atoms: C_21  and  C_23
REMARK    6  A    between atoms: N_25  and  S_26
REMARK                            x       y       z     vdW  Elec       q    Type
REMARK                         _______ _______ _______ _____ _____    ______ ____
ROOT
ATOM      1  N   UNL     1      -0.143  -0.030   0.000  0.00  0.00    +0.000 N 
ATOM      2  N   UNL     1      -0.628  -0.698   0.000  0.00  0.00    +0.000 NA
ATOM      3  C   UNL     1      -0.143  -1.365   0.000  0.00  0.00    +0.000 A 
ATOM      4  C   UNL     1      -0.398  -2.150   0.000  0.00  0.00    +0.000 C 
ATOM      5  C   UNL     1       0.641  -1.110   0.000  0.00  0.00    +0.000 A 
ATOM      6  C   UNL     1       0.641  -0.285   0.000  0.00  0.00    +0.000 A 
ATOM      7  C   UNL     1       1.356   0.127   0.000  0.00  0.00    +0.000 A 
ATOM      8  C   UNL     1       2.070  -0.285   0.000  0.00  0.00    +0.000 A 
ATOM      9  C   UNL     1       2.070  -1.110   0.000  0.00  0.00    +0.000 A 
ATOM     10  C   UNL     1       1.356  -1.523   0.000  0.00  0.00    +0.000 A 
ENDROOT
BRANCH   1  14
ATOM     11  C   UNL     1      -0.908   2.323   0.000  0.00  0.00    +0.000 A 
ATOM     12  N   UNL     1      -0.101   2.152   0.000  0.00  0.00    +0.000 NA
ATOM     13  C   UNL     1       0.154   1.367   0.000  0.00  0.00    +0.000 A 
ATOM     14  C   UNL     1      -0.398   0.754   0.000  0.00  0.00    +0.000 A 
ATOM     15  C   UNL     1      -1.205   0.926   0.000  0.00  0.00    +0.000 A 
ATOM     16  C   UNL     1      -1.460   1.710   0.000  0.00  0.00    +0.000 A 
ATOM     17 CL   UNL     1      -2.267   1.882   0.000  0.00  0.00    +0.000 Cl
BRANCH  11  18
ATOM     18  O   UNL     1      -1.163   3.108   0.000  0.00  0.00    +0.000 OA
BRANCH  18  19
ATOM     19  C   UNL     1      -1.970   3.280   0.000  0.00  0.00    +0.000 C 
BRANCH  19  21
ATOM     20  C   UNL     1      -3.032   4.236   0.000  0.00  0.00    +0.000 C 
ATOM     21  C   UNL     1      -2.225   4.064   0.000  0.00  0.00    +0.000 C 
ATOM     22  C   UNL     1      -1.673   4.677   0.000  0.00  0.00    +0.000 C 
ENDBRANCH  19  21
ENDBRANCH  18  19
ENDBRANCH  11  18
ENDBRANCH   1  14
BRANCH   9  23
ATOM     23  C   UNL     1       2.784  -1.523   0.000  0.00  0.00    +0.000 C 
ATOM     24  O   UNL     1       3.499  -1.110   0.000  0.00  0.00    +0.000 OA
ATOM     25  N   UNL     1       2.784  -2.348   0.000  0.00  0.00    +0.000 NA
BRANCH  25  26
ATOM     26  S   UNL     1       3.499  -2.760   0.000  0.00  0.00    +0.000 S 
ATOM     27  C   UNL     1       4.213  -3.173   0.000  0.00  0.00    +0.000 C 
ATOM     28  O   UNL     1       3.087  -3.475   0.000  0.00  0.00    +0.000 OA
ATOM     29  O   UNL     1       3.912  -2.046   0.000  0.00  0.00    +0.000 OA
ENDBRANCH  25  26
ENDBRANCH   9  23
TORSDOF 6
