REMARK  Name = 
REMARK  14 active torsions:
REMARK  status: ('A' for Active; 'I' for Inactive)
REMARK    1  A    between atoms: N_4  and  C_5
REMARK    2  A    between atoms: C_5  and  C_6
REMARK    3  A    between atoms: C_5  and  C_7
REMARK    4  A    between atoms: C_6  and  C_8
REMARK    5  A    between atoms: C_7  and  C_13
REMARK    6  A    between atoms: C_8  and  C_16
REMARK    7  A    between atoms: C_9  and  C_10
REMARK    8  A    between atoms: C_9  and  C_12
REMARK    9  A    between atoms: C_10  and  C_11
REMARK   10  A    between atoms: C_11  and  C_14
REMARK   11  A    between atoms: C_12  and  C_15
REMARK   12  A    between atoms: C_13  and  C_19
REMARK   13  A    between atoms: C_15  and  C_17
REMARK   14  A    between atoms: C_17  and  C_18
REMARK                            x       y       z     vdW  Elec       q    Type
REMARK                         _______ _______ _______ _____ _____    ______ ____
ROOT
ATOM      1  O   UNL     1      -1.429   0.206   0.000  0.00  0.00    +0.000 OA
ATOM      2  N   UNL     1      -0.715  -1.031   0.000  0.00  0.00    +0.000 N 
ATOM      3  C   UNL     1      -0.715  -0.206   0.000  0.00  0.00    +0.000 C 
ATOM      4  H   UNL     1      -0.272  -1.287   0.000  0.00  0.00    +0.000 HD
ENDROOT
BRANCH   2   5
ATOM      5  C   UNL     1      -1.429  -1.444   0.000  0.00  0.00    +0.000 C 
BRANCH   5   6
ATOM      6  C   UNL     1      -2.143  -1.031   0.000  0.00  0.00    +0.000 C 
BRANCH   6   7
ATOM      7  C   UNL     1      -2.143  -0.206   0.000  0.00  0.00    +0.000 C 
BRANCH   7  10
ATOM      8  O   UNL     1      -2.858   1.031   0.000  0.00  0.00    +0.000 OA
ATOM      9  O   UNL     1      -3.572  -0.206   0.000  0.00  0.00    +0.000 OA
ATOM     10  C   UNL     1      -2.858   0.206   0.000  0.00  0.00    +0.000 C 
ENDBRANCH   7  10
ENDBRANCH   6   7
ENDBRANCH   5   6
BRANCH   5  11
ATOM     11  C   UNL     1      -1.429  -2.269   0.000  0.00  0.00    +0.000 C 
BRANCH  11  12
ATOM     12  C   UNL     1      -2.143  -2.681   0.000  0.00  0.00    +0.000 C 
BRANCH  12  13
ATOM     13  C   UNL     1      -2.143  -3.506   0.000  0.00  0.00    +0.000 A 
ATOM     14  C   UNL     1      -1.429  -3.919   0.000  0.00  0.00    +0.000 A 
ATOM     15  C   UNL     1      -2.858  -3.919   0.000  0.00  0.00    +0.000 A 
ATOM     16  C   UNL     1      -1.429  -4.744   0.000  0.00  0.00    +0.000 A 
ATOM     17  C   UNL     1      -2.858  -4.744   0.000  0.00  0.00    +0.000 A 
ATOM     18  C   UNL     1      -2.143  -5.156   0.000  0.00  0.00    +0.000 A 
ENDBRANCH  12  13
ENDBRANCH  11  12
ENDBRANCH   5  11
ENDBRANCH   2   5
BRANCH   3  19
ATOM     19  C   UNL     1       0.000   0.206   0.000  0.00  0.00    +0.000 C 
BRANCH  19  20
ATOM     20  C   UNL     1       0.000   1.031   0.000  0.00  0.00    +0.000 C 
BRANCH  20  21
ATOM     21  C   UNL     1       0.715   1.444   0.000  0.00  0.00    +0.000 C 
BRANCH  21  22
ATOM     22  C   UNL     1       0.715   2.269   0.000  0.00  0.00    +0.000 C 
BRANCH  22  23
ATOM     23  C   UNL     1       1.429   2.681   0.000  0.00  0.00    +0.000 C 
BRANCH  23  24
ATOM     24  C   UNL     1       1.429   3.506   0.000  0.00  0.00    +0.000 C 
BRANCH  24  25
ATOM     25  C   UNL     1       2.143   3.919   0.000  0.00  0.00    +0.000 A 
ATOM     26  C   UNL     1       2.143   4.744   0.000  0.00  0.00    +0.000 A 
ATOM     27  C   UNL     1       2.858   3.506   0.000  0.00  0.00    +0.000 A 
ATOM     28  C   UNL     1       2.858   5.156   0.000  0.00  0.00    +0.000 A 
ATOM     29  C   UNL     1       3.572   3.919   0.000  0.00  0.00    +0.000 A 
ATOM     30  C   UNL     1       3.572   4.744   0.000  0.00  0.00    +0.000 A 
ENDBRANCH  24  25
ENDBRANCH  23  24
ENDBRANCH  22  23
ENDBRANCH  21  22
ENDBRANCH  20  21
ENDBRANCH  19  20
ENDBRANCH   3  19
TORSDOF 14
