REMARK  Name = 
REMARK  7 active torsions:
REMARK  status: ('A' for Active; 'I' for Inactive)
REMARK    1  A    between atoms: C_1  and  C_2
REMARK    2  A    between atoms: C_1  and  C_4
REMARK    3  A    between atoms: C_2  and  C_3
REMARK    4  A    between atoms: C_3  and  O_5
REMARK    5  A    between atoms: C_4  and  O_6
REMARK    6  A    between atoms: O_5  and  S_8
REMARK    7  A    between atoms: O_6  and  S_7
REMARK                            x       y       z     vdW  Elec       q    Type
REMARK                         _______ _______ _______ _____ _____    ______ ____
ROOT
ATOM      1  C   UNL     1       0.357  -0.203   0.000  0.00  0.00    +0.000 C 
ENDROOT
BRANCH   1   2
ATOM      2  C   UNL     1       1.071   0.209   0.000  0.00  0.00    +0.000 C 
BRANCH   2   3
ATOM      3  O   UNL     1       1.786  -0.203   0.000  0.00  0.00    +0.000 OA
BRANCH   3   4
ATOM      4  S   UNL     1       2.505   0.209   0.000  0.00  0.00    +0.000 S 
ATOM      5  C   UNL     1       3.221  -0.209   0.000  0.00  0.00    +0.000 C 
ATOM      6  O   UNL     1       2.095   0.925   0.000  0.00  0.00    +0.000 OA
ATOM      7  O   UNL     1       2.920   0.922   0.000  0.00  0.00    +0.000 OA
ENDBRANCH   3   4
ENDBRANCH   2   3
ENDBRANCH   1   2
BRANCH   1   8
ATOM      8  C   UNL     1      -0.358   0.209   0.000  0.00  0.00    +0.000 C 
BRANCH   8   9
ATOM      9  C   UNL     1      -1.072  -0.203   0.000  0.00  0.00    +0.000 C 
BRANCH   9  10
ATOM     10  O   UNL     1      -1.787   0.209   0.000  0.00  0.00    +0.000 OA
BRANCH  10  11
ATOM     11  S   UNL     1      -2.505  -0.209   0.000  0.00  0.00    +0.000 S 
ATOM     12  C   UNL     1      -3.221   0.199   0.000  0.00  0.00    +0.000 C 
ATOM     13  O   UNL     1      -2.089  -0.921   0.000  0.00  0.00    +0.000 OA
ATOM     14  O   UNL     1      -2.914  -0.925   0.000  0.00  0.00    +0.000 OA
ENDBRANCH  10  11
ENDBRANCH   9  10
ENDBRANCH   8   9
ENDBRANCH   1   8
TORSDOF 7
