REMARK  Name = 
REMARK  3 active torsions:
REMARK  status: ('A' for Active; 'I' for Inactive)
REMARK    1  A    between atoms: C_1  and  C_2
REMARK    2  A    between atoms: C_1  and  C_3
REMARK    3  A    between atoms: C_3  and  N_4
REMARK                            x       y       z     vdW  Elec       q    Type
REMARK                         _______ _______ _______ _____ _____    ______ ____
ROOT
ATOM      1  C   UNL     1       0.357   0.416   0.000  0.00  0.00    +0.000 C 
ATOM      2  O   UNL     1       0.353   1.239   0.000  0.00  0.00    +0.000 OA
ENDROOT
BRANCH   1   3
ATOM      3  C   UNL     1      -0.353   0.000   0.000  0.00  0.00    +0.000 A 
ATOM      4  C   UNL     1      -0.353  -0.827   0.000  0.00  0.00    +0.000 A 
ATOM      5  C   UNL     1      -1.068   0.411   0.000  0.00  0.00    +0.000 A 
ATOM      6  C   UNL     1      -1.068  -1.239   0.000  0.00  0.00    +0.000 A 
ATOM      7  C   UNL     1      -1.779   0.000   0.000  0.00  0.00    +0.000 A 
ATOM      8  C   UNL     1      -1.779  -0.827   0.000  0.00  0.00    +0.000 A 
ENDBRANCH   1   3
BRANCH   1   9
ATOM      9  C   UNL     1       1.068   0.004   0.000  0.00  0.00    +0.000 C 
ATOM     10  C   UNL     1       1.779   0.424   0.000  0.00  0.00    +0.000 C 
BRANCH   9  11
ATOM     11  N   UNL     1       1.064  -0.819   0.000  0.00  0.00    +0.000 NA
ATOM     12  C   UNL     1       1.775  -1.230   0.000  0.00  0.00    +0.000 C 
ENDBRANCH   9  11
ENDBRANCH   1   9
TORSDOF 3
