REMARK  Name = 
REMARK  1 active torsions:
REMARK  status: ('A' for Active; 'I' for Inactive)
REMARK    1  A    between atoms: CL_1  and  O_4
REMARK                            x       y       z     vdW  Elec       q    Type
REMARK                         _______ _______ _______ _____ _____    ______ ____
ROOT
ATOM      1 CL   UNL     1       0.000  -0.412   0.000  0.00  0.00    +0.000 Cl
ATOM      2  O   UNL     1       0.715  -0.825   0.000  0.00  0.00    +0.000 OA
ATOM      3  O   UNL     1      -0.715  -0.825   0.000  0.00  0.00    +0.000 OA
ENDROOT
BRANCH   1   4
ATOM      4  O   UNL     1       0.000   0.412   0.000  0.00  0.00    +0.000 OA
ATOM      5  H   UNL     1       0.715   0.825   0.000  0.00  0.00    +0.000 HD
ENDBRANCH   1   4
TORSDOF 1
