REMARK  Name = 
REMARK  13 active torsions:
REMARK  status: ('A' for Active; 'I' for Inactive)
REMARK    1  A    between atoms: O_2  and  C_7
REMARK    2  A    between atoms: O_2  and  C_8
REMARK    3  A    between atoms: O_3  and  C_9
REMARK    4  A    between atoms: O_3  and  C_14
REMARK    5  A    between atoms: O_4  and  C_10
REMARK    6  A    between atoms: O_4  and  C_23
REMARK    7  A    between atoms: N_5  and  C_13
REMARK    8  A    between atoms: N_5  and  C_26
REMARK    9  A    between atoms: C_7  and  C_9
REMARK   10  A    between atoms: C_8  and  C_10
REMARK   11  A    between atoms: C_11  and  C_15
REMARK   12  A    between atoms: C_12  and  C_18
REMARK   13  A    between atoms: C_23  and  C_25
REMARK                            x       y       z     vdW  Elec       q    Type
REMARK                         _______ _______ _______ _____ _____    ______ ____
ROOT
ATOM      1  N   UNL     1      -1.565  -0.019   0.000  0.00  0.00    +0.000 NA
ATOM      2  C   UNL     1      -0.850  -1.256   0.000  0.00  0.00    +0.000 A 
ATOM      3  C   UNL     1      -0.850   0.394   0.000  0.00  0.00    +0.000 A 
ATOM      4  C   UNL     1      -0.136  -0.844   0.000  0.00  0.00    +0.000 A 
ATOM      5  C   UNL     1      -0.136  -0.019   0.000  0.00  0.00    +0.000 A 
ATOM      6  C   UNL     1      -1.565  -0.844   0.000  0.00  0.00    +0.000 A 
ENDROOT
BRANCH   2   8
ATOM      7  C   UNL     1      -1.565  -2.494   0.000  0.00  0.00    +0.000 C 
ATOM      8  C   UNL     1      -0.850  -2.081   0.000  0.00  0.00    +0.000 C 
BRANCH   7   9
ATOM      9  C   UNL     1      -1.565  -3.319   0.000  0.00  0.00    +0.000 A 
ATOM     10  C   UNL     1      -1.565  -4.969   0.000  0.00  0.00    +0.000 A 
ATOM     11  C   UNL     1      -2.279  -3.731   0.000  0.00  0.00    +0.000 A 
ATOM     12  C   UNL     1      -0.850  -3.731   0.000  0.00  0.00    +0.000 A 
ATOM     13  C   UNL     1      -2.279  -4.556   0.000  0.00  0.00    +0.000 A 
ATOM     14  C   UNL     1      -0.850  -4.556   0.000  0.00  0.00    +0.000 A 
BRANCH  10  15
ATOM     15  N   UNL     1      -1.565  -5.794   0.000  0.00  0.00    +0.000 N 
ATOM     16  C   UNL     1      -2.279  -6.206   0.000  0.00  0.00    +0.000 C 
ATOM     17  H   UNL     1      -1.122  -6.050   0.000  0.00  0.00    +0.000 HD
ENDBRANCH  10  15
ENDBRANCH   7   9
ENDBRANCH   2   8
BRANCH   3  18
ATOM     18  O   UNL     1      -0.850   1.219   0.000  0.00  0.00    +0.000 OA
BRANCH  18  19
ATOM     19  C   UNL     1      -0.136   1.631   0.000  0.00  0.00    +0.000 C 
BRANCH  19  20
ATOM     20  C   UNL     1      -0.136   2.456   0.000  0.00  0.00    +0.000 C 
BRANCH  20  21
ATOM     21  O   UNL     1       0.579   2.869   0.000  0.00  0.00    +0.000 OA
BRANCH  21  22
ATOM     22  C   UNL     1       0.579   3.694   0.000  0.00  0.00    +0.000 C 
BRANCH  22  23
ATOM     23  C   UNL     1       1.293   4.106   0.000  0.00  0.00    +0.000 C 
BRANCH  23  24
ATOM     24  O   UNL     1       1.293   4.931   0.000  0.00  0.00    +0.000 OA
BRANCH  24  25
ATOM     25  C   UNL     1       2.008   5.344   0.000  0.00  0.00    +0.000 C 
BRANCH  25  27
ATOM     26  F   UNL     1       2.722   6.581   0.000  0.00  0.00    +0.000 F 
ATOM     27  C   UNL     1       2.008   6.169   0.000  0.00  0.00    +0.000 C 
ENDBRANCH  25  27
ENDBRANCH  24  25
ENDBRANCH  23  24
ENDBRANCH  22  23
ENDBRANCH  21  22
ENDBRANCH  20  21
ENDBRANCH  19  20
ENDBRANCH  18  19
ENDBRANCH   3  18
TORSDOF 12
