REMARK  Name = 
REMARK  16 active torsions:
REMARK  status: ('A' for Active; 'I' for Inactive)
REMARK    1  A    between atoms: P_1  and  C_2
REMARK    2  A    between atoms: P_1  and  C_8
REMARK    3  A    between atoms: P_1  and  C_14
REMARK    4  A    between atoms: P_1  and  C_20
REMARK    5  A    between atoms: C_20  and  C_21
REMARK    6  A    between atoms: C_21  and  C_22
REMARK    7  A    between atoms: C_22  and  C_23
REMARK    8  A    between atoms: C_23  and  C_24
REMARK    9  A    between atoms: C_24  and  C_25
REMARK   10  A    between atoms: C_25  and  C_26
REMARK   11  A    between atoms: C_26  and  C_27
REMARK   12  A    between atoms: C_27  and  C_28
REMARK   13  A    between atoms: C_28  and  C_29
REMARK   14  A    between atoms: C_29  and  C_30
REMARK   15  A    between atoms: C_35  and  O_36
REMARK   16  A    between atoms: C_38  and  O_39
REMARK                            x       y       z     vdW  Elec       q    Type
REMARK                         _______ _______ _______ _____ _____    ______ ____
ROOT
ATOM      1  C   UNL     1      -2.475  -0.549   0.000  0.00  0.00    +0.000 C 
ENDROOT
BRANCH   1   2
ATOM      2  C   UNL     1      -1.650  -0.549   0.000  0.00  0.00    +0.000 C 
BRANCH   2   3
ATOM      3  C   UNL     1      -1.238   0.166   0.000  0.00  0.00    +0.000 C 
BRANCH   3   4
ATOM      4  C   UNL     1      -0.412   0.166   0.000  0.00  0.00    +0.000 C 
BRANCH   4   5
ATOM      5  C   UNL     1       0.000   0.880   0.000  0.00  0.00    +0.000 C 
BRANCH   5   6
ATOM      6  C   UNL     1       0.825   0.880   0.000  0.00  0.00    +0.000 C 
BRANCH   6   7
ATOM      7  C   UNL     1       1.238   1.595   0.000  0.00  0.00    +0.000 C 
BRANCH   7   8
ATOM      8  C   UNL     1       2.062   1.595   0.000  0.00  0.00    +0.000 C 
BRANCH   8   9
ATOM      9  C   UNL     1       2.475   2.309   0.000  0.00  0.00    +0.000 C 
BRANCH   9  10
ATOM     10  C   UNL     1       3.300   2.309   0.000  0.00  0.00    +0.000 C 
ATOM     11  C   UNL     1       3.712   3.024   0.000  0.00  0.00    +0.000 C 
ATOM     12  C   UNL     1       3.300   3.738   0.000  0.00  0.00    +0.000 C 
ATOM     13  C   UNL     1       4.537   3.024   0.000  0.00  0.00    +0.000 C 
ATOM     14  O   UNL     1       4.950   3.738   0.000  0.00  0.00    +0.000 OA
ATOM     15  C   UNL     1       4.950   2.309   0.000  0.00  0.00    +0.000 C 
ATOM     16  C   UNL     1       4.537   1.595   0.000  0.00  0.00    +0.000 C 
ATOM     17  C   UNL     1       3.712   1.595   0.000  0.00  0.00    +0.000 C 
ATOM     18  O   UNL     1       3.300   0.880   0.000  0.00  0.00    +0.000 OA
BRANCH  16  19
ATOM     19  O   UNL     1       4.950   0.880   0.000  0.00  0.00    +0.000 OA
ATOM     20  C   UNL     1       4.537   0.166   0.000  0.00  0.00    +0.000 C 
ENDBRANCH  16  19
BRANCH  15  21
ATOM     21  O   UNL     1       5.775   2.309   0.000  0.00  0.00    +0.000 OA
ATOM     22  C   UNL     1       6.188   3.024   0.000  0.00  0.00    +0.000 C 
ENDBRANCH  15  21
ENDBRANCH   9  10
ENDBRANCH   8   9
ENDBRANCH   7   8
ENDBRANCH   6   7
ENDBRANCH   5   6
ENDBRANCH   4   5
ENDBRANCH   3   4
ENDBRANCH   2   3
ENDBRANCH   1   2
BRANCH   1  23
ATOM     23  C   UNL     1      -2.888  -1.263   0.000  0.00  0.00    +0.000 C 
BRANCH  23  24
ATOM     24  P   UNL     1      -3.712  -1.263   0.000  0.00  0.00    +0.000 P 
BRANCH  24  25
ATOM     25  C   UNL     1      -3.712  -0.438   0.000  0.00  0.00    +0.000 A 
ATOM     26  C   UNL     1      -2.998  -0.026   0.000  0.00  0.00    +0.000 A 
ATOM     27  C   UNL     1      -2.998   0.799   0.000  0.00  0.00    +0.000 A 
ATOM     28  C   UNL     1      -3.712   1.212   0.000  0.00  0.00    +0.000 A 
ATOM     29  C   UNL     1      -4.427   0.799   0.000  0.00  0.00    +0.000 A 
ATOM     30  C   UNL     1      -4.427  -0.026   0.000  0.00  0.00    +0.000 A 
ENDBRANCH  24  25
BRANCH  24  31
ATOM     31  C   UNL     1      -4.537  -1.263   0.000  0.00  0.00    +0.000 A 
ATOM     32  C   UNL     1      -4.950  -1.978   0.000  0.00  0.00    +0.000 A 
ATOM     33  C   UNL     1      -5.775  -1.978   0.000  0.00  0.00    +0.000 A 
ATOM     34  C   UNL     1      -6.188  -1.263   0.000  0.00  0.00    +0.000 A 
ATOM     35  C   UNL     1      -5.775  -0.549   0.000  0.00  0.00    +0.000 A 
ATOM     36  C   UNL     1      -4.950  -0.549   0.000  0.00  0.00    +0.000 A 
ENDBRANCH  24  31
BRANCH  24  37
ATOM     37  C   UNL     1      -3.712  -2.088   0.000  0.00  0.00    +0.000 A 
ATOM     38  C   UNL     1      -2.998  -2.501   0.000  0.00  0.00    +0.000 A 
ATOM     39  C   UNL     1      -2.998  -3.326   0.000  0.00  0.00    +0.000 A 
ATOM     40  C   UNL     1      -3.712  -3.738   0.000  0.00  0.00    +0.000 A 
ATOM     41  C   UNL     1      -4.427  -3.326   0.000  0.00  0.00    +0.000 A 
ATOM     42  C   UNL     1      -4.427  -2.501   0.000  0.00  0.00    +0.000 A 
ENDBRANCH  24  37
ENDBRANCH  23  24
ENDBRANCH   1  23
TORSDOF 16
