REMARK  Name = 
REMARK  3 active torsions:
REMARK  status: ('A' for Active; 'I' for Inactive)
REMARK    1  A    between atoms: N_2  and  C_4
REMARK    2  A    between atoms: C_4  and  C_5
REMARK    3  A    between atoms: C_5  and  C_6
REMARK                            x       y       z     vdW  Elec       q    Type
REMARK                         _______ _______ _______ _____ _____    ______ ____
ROOT
ATOM      1  C   UNL     1       0.357   0.000   0.000  0.00  0.00    +0.000 C 
ATOM      2  C   UNL     1       0.357  -0.825   0.000  0.00  0.00    +0.000 C 
ATOM      3  C   UNL     1       1.072  -1.238   0.000  0.00  0.00    +0.000 A 
ATOM      4  C   UNL     1       1.786  -0.825   0.000  0.00  0.00    +0.000 A 
ATOM      5  C   UNL     1       2.501  -1.238   0.000  0.00  0.00    +0.000 A 
ATOM      6  C   UNL     1       2.501  -2.062   0.000  0.00  0.00    +0.000 A 
ATOM      7  C   UNL     1       1.786  -2.475   0.000  0.00  0.00    +0.000 A 
ATOM      8  C   UNL     1       1.072  -2.062   0.000  0.00  0.00    +0.000 A 
ATOM      9  S   UNL     1       0.357  -2.475   0.000  0.00  0.00    +0.000 S 
ATOM     10  C   UNL     1      -0.357  -2.062   0.000  0.00  0.00    +0.000 A 
ATOM     11  C   UNL     1      -1.072  -2.475   0.000  0.00  0.00    +0.000 A 
ATOM     12  C   UNL     1      -1.786  -2.062   0.000  0.00  0.00    +0.000 A 
ATOM     13  C   UNL     1      -1.786  -1.238   0.000  0.00  0.00    +0.000 A 
ATOM     14 CL   UNL     1      -2.501  -0.825   0.000  0.00  0.00    +0.000 Cl
ATOM     15  C   UNL     1      -1.072  -0.825   0.000  0.00  0.00    +0.000 A 
ATOM     16  C   UNL     1      -0.357  -1.238   0.000  0.00  0.00    +0.000 A 
ENDROOT
BRANCH   1  17
ATOM     17  C   UNL     1      -0.357   0.412   0.000  0.00  0.00    +0.000 C 
BRANCH  17  18
ATOM     18  C   UNL     1      -0.357   1.238   0.000  0.00  0.00    +0.000 C 
BRANCH  18  20
ATOM     19  C   UNL     1      -1.072   2.475   0.000  0.00  0.00    +0.000 C 
ATOM     20  N   UNL     1      -1.072   1.650   0.000  0.00  0.00    +0.000 NA
ATOM     21  C   UNL     1      -1.786   1.238   0.000  0.00  0.00    +0.000 C 
ENDBRANCH  18  20
ENDBRANCH  17  18
ENDBRANCH   1  17
TORSDOF 3
