REMARK  Name = 
REMARK  9 active torsions:
REMARK  status: ('A' for Active; 'I' for Inactive)
REMARK    1  A    between atoms: C_2  and  O_3
REMARK    2  A    between atoms: C_2  and  C_12
REMARK    3  A    between atoms: O_3  and  P_4
REMARK    4  A    between atoms: P_4  and  N_6
REMARK    5  A    between atoms: P_4  and  N_9
REMARK    6  A    between atoms: C_14  and  O_15
REMARK    7  A    between atoms: O_15  and  C_16
REMARK    8  A    between atoms: C_18  and  C_22
REMARK    9  A    between atoms: C_27  and  N_30
REMARK                            x       y       z     vdW  Elec       q    Type
REMARK                         _______ _______ _______ _____ _____    ______ ____
ROOT
ATOM      1  C   UNL     1       4.699   4.014   0.000  0.00  0.00    +0.000 A 
ATOM      2  C   UNL     1       5.414   4.427   0.000  0.00  0.00    +0.000 A 
ATOM      3  C   UNL     1       5.414   5.252   0.000  0.00  0.00    +0.000 A 
ATOM      4  C   UNL     1       4.699   5.665   0.000  0.00  0.00    +0.000 A 
ATOM      5  C   UNL     1       3.985   5.252   0.000  0.00  0.00    +0.000 A 
ATOM      6  C   UNL     1       3.985   4.427   0.000  0.00  0.00    +0.000 A 
ENDROOT
BRANCH   4   7
ATOM      7  N   UNL     1       4.699   6.489   0.000  0.00  0.00    +0.000 N 
ATOM      8  O   UNL     1       3.985   6.902   0.000  0.00  0.00    +0.000 OA
ATOM      9  O   UNL     1       5.414   6.902   0.000  0.00  0.00    +0.000 OA
ENDBRANCH   4   7
BRANCH   1  11
ATOM     10  C   UNL     1       3.985   2.777   0.000  0.00  0.00    +0.000 C 
ATOM     11  C   UNL     1       4.699   3.189   0.000  0.00  0.00    +0.000 C 
BRANCH  11  12
ATOM     12  O   UNL     1       5.414   2.777   0.000  0.00  0.00    +0.000 OA
BRANCH  12  13
ATOM     13  P   UNL     1       5.414   1.952   0.000  0.00  0.00    +0.000 P 
ATOM     14  O   UNL     1       4.589   1.952   0.000  0.00  0.00    +0.000 OA
BRANCH  13  15
ATOM     15  N   UNL     1       5.414   1.127   0.000  0.00  0.00    +0.000 NA
ATOM     16  C   UNL     1       5.826   0.412   0.000  0.00  0.00    +0.000 C 
ATOM     17  C   UNL     1       5.001   0.412   0.000  0.00  0.00    +0.000 C 
ENDBRANCH  13  15
BRANCH  13  18
ATOM     18  N   UNL     1       6.239   1.952   0.000  0.00  0.00    +0.000 NA
ATOM     19  C   UNL     1       6.953   2.365   0.000  0.00  0.00    +0.000 C 
ATOM     20  C   UNL     1       6.953   1.540   0.000  0.00  0.00    +0.000 C 
ENDBRANCH  13  18
ENDBRANCH  12  13
ENDBRANCH  11  12
ENDBRANCH   1  11
BRANCH   3  21
ATOM     21  O   UNL     1       6.128   5.665   0.000  0.00  0.00    +0.000 OA
BRANCH  21  22
ATOM     22  C   UNL     1       6.843   5.252   0.000  0.00  0.00    +0.000 A 
ATOM     23  C   UNL     1       7.557   5.665   0.000  0.00  0.00    +0.000 A 
ATOM     24  C   UNL     1       8.272   5.252   0.000  0.00  0.00    +0.000 A 
ATOM     25  C   UNL     1       8.272   4.427   0.000  0.00  0.00    +0.000 A 
ATOM     26  C   UNL     1       7.557   4.014   0.000  0.00  0.00    +0.000 A 
ATOM     27  C   UNL     1       6.843   4.427   0.000  0.00  0.00    +0.000 A 
BRANCH  24  28
ATOM     28  C   UNL     1       8.986   5.665   0.000  0.00  0.00    +0.000 C 
ATOM     29  O   UNL     1       8.986   6.489   0.000  0.00  0.00    +0.000 OA
ATOM     30  N   UNL     1       9.701   5.252   0.000  0.00  0.00    +0.000 N 
ATOM     31  C   UNL     1      10.415   5.665   0.000  0.00  0.00    +0.000 C 
ATOM     32  C   UNL     1       9.701   4.427   0.000  0.00  0.00    +0.000 C 
ENDBRANCH  24  28
ENDBRANCH  21  22
ENDBRANCH   3  21
TORSDOF 9
