REMARK  Name = 
REMARK  3 active torsions:
REMARK  status: ('A' for Active; 'I' for Inactive)
REMARK    1  A    between atoms: C_7  and  C_9
REMARK    2  A    between atoms: C_9  and  C_10
REMARK    3  A    between atoms: C_10  and  C_11
REMARK                            x       y       z     vdW  Elec       q    Type
REMARK                         _______ _______ _______ _____ _____    ______ ____
ROOT
ATOM      1  C   UNL     1       1.228  -0.417   0.000  0.00  0.00    +0.000 C 
ATOM      2  C   UNL     1       1.142   0.404   0.000  0.00  0.00    +0.000 C 
ATOM      3  S   UNL     1       0.427   0.816   0.000  0.00  0.00    +0.000 S 
ATOM      4  C   UNL     1       0.599   1.623   0.000  0.00  0.00    +0.000 C 
ATOM      5  C   UNL     1       1.419   1.709   0.000  0.00  0.00    +0.000 C 
ATOM      6  N   UNL     1       1.755   0.956   0.000  0.00  0.00    +0.000 N 
ATOM      7  C   UNL     1       2.562   0.784   0.000  0.00  0.00    +0.000 C 
ATOM      8  O   UNL     1       3.114   1.397   0.000  0.00  0.00    +0.000 OA
ATOM      9  C   UNL     1      -0.208   1.451   0.000  0.00  0.00    +0.000 C 
ATOM     10  C   UNL     1      -0.760   2.064   0.000  0.00  0.00    +0.000 C 
ATOM     11  N   UNL     1      -0.505   2.849   0.000  0.00  0.00    +0.000 NA
ATOM     12  C   UNL     1      -1.057   3.462   0.000  0.00  0.00    +0.000 C 
ATOM     13  C   UNL     1       0.302   3.021   0.000  0.00  0.00    +0.000 C 
ATOM     14  C   UNL     1       0.854   2.408   0.000  0.00  0.00    +0.000 C 
ENDROOT
BRANCH   7  15
ATOM     15  C   UNL     1       2.817  -0.001   0.000  0.00  0.00    +0.000 C 
BRANCH  15  16
ATOM     16  C   UNL     1       3.624  -0.172   0.000  0.00  0.00    +0.000 C 
BRANCH  16  17
ATOM     17  C   UNL     1       3.879  -0.957   0.000  0.00  0.00    +0.000 A 
ATOM     18  C   UNL     1       3.394  -1.624   0.000  0.00  0.00    +0.000 A 
ATOM     19  N   UNL     1       3.879  -2.292   0.000  0.00  0.00    +0.000 NA
ATOM     20  C   UNL     1       4.663  -2.037   0.000  0.00  0.00    +0.000 A 
ATOM     21  C   UNL     1       4.663  -1.212   0.000  0.00  0.00    +0.000 A 
ATOM     22  C   UNL     1       5.378  -0.799   0.000  0.00  0.00    +0.000 A 
ATOM     23  C   UNL     1       6.092  -1.212   0.000  0.00  0.00    +0.000 A 
ATOM     24  C   UNL     1       6.092  -2.037   0.000  0.00  0.00    +0.000 A 
ATOM     25  C   UNL     1       5.378  -2.449   0.000  0.00  0.00    +0.000 A 
ENDBRANCH  16  17
ENDBRANCH  15  16
ENDBRANCH   7  15
TORSDOF 3
