REMARK  Name = 
REMARK  3 active torsions:
REMARK  status: ('A' for Active; 'I' for Inactive)
REMARK    1  A    between atoms: O_7  and  SI_10
REMARK    2  A    between atoms: O_8  and  SI_9
REMARK    3  A    between atoms: O_8  and  SI_10
REMARK                            x       y       z     vdW  Elec       q    Type
REMARK                         _______ _______ _______ _____ _____    ______ ____
ROOT
ATOM      1  O   UNL     1      -1.241  -0.302   0.000  0.00  0.00    +0.000 OA
ENDROOT
BRANCH   1   5
ATOM      2  C   UNL     1      -0.416   1.127   0.000  0.00  0.00    +0.000 C 
ATOM      3  C   UNL     1      -0.114   0.000   0.000  0.00  0.00    +0.000 C 
ATOM      4  C   UNL     1      -1.543   0.825   0.000  0.00  0.00    +0.000 C 
ATOM      5 SI   UNL     1      -0.829   0.412   0.000  0.00  0.00    +0.000 Si
ENDBRANCH   1   5
BRANCH   1   8
ATOM      6  C   UNL     1      -2.066  -1.127   0.000  0.00  0.00    +0.000 C 
ATOM      7  C   UNL     1      -2.066   0.523   0.000  0.00  0.00    +0.000 C 
ATOM      8 SI   UNL     1      -2.066  -0.302   0.000  0.00  0.00    +0.000 Si
BRANCH   8  10
ATOM      9  C   UNL     1      -3.304  -1.016   0.000  0.00  0.00    +0.000 C 
ATOM     10  O   UNL     1      -2.891  -0.302   0.000  0.00  0.00    +0.000 OA
ENDBRANCH   8  10
ENDBRANCH   1   8
TORSDOF 3
REMARK  Name = 
REMARK  3 active torsions:
REMARK  status: ('A' for Active; 'I' for Inactive)
REMARK    1  A    between atoms: O_7  and  SI_10
REMARK    2  A    between atoms: O_8  and  SI_9
REMARK    3  A    between atoms: O_8  and  SI_10
REMARK                            x       y       z     vdW  Elec       q    Type
REMARK                         _______ _______ _______ _____ _____    ______ ____
ROOT
ATOM      1  O   UNL     1       1.654  -0.016   0.000  0.00  0.00    +0.000 OA
ATOM      2  O   UNL     1       3.304  -0.016   0.000  0.00  0.00    +0.000 OA
ATOM      3 SI   UNL     1       2.479  -0.016   0.000  0.00  0.00    +0.000 Si
ENDROOT
TORSDOF 0
