REMARK  Name = 
REMARK  6 active torsions:
REMARK  status: ('A' for Active; 'I' for Inactive)
REMARK    1  A    between atoms: N_2  and  O_28
REMARK    2  A    between atoms: C_6  and  C_18
REMARK    3  A    between atoms: C_6  and  C_22
REMARK    4  A    between atoms: C_8  and  C_10
REMARK    5  A    between atoms: C_18  and  C_19
REMARK    6  A    between atoms: C_19  and  C_20
REMARK                            x       y       z     vdW  Elec       q    Type
REMARK                         _______ _______ _______ _____ _____    ______ ____
ROOT
ATOM      1  C   UNL     1      -1.791  -1.674   0.000  0.00  0.00    +0.000 C 
ATOM      2  N   UNL     1      -1.006  -1.929   0.000  0.00  0.00    +0.000 N 
ATOM      3  C   UNL     1      -0.393  -1.377   0.000  0.00  0.00    +0.000 C 
ATOM      4  O   UNL     1      -0.565  -0.570   0.000  0.00  0.00    +0.000 OA
ATOM      5  N   UNL     1       0.392  -1.632   0.000  0.00  0.00    +0.000 N 
ATOM      6  C   UNL     1       1.059  -1.147   0.000  0.00  0.00    +0.000 C 
ATOM      7  S   UNL     1       1.726  -1.632   0.000  0.00  0.00    +0.000 S 
ATOM      8  C   UNL     1       1.472  -2.417   0.000  0.00  0.00    +0.000 C 
ATOM      9  N   UNL     1       0.646  -2.417   0.000  0.00  0.00    +0.000 NA
ENDROOT
BRANCH   8  10
ATOM     10  C   UNL     1       1.956  -3.084   0.000  0.00  0.00    +0.000 A 
ATOM     11  C   UNL     1       2.777  -2.998   0.000  0.00  0.00    +0.000 A 
ATOM     12  C   UNL     1       3.262  -3.665   0.000  0.00  0.00    +0.000 A 
ATOM     13  C   UNL     1       2.926  -4.419   0.000  0.00  0.00    +0.000 A 
ATOM     14  C   UNL     1       2.106  -4.505   0.000  0.00  0.00    +0.000 A 
ATOM     15  C   UNL     1       1.621  -3.838   0.000  0.00  0.00    +0.000 A 
ATOM     16  F   UNL     1       0.800  -3.924   0.000  0.00  0.00    +0.000 F 
ATOM     17  F   UNL     1       4.082  -3.579   0.000  0.00  0.00    +0.000 F 
ENDBRANCH   8  10
BRANCH   6  18
ATOM     18  C   UNL     1       1.464  -0.428   0.000  0.00  0.00    +0.000 A 
ATOM     19  C   UNL     1       1.044   0.282   0.000  0.00  0.00    +0.000 A 
ATOM     20  C   UNL     1       1.449   1.000   0.000  0.00  0.00    +0.000 A 
ATOM     21  C   UNL     1       2.274   1.009   0.000  0.00  0.00    +0.000 A 
ATOM     22  C   UNL     1       2.694   0.299   0.000  0.00  0.00    +0.000 A 
ATOM     23  C   UNL     1       2.289  -0.420   0.000  0.00  0.00    +0.000 A 
ENDBRANCH   6  18
BRANCH   2  24
ATOM     24  O   UNL     1      -0.835  -2.736   0.000  0.00  0.00    +0.000 OA
ATOM     25  C   UNL     1      -1.448  -3.288   0.000  0.00  0.00    +0.000 C 
ENDBRANCH   2  24
BRANCH   6  26
ATOM     26  C   UNL     1       0.654  -0.428   0.000  0.00  0.00    +0.000 C 
BRANCH  26  27
ATOM     27  C   UNL     1      -0.171  -0.420   0.000  0.00  0.00    +0.000 C 
BRANCH  27  28
ATOM     28  C   UNL     1      -0.576   0.299   0.000  0.00  0.00    +0.000 C 
ATOM     29  N   UNL     1      -0.156   1.009   0.000  0.00  0.00    +0.000 NA
ENDBRANCH  27  28
ENDBRANCH  26  27
ENDBRANCH   6  26
TORSDOF 6
