REMARK  Name = 
REMARK  13 active torsions:
REMARK  status: ('A' for Active; 'I' for Inactive)
REMARK    1  A    between atoms: C_2  and  C_4
REMARK    2  A    between atoms: C_4  and  C_5
REMARK    3  A    between atoms: C_4  and  N_59
REMARK    4  A    between atoms: C_11  and  C_12
REMARK    5  A    between atoms: C_16  and  C_21
REMARK    6  A    between atoms: C_28  and  C_29
REMARK    7  A    between atoms: C_32  and  C_35
REMARK    8  A    between atoms: C_38  and  C_40
REMARK    9  A    between atoms: C_45  and  C_47
REMARK   10  A    between atoms: C_47  and  C_48
REMARK   11  A    between atoms: C_47  and  N_54
REMARK   12  A    between atoms: C_55  and  O_57
REMARK   13  A    between atoms: C_60  and  O_62
REMARK                            x       y       z     vdW  Elec       q    Type
REMARK                         _______ _______ _______ _____ _____    ______ ____
ROOT
ATOM      1  C   UNL     1      -1.539   2.256   0.000  0.00  0.00    +0.000 A 
ATOM      2  C   UNL     1      -2.024   1.588   0.000  0.00  0.00    +0.000 A 
ATOM      3  S   UNL     1      -1.539   0.921   0.000  0.00  0.00    +0.000 S 
ATOM      4  C   UNL     1      -0.754   1.176   0.000  0.00  0.00    +0.000 A 
ATOM      5  C   UNL     1      -0.754   2.001   0.000  0.00  0.00    +0.000 A 
ATOM      6  S   UNL     1       0.030   2.256   0.000  0.00  0.00    +0.000 S 
ATOM      7  C   UNL     1       0.515   1.588   0.000  0.00  0.00    +0.000 A 
ATOM      8  C   UNL     1       0.030   0.921   0.000  0.00  0.00    +0.000 A 
ENDROOT
BRANCH   1  13
ATOM      9  C   UNL     1      -1.637   5.766   0.000  0.00  0.00    +0.000 A 
ATOM     10  N   UNL     1      -1.084   5.153   0.000  0.00  0.00    +0.000 NA
ATOM     11  C   UNL     1      -1.497   4.438   0.000  0.00  0.00    +0.000 A 
ATOM     12  C   UNL     1      -1.242   3.654   0.000  0.00  0.00    +0.000 A 
ATOM     13  C   UNL     1      -1.794   3.041   0.000  0.00  0.00    +0.000 A 
ATOM     14  C   UNL     1      -2.601   3.212   0.000  0.00  0.00    +0.000 A 
ATOM     15  C   UNL     1      -2.856   3.997   0.000  0.00  0.00    +0.000 A 
ATOM     16  C   UNL     1      -2.304   4.610   0.000  0.00  0.00    +0.000 A 
ATOM     17  N   UNL     1      -2.390   5.430   0.000  0.00  0.00    +0.000 NA
BRANCH   9  24
ATOM     18  C   UNL     1      -2.837   7.100   0.000  0.00  0.00    +0.000 C 
ATOM     19  O   UNL     1      -3.173   6.346   0.000  0.00  0.00    +0.000 OA
ATOM     20  N   UNL     1      -2.017   7.186   0.000  0.00  0.00    +0.000 N 
ATOM     21  C   UNL     1      -1.605   7.900   0.000  0.00  0.00    +0.000 C 
ATOM     22  C   UNL     1      -0.797   7.729   0.000  0.00  0.00    +0.000 C 
ATOM     23  C   UNL     1      -0.711   6.908   0.000  0.00  0.00    +0.000 C 
ATOM     24  C   UNL     1      -1.465   6.573   0.000  0.00  0.00    +0.000 C 
BRANCH  18  25
ATOM     25  C   UNL     1      -3.322   7.767   0.000  0.00  0.00    +0.000 C 
BRANCH  25  27
ATOM     26  C   UNL     1      -4.628   8.348   0.000  0.00  0.00    +0.000 C 
ATOM     27  C   UNL     1      -4.143   7.681   0.000  0.00  0.00    +0.000 C 
ATOM     28  C   UNL     1      -4.478   6.927   0.000  0.00  0.00    +0.000 C 
ENDBRANCH  25  27
BRANCH  25  29
ATOM     29  N   UNL     1      -2.987   8.521   0.000  0.00  0.00    +0.000 NA
ATOM     30  C   UNL     1      -3.472   9.188   0.000  0.00  0.00    +0.000 C 
ATOM     31  O   UNL     1      -4.292   9.102   0.000  0.00  0.00    +0.000 OA
BRANCH  30  32
ATOM     32  O   UNL     1      -3.136   9.942   0.000  0.00  0.00    +0.000 OA
ATOM     33  C   UNL     1      -2.316  10.028   0.000  0.00  0.00    +0.000 C 
ENDBRANCH  30  32
ENDBRANCH  25  29
ENDBRANCH  18  25
ENDBRANCH   9  24
ENDBRANCH   1  13
BRANCH   8  34
ATOM     34  C   UNL     1       0.285   0.136   0.000  0.00  0.00    +0.000 A 
ATOM     35  C   UNL     1       1.092  -0.035   0.000  0.00  0.00    +0.000 A 
ATOM     36  C   UNL     1       1.347  -0.820   0.000  0.00  0.00    +0.000 A 
ATOM     37  C   UNL     1       0.795  -1.433   0.000  0.00  0.00    +0.000 A 
ATOM     38  C   UNL     1      -0.012  -1.261   0.000  0.00  0.00    +0.000 A 
ATOM     39  C   UNL     1      -0.267  -0.477   0.000  0.00  0.00    +0.000 A 
BRANCH  37  40
ATOM     40  C   UNL     1       1.050  -2.217   0.000  0.00  0.00    +0.000 A 
ATOM     41  C   UNL     1       1.835  -2.473   0.000  0.00  0.00    +0.000 A 
ATOM     42  N   UNL     1       1.835  -3.297   0.000  0.00  0.00    +0.000 NA
ATOM     43  C   UNL     1       1.050  -3.552   0.000  0.00  0.00    +0.000 A 
ATOM     44  N   UNL     1       0.565  -2.885   0.000  0.00  0.00    +0.000 NA
BRANCH  43  45
ATOM     45  C   UNL     1       0.795  -4.337   0.000  0.00  0.00    +0.000 C 
ATOM     46  C   UNL     1       1.280  -5.005   0.000  0.00  0.00    +0.000 C 
ATOM     47  C   UNL     1       0.795  -5.672   0.000  0.00  0.00    +0.000 C 
ATOM     48  C   UNL     1       0.010  -5.417   0.000  0.00  0.00    +0.000 C 
ATOM     49  N   UNL     1       0.010  -4.592   0.000  0.00  0.00    +0.000 N 
ATOM     50  C   UNL     1      -0.657  -4.107   0.000  0.00  0.00    +0.000 C 
ATOM     51  O   UNL     1      -0.571  -3.287   0.000  0.00  0.00    +0.000 OA
BRANCH  50  52
ATOM     52  C   UNL     1      -1.411  -4.443   0.000  0.00  0.00    +0.000 C 
BRANCH  52  53
ATOM     53  C   UNL     1      -2.078  -3.958   0.000  0.00  0.00    +0.000 A 
ATOM     54  C   UNL     1      -2.832  -4.293   0.000  0.00  0.00    +0.000 A 
ATOM     55  C   UNL     1      -3.499  -3.808   0.000  0.00  0.00    +0.000 A 
ATOM     56  C   UNL     1      -3.413  -2.988   0.000  0.00  0.00    +0.000 A 
ATOM     57  C   UNL     1      -2.659  -2.652   0.000  0.00  0.00    +0.000 A 
ATOM     58  C   UNL     1      -1.992  -3.137   0.000  0.00  0.00    +0.000 A 
ENDBRANCH  52  53
BRANCH  52  59
ATOM     59  N   UNL     1      -1.497  -5.263   0.000  0.00  0.00    +0.000 NA
ATOM     60  C   UNL     1      -2.251  -5.599   0.000  0.00  0.00    +0.000 C 
ATOM     61  O   UNL     1      -2.918  -5.114   0.000  0.00  0.00    +0.000 OA
BRANCH  60  62
ATOM     62  O   UNL     1      -2.337  -6.419   0.000  0.00  0.00    +0.000 OA
ATOM     63  C   UNL     1      -3.091  -6.755   0.000  0.00  0.00    +0.000 C 
ENDBRANCH  60  62
ENDBRANCH  52  59
ENDBRANCH  50  52
ENDBRANCH  43  45
ENDBRANCH  37  40
ENDBRANCH   8  34
TORSDOF 13
