REMARK  Name = 
REMARK  2 active torsions:
REMARK  status: ('A' for Active; 'I' for Inactive)
REMARK    1  A    between atoms: C_5  and  CA_6
REMARK    2  A    between atoms: CA_6  and  C_7
REMARK                            x       y       z     vdW  Elec       q    Type
REMARK                         _______ _______ _______ _____ _____    ______ ____
ROOT
ATOM      1  N   UNL     1       0.402   1.081   0.000  0.00  0.00    +0.000 NA
ATOM      2  CA  UNL     1       0.000   0.348   0.000  0.00  0.00    +0.000 C 
ENDROOT
BRANCH   2   4
ATOM      3  O   UNL     1       1.248  -0.360   0.000  0.00  0.00    +0.000 OA
ATOM      4  C   UNL     1       0.423  -0.360   0.000  0.00  0.00    +0.000 C 
ATOM      5  OXT UNL     1       0.021  -1.081   0.000  0.00  0.00    +0.000 OA
ENDBRANCH   2   4
BRANCH   2   8
ATOM      6  N   UNL     1      -1.248   1.044   0.000  0.00  0.00    +0.000 NA
ATOM      7  C   UNL     1      -1.227  -0.385   0.000  0.00  0.00    +0.000 C 
ATOM      8  C   UNL     1      -0.825   0.348   0.000  0.00  0.00    +0.000 C 
ENDBRANCH   2   8
TORSDOF 2
