REMARK  Name = 
REMARK  5 active torsions:
REMARK  status: ('A' for Active; 'I' for Inactive)
REMARK    1  A    between atoms: C_1  and  N_7
REMARK    2  A    between atoms: C_4  and  S_13
REMARK    3  A    between atoms: C_8  and  C_9
REMARK    4  A    between atoms: S_13  and  C_14
REMARK    5  A    between atoms: C_24  and  O_25
REMARK                            x       y       z     vdW  Elec       q    Type
REMARK                         _______ _______ _______ _____ _____    ______ ____
ROOT
ATOM      1  C   UNL     1       0.279  -0.823   0.000  0.00  0.00    +0.000 A 
ATOM      2  C   UNL     1       0.990  -1.235   0.000  0.00  0.00    +0.000 A 
ATOM      3  C   UNL     1       0.983   0.415   0.000  0.00  0.00    +0.000 A 
ATOM      4  C   UNL     1       0.272  -0.000   0.000  0.00  0.00    +0.000 A 
ATOM      5  C   UNL     1       1.703   0.004   0.000  0.00  0.00    +0.000 A 
ATOM      6  C   UNL     1       1.707  -0.818   0.000  0.00  0.00    +0.000 A 
ATOM      7  N   UNL     1       2.490  -1.069   0.000  0.00  0.00    +0.000 NA
ATOM      8  C   UNL     1       2.970  -0.401   0.000  0.00  0.00    +0.000 A 
ATOM      9  N   UNL     1       2.484   0.261   0.000  0.00  0.00    +0.000 NA
ATOM     10  N   UNL     1       3.795  -0.398   0.000  0.00  0.00    +0.000 NA
ATOM     11  C   UNL     1       4.204   0.319   0.000  0.00  0.00    +0.000 C 
ATOM     12  O   UNL     1       3.788   1.031   0.000  0.00  0.00    +0.000 OA
ENDROOT
BRANCH  11  13
ATOM     13  O   UNL     1       5.029   0.323   0.000  0.00  0.00    +0.000 OA
ATOM     14  C   UNL     1       5.438   1.039   0.000  0.00  0.00    +0.000 C 
ENDBRANCH  11  13
BRANCH   1  15
ATOM     15  S   UNL     1      -0.435  -1.237   0.000  0.00  0.00    +0.000 S 
BRANCH  15  19
ATOM     16  C   UNL     1      -2.580   0.002   0.000  0.00  0.00    +0.000 A 
ATOM     17  C   UNL     1      -2.582  -0.826   0.000  0.00  0.00    +0.000 A 
ATOM     18  C   UNL     1      -1.867  -1.239   0.000  0.00  0.00    +0.000 A 
ATOM     19  C   UNL     1      -1.150  -0.825   0.000  0.00  0.00    +0.000 A 
ATOM     20  C   UNL     1      -1.153   0.005   0.000  0.00  0.00    +0.000 A 
ATOM     21  C   UNL     1      -1.869   0.414   0.000  0.00  0.00    +0.000 A 
BRANCH  16  22
ATOM     22  N   UNL     1      -3.295   0.414   0.000  0.00  0.00    +0.000 NA
ATOM     23  C   UNL     1      -4.010   0.001   0.000  0.00  0.00    +0.000 C 
ATOM     24  O   UNL     1      -4.009  -0.824   0.000  0.00  0.00    +0.000 OA
BRANCH  23  25
ATOM     25  C   UNL     1      -4.724   0.414   0.000  0.00  0.00    +0.000 C 
ATOM     26  C   UNL     1      -5.438   0.001   0.000  0.00  0.00    +0.000 C 
ATOM     27  N   UNL     1      -4.724   1.239   0.000  0.00  0.00    +0.000 NA
ENDBRANCH  23  25
ENDBRANCH  16  22
ENDBRANCH  15  19
ENDBRANCH   1  15
TORSDOF 5
