REMARK  Name = 
REMARK  8 active torsions:
REMARK  status: ('A' for Active; 'I' for Inactive)
REMARK    1  A    between atoms: C_5  and  C_7
REMARK    2  A    between atoms: C_7  and  C_8
REMARK    3  A    between atoms: C_8  and  C_9
REMARK    4  A    between atoms: C_9  and  C_10
REMARK    5  A    between atoms: C_10  and  C_11
REMARK    6  A    between atoms: C_11  and  O_12
REMARK    7  A    between atoms: O_12  and  C_13
REMARK    8  A    between atoms: C_16  and  C_20
REMARK                            x       y       z     vdW  Elec       q    Type
REMARK                         _______ _______ _______ _____ _____    ______ ____
ROOT
ATOM      1  C   UNL     1       1.365   0.691   0.000  0.00  0.00    +0.000 A 
ATOM      2  C   UNL     1       1.778   1.405   0.000  0.00  0.00    +0.000 A 
ATOM      3  C   UNL     1       2.603   1.405   0.000  0.00  0.00    +0.000 A 
ATOM      4  C   UNL     1       3.015   0.691   0.000  0.00  0.00    +0.000 A 
ATOM      5  C   UNL     1       2.603  -0.024   0.000  0.00  0.00    +0.000 A 
ATOM      6  C   UNL     1       1.778  -0.024   0.000  0.00  0.00    +0.000 A 
ATOM      7 CL   UNL     1       1.365  -0.738   0.000  0.00  0.00    +0.000 Cl
ATOM      8 CL   UNL     1       1.365   2.120   0.000  0.00  0.00    +0.000 Cl
ENDROOT
BRANCH   4  10
ATOM      9  O   UNL     1       4.325   0.024   0.000  0.00  0.00    +0.000 OA
ATOM     10  C   UNL     1       3.840   0.691   0.000  0.00  0.00    +0.000 C 
ATOM     11  N   UNL     1       4.325   1.358   0.000  0.00  0.00    +0.000 NA
ATOM     12  C   UNL     1       5.110   1.103   0.000  0.00  0.00    +0.000 C 
ATOM     13  C   UNL     1       5.110   0.278   0.000  0.00  0.00    +0.000 C 
ENDBRANCH   4  10
BRANCH   1  14
ATOM     14  O   UNL     1       0.540   0.691   0.000  0.00  0.00    +0.000 OA
BRANCH  14  15
ATOM     15  C   UNL     1       0.127  -0.024   0.000  0.00  0.00    +0.000 C 
BRANCH  15  16
ATOM     16  C   UNL     1      -0.698  -0.024   0.000  0.00  0.00    +0.000 C 
BRANCH  16  17
ATOM     17  C   UNL     1      -1.110  -0.738   0.000  0.00  0.00    +0.000 C 
BRANCH  17  18
ATOM     18  C   UNL     1      -1.935  -0.738   0.000  0.00  0.00    +0.000 C 
BRANCH  18  19
ATOM     19  C   UNL     1      -2.348  -1.452   0.000  0.00  0.00    +0.000 C 
BRANCH  19  24
ATOM     20  O   UNL     1      -3.658  -2.120   0.000  0.00  0.00    +0.000 OA
ATOM     21  N   UNL     1      -4.442  -1.865   0.000  0.00  0.00    +0.000 NA
ATOM     22  C   UNL     1      -4.442  -1.040   0.000  0.00  0.00    +0.000 A 
ATOM     23  C   UNL     1      -3.658  -0.785   0.000  0.00  0.00    +0.000 A 
ATOM     24  C   UNL     1      -3.172  -1.452   0.000  0.00  0.00    +0.000 A 
ATOM     25  C   UNL     1      -5.110  -0.555   0.000  0.00  0.00    +0.000 C 
ENDBRANCH  19  24
ENDBRANCH  18  19
ENDBRANCH  17  18
ENDBRANCH  16  17
ENDBRANCH  15  16
ENDBRANCH  14  15
ENDBRANCH   1  14
TORSDOF 8
