REMARK  Name = 
REMARK  18 active torsions:
REMARK  status: ('A' for Active; 'I' for Inactive)
REMARK    1  A    between atoms: C_8  and  C_12
REMARK    2  A    between atoms: C_8  and  C_16
REMARK    3  A    between atoms: C_9  and  C_13
REMARK    4  A    between atoms: C_9  and  C_17
REMARK    5  A    between atoms: C_12  and  N_32
REMARK    6  A    between atoms: C_13  and  N_33
REMARK    7  A    between atoms: C_16  and  O_42
REMARK    8  A    between atoms: C_17  and  O_43
REMARK    9  A    between atoms: C_22  and  C_30
REMARK   10  A    between atoms: C_23  and  C_31
REMARK   11  A    between atoms: C_24  and  O_36
REMARK   12  A    between atoms: C_25  and  O_37
REMARK   13  A    between atoms: C_26  and  O_38
REMARK   14  A    between atoms: C_27  and  O_39
REMARK   15  A    between atoms: C_28  and  O_40
REMARK   16  A    between atoms: C_29  and  O_41
REMARK   17  A    between atoms: C_30  and  O_42
REMARK   18  A    between atoms: C_31  and  O_43
REMARK                            x       y       z     vdW  Elec       q    Type
REMARK                         _______ _______ _______ _____ _____    ______ ____
ROOT
ATOM      1  C   UNL     1      -1.723   1.953   0.000  0.00  0.00    +0.000 C 
ATOM      2  C   UNL     1      -2.024   1.185   0.000  0.00  0.00    +0.000 C 
ATOM      3  C   UNL     1      -0.935   2.196   0.000  0.00  0.00    +0.000 C 
ATOM      4  C   UNL     1      -0.796   0.347   0.000  0.00  0.00    +0.000 C 
ATOM      5  C   UNL     1      -0.191   0.908   0.000  0.00  0.00    +0.000 C 
ATOM      6  N   UNL     1      -1.612   0.470   0.000  0.00  0.00    +0.000 NA
ATOM      7  N   UNL     1      -0.253   1.731   0.000  0.00  0.00    +0.000 NA
ENDROOT
BRANCH   7   8
ATOM      8  C   UNL     1       0.461   2.144   0.000  0.00  0.00    +0.000 C 
BRANCH   8   9
ATOM      9  C   UNL     1       1.176   1.731   0.000  0.00  0.00    +0.000 C 
BRANCH   9  10
ATOM     10  C   UNL     1       1.890   2.144   0.000  0.00  0.00    +0.000 C 
BRANCH  10  11
ATOM     11  O   UNL     1       2.605   1.731   0.000  0.00  0.00    +0.000 OA
BRANCH  11  12
ATOM     12  C   UNL     1       3.319   2.144   0.000  0.00  0.00    +0.000 C 
ATOM     13  O   UNL     1       3.319   2.969   0.000  0.00  0.00    +0.000 OA
BRANCH  12  16
ATOM     14  C   UNL     1       4.748   2.144   0.000  0.00  0.00    +0.000 A 
ATOM     15  C   UNL     1       4.034   0.906   0.000  0.00  0.00    +0.000 A 
ATOM     16  C   UNL     1       4.034   1.731   0.000  0.00  0.00    +0.000 A 
ATOM     17  C   UNL     1       5.463   1.731   0.000  0.00  0.00    +0.000 A 
ATOM     18  C   UNL     1       4.748   0.494   0.000  0.00  0.00    +0.000 A 
ATOM     19  C   UNL     1       5.463   0.906   0.000  0.00  0.00    +0.000 A 
BRANCH  18  21
ATOM     20  C   UNL     1       5.463  -0.744   0.000  0.00  0.00    +0.000 C 
ATOM     21  O   UNL     1       4.748  -0.331   0.000  0.00  0.00    +0.000 OA
ENDBRANCH  18  21
BRANCH  17  23
ATOM     22  C   UNL     1       6.892   1.731   0.000  0.00  0.00    +0.000 C 
ATOM     23  O   UNL     1       6.177   2.144   0.000  0.00  0.00    +0.000 OA
ENDBRANCH  17  23
BRANCH  19  25
ATOM     24  C   UNL     1       6.892   0.906   0.000  0.00  0.00    +0.000 C 
ATOM     25  O   UNL     1       6.177   0.494   0.000  0.00  0.00    +0.000 OA
ENDBRANCH  19  25
ENDBRANCH  12  16
ENDBRANCH  11  12
ENDBRANCH  10  11
ENDBRANCH   9  10
ENDBRANCH   8   9
ENDBRANCH   7   8
BRANCH   6  26
ATOM     26  C   UNL     1      -2.077  -0.211   0.000  0.00  0.00    +0.000 C 
BRANCH  26  27
ATOM     27  C   UNL     1      -2.899  -0.150   0.000  0.00  0.00    +0.000 C 
BRANCH  27  28
ATOM     28  C   UNL     1      -3.364  -0.831   0.000  0.00  0.00    +0.000 C 
BRANCH  28  29
ATOM     29  O   UNL     1      -4.187  -0.770   0.000  0.00  0.00    +0.000 OA
BRANCH  29  30
ATOM     30  C   UNL     1      -4.652  -1.451   0.000  0.00  0.00    +0.000 C 
ATOM     31  O   UNL     1      -4.294  -2.195   0.000  0.00  0.00    +0.000 OA
BRANCH  30  34
ATOM     32  C   UNL     1      -5.939  -2.071   0.000  0.00  0.00    +0.000 A 
ATOM     33  C   UNL     1      -5.832  -0.646   0.000  0.00  0.00    +0.000 A 
ATOM     34  C   UNL     1      -5.474  -1.390   0.000  0.00  0.00    +0.000 A 
ATOM     35  C   UNL     1      -6.762  -2.010   0.000  0.00  0.00    +0.000 A 
ATOM     36  C   UNL     1      -6.655  -0.585   0.000  0.00  0.00    +0.000 A 
ATOM     37  C   UNL     1      -7.120  -1.266   0.000  0.00  0.00    +0.000 A 
BRANCH  37  39
ATOM     38  C   UNL     1      -8.300  -0.461   0.000  0.00  0.00    +0.000 C 
ATOM     39  O   UNL     1      -7.942  -1.205   0.000  0.00  0.00    +0.000 OA
ENDBRANCH  37  39
BRANCH  35  41
ATOM     40  C   UNL     1      -8.049  -2.630   0.000  0.00  0.00    +0.000 C 
ATOM     41  O   UNL     1      -7.226  -2.691   0.000  0.00  0.00    +0.000 OA
ENDBRANCH  35  41
BRANCH  36  43
ATOM     42  C   UNL     1      -7.835   0.220   0.000  0.00  0.00    +0.000 C 
ATOM     43  O   UNL     1      -7.013   0.159   0.000  0.00  0.00    +0.000 OA
ENDBRANCH  36  43
ENDBRANCH  30  34
ENDBRANCH  29  30
ENDBRANCH  28  29
ENDBRANCH  27  28
ENDBRANCH  26  27
ENDBRANCH   6  26
TORSDOF 18
