REMARK  Name = 
REMARK  1 active torsions:
REMARK  status: ('A' for Active; 'I' for Inactive)
REMARK    1  A    between atoms: S_1  and  C_2
REMARK                            x       y       z     vdW  Elec       q    Type
REMARK                         _______ _______ _______ _____ _____    ______ ____
ROOT
ATOM      1  S   UNL     1      -0.358  -0.002   0.000  0.00  0.00    +0.000 S 
ATOM      2  O   UNL     1      -1.069   0.420   0.000  0.00  0.00    +0.000 OA
ATOM      3  O   UNL     1      -0.776  -0.713   0.000  0.00  0.00    +0.000 OA
ATOM      4  O   UNL     1       0.065   0.713   0.000  0.00  0.00    +0.000 OA
ENDROOT
BRANCH   1   5
ATOM      5  C   UNL     1       0.357  -0.420   0.000  0.00  0.00    +0.000 C 
ATOM      6  C   UNL     1       1.069  -0.002   0.000  0.00  0.00    +0.000 C 
ENDBRANCH   1   5
TORSDOF 1
