REMARK  Name = 
REMARK  3 active torsions:
REMARK  status: ('A' for Active; 'I' for Inactive)
REMARK    1  A    between atoms: N_4  and  C_5
REMARK    2  A    between atoms: C_5  and  C_6
REMARK    3  A    between atoms: C_6  and  C_7
REMARK                            x       y       z     vdW  Elec       q    Type
REMARK                         _______ _______ _______ _____ _____    ______ ____
ROOT
ATOM      1  C   UNL     1      -0.437   0.746   0.000  0.00  0.00    +0.000 C 
ENDROOT
BRANCH   1   2
ATOM      2  C   UNL     1      -1.151   0.334   0.000  0.00  0.00    +0.000 A 
ATOM      3  N   UNL     1      -2.421  -0.079   0.000  0.00  0.00    +0.000 NA
ATOM      4  N   UNL     1      -1.151  -0.491   0.000  0.00  0.00    +0.000 NA
ATOM      5  C   UNL     1      -1.936   0.589   0.000  0.00  0.00    +0.000 A 
ATOM      6  C   UNL     1      -1.936  -0.746   0.000  0.00  0.00    +0.000 A 
ENDBRANCH   1   2
BRANCH   1   7
ATOM      7  C   UNL     1       0.277   0.334   0.000  0.00  0.00    +0.000 C 
BRANCH   7  11
ATOM      8  C   UNL     1       2.421   0.746   0.000  0.00  0.00    +0.000 C 
ATOM      9  C   UNL     1       1.706   0.334   0.000  0.00  0.00    +0.000 C 
ATOM     10  O   UNL     1       1.706  -0.491   0.000  0.00  0.00    +0.000 OA
ATOM     11  N   UNL     1       0.992   0.746   0.000  0.00  0.00    +0.000 NA
ENDBRANCH   7  11
ENDBRANCH   1   7
TORSDOF 3
