REMARK  Name = 
REMARK  13 active torsions:
REMARK  status: ('A' for Active; 'I' for Inactive)
REMARK    1  A    between atoms: C_1  and  C_2
REMARK    2  A    between atoms: C_1  and  C_14
REMARK    3  A    between atoms: C_2  and  C_3
REMARK    4  A    between atoms: C_14  and  C_15
REMARK    5  A    between atoms: C_15  and  C_16
REMARK    6  A    between atoms: C_15  and  C_35
REMARK    7  A    between atoms: C_19  and  C_22
REMARK    8  A    between atoms: N_23  and  CA_24
REMARK    9  A    between atoms: CA_24  and  CB_25
REMARK   10  A    between atoms: CA_24  and  C_30
REMARK   11  A    between atoms: CB_25  and  CG_26
REMARK   12  A    between atoms: CG_26  and  CD_27
REMARK   13  A    between atoms: C_35  and  C_36
REMARK                            x       y       z     vdW  Elec       q    Type
REMARK                         _______ _______ _______ _____ _____    ______ ____
ROOT
ATOM      1  C   UNK A   0       1.067   0.206   0.000  0.00  0.00    +0.000 C 
ENDROOT
BRANCH   1   2
ATOM      2  C   UNK A   0       0.352  -0.206   0.000  0.00  0.00    +0.000 A 
ATOM      3  C   UNK A   0      -0.352   0.206   0.000  0.00  0.00    +0.000 A 
ATOM      4  C   UNK A   0      -1.067  -0.206   0.000  0.00  0.00    +0.000 A 
ATOM      5  C   UNK A   0      -1.067  -1.031   0.000  0.00  0.00    +0.000 A 
ATOM      6  C   UNK A   0      -0.352  -1.444   0.000  0.00  0.00    +0.000 A 
ATOM      7  C   UNK A   0       0.352  -1.031   0.000  0.00  0.00    +0.000 A 
BRANCH   5   8
ATOM      8  C   UNK A   0      -1.783  -1.444   0.000  0.00  0.00    +0.000 C 
ATOM      9  N   GLU A   1      -2.499  -1.031   0.000  0.00  0.00    +0.000 NA
ATOM     10  O   UNK A   0      -1.783  -2.268   0.000  0.00  0.00    +0.000 OA
BRANCH   9  11
ATOM     11  CA  GLU A   1      -3.215  -1.444   0.000  0.00  0.00    +0.000 C 
BRANCH  11  12
ATOM     12  C   GLU A   1      -3.215  -2.268   0.000  0.00  0.00    +0.000 C 
ATOM     13  O   GLU A   1      -2.499  -2.681   0.000  0.00  0.00    +0.000 OA
ATOM     14  OXT GLU A   1      -3.930  -2.681   0.000  0.00  0.00    +0.000 OA
ENDBRANCH  11  12
BRANCH  11  15
ATOM     15  CB  GLU A   1      -3.930  -1.031   0.000  0.00  0.00    +0.000 C 
BRANCH  15  16
ATOM     16  CG  GLU A   1      -4.634  -1.444   0.000  0.00  0.00    +0.000 C 
BRANCH  16  17
ATOM     17  CD  GLU A   1      -5.350  -1.031   0.000  0.00  0.00    +0.000 C 
ATOM     18  OE1 GLU A   1      -6.066  -1.444   0.000  0.00  0.00    +0.000 OA
ATOM     19  OE2 GLU A   1      -5.350  -0.206   0.000  0.00  0.00    +0.000 OA
ENDBRANCH  16  17
ENDBRANCH  15  16
ENDBRANCH  11  15
ENDBRANCH   9  11
ENDBRANCH   5   8
ENDBRANCH   1   2
BRANCH   1  20
ATOM     20  C   UNK A   0       1.067   1.031   0.000  0.00  0.00    +0.000 C 
ATOM     21  O   UNK A   0       1.892   1.031   0.000  0.00  0.00    +0.000 OA
ATOM     22  O   UNK A   0       0.243   1.031   0.000  0.00  0.00    +0.000 OA
BRANCH  20  23
ATOM     23  C   UNK A   0       1.067   1.856   0.000  0.00  0.00    +0.000 C 
ATOM     24  F   UNK A   0       1.892   1.856   0.000  0.00  0.00    +0.000 F 
ATOM     25  F   UNK A   0       0.243   1.856   0.000  0.00  0.00    +0.000 F 
ATOM     26  F   UNK A   0       1.067   2.681   0.000  0.00  0.00    +0.000 F 
ENDBRANCH  20  23
ENDBRANCH   1  20
BRANCH   1  27
ATOM     27  C   UNK A   0       1.783  -0.206   0.000  0.00  0.00    +0.000 C 
BRANCH  27  28
ATOM     28  C   UNK A   0       2.499   0.206   0.000  0.00  0.00    +0.000 C 
BRANCH  28  29
ATOM     29  C   UNK A   0       3.215  -0.206   0.000  0.00  0.00    +0.000 C 
BRANCH  29  30
ATOM     30  C   UNK A   0       3.930   0.206   0.000  0.00  0.00    +0.000 C 
ATOM     31  C   UNK A   0       4.634  -0.206   0.000  0.00  0.00    +0.000 C 
ATOM     32  N   UNK A   0       4.634  -1.031   0.000  0.00  0.00    +0.000 NA
ATOM     33  N   UNK A   0       5.350   0.206   0.000  0.00  0.00    +0.000 NA
ATOM     34  C   UNK A   0       5.350   1.031   0.000  0.00  0.00    +0.000 C 
ATOM     35  N   UNK A   0       6.066   1.444   0.000  0.00  0.00    +0.000 NA
ATOM     36  N   UNK A   0       4.634   1.444   0.000  0.00  0.00    +0.000 NA
ATOM     37  C   UNK A   0       3.930   1.031   0.000  0.00  0.00    +0.000 C 
ATOM     38  O   UNK A   0       3.215   1.444   0.000  0.00  0.00    +0.000 OA
ENDBRANCH  29  30
ENDBRANCH  28  29
ENDBRANCH  27  28
ENDBRANCH   1  27
TORSDOF 13
