REMARK  Name = 
REMARK  3 active torsions:
REMARK  status: ('A' for Active; 'I' for Inactive)
REMARK    1  A    between atoms: N_2  and  C_7
REMARK    2  A    between atoms: C_5  and  C_6
REMARK    3  A    between atoms: C_5  and  C_7
REMARK                            x       y       z     vdW  Elec       q    Type
REMARK                         _______ _______ _______ _____ _____    ______ ____
ROOT
ATOM      1  O   UNL     1      -2.501   0.078   0.000  0.00  0.00    +0.000 OA
ATOM      2  N   UNL     1      -0.357   0.491   0.000  0.00  0.00    +0.000 NA
ATOM      3  N   UNL     1      -1.786   0.491   0.000  0.00  0.00    +0.000 NA
ATOM      4  N   UNL     1      -1.072  -0.747   0.000  0.00  0.00    +0.000 NA
ATOM      5  C   UNL     1      -1.072   0.078   0.000  0.00  0.00    +0.000 C 
ENDROOT
BRANCH   2   6
ATOM      6  C   UNL     1       0.357   0.078   0.000  0.00  0.00    +0.000 C 
BRANCH   6   7
ATOM      7  C   UNL     1       1.072   0.491   0.000  0.00  0.00    +0.000 C 
BRANCH   7   8
ATOM      8  C   UNL     1       1.786   0.078   0.000  0.00  0.00    +0.000 C 
ATOM      9  C   UNL     1       2.501   0.491   0.000  0.00  0.00    +0.000 C 
ENDBRANCH   7   8
ENDBRANCH   6   7
ENDBRANCH   2   6
TORSDOF 3
