REMARK  Name = 
REMARK  2 active torsions:
REMARK  status: ('A' for Active; 'I' for Inactive)
REMARK    1  A    between atoms: C_10  and  N_22
REMARK    2  A    between atoms: C_13  and  C_16
REMARK                            x       y       z     vdW  Elec       q    Type
REMARK                         _______ _______ _______ _____ _____    ______ ____
ROOT
ATOM      1  C   UNL     1       2.546   0.147   0.000  0.00  0.00    +0.000 C 
ATOM      2  C   UNL     1       2.291  -0.635   0.000  0.00  0.00    +0.000 A 
ATOM      3  N   UNL     1       2.774  -1.301   0.000  0.00  0.00    +0.000 NA
ATOM      4  N   UNL     1       2.291  -1.967   0.000  0.00  0.00    +0.000 NA
ATOM      5  C   UNL     1       1.504  -1.712   0.000  0.00  0.00    +0.000 A 
ATOM      6  N   UNL     1       1.504  -0.890   0.000  0.00  0.00    +0.000 N 
ATOM      7  C   UNL     1       0.860  -0.374   0.000  0.00  0.00    +0.000 A 
ATOM      8  C   UNL     1       1.104   0.413   0.000  0.00  0.00    +0.000 A 
ATOM      9  C   UNL     1       0.544   1.018   0.000  0.00  0.00    +0.000 A 
ATOM     10  C   UNL     1      -0.261   0.835   0.000  0.00  0.00    +0.000 A 
ATOM     11  C   UNL     1      -0.505   0.047   0.000  0.00  0.00    +0.000 A 
ATOM     12  C   UNL     1       0.056  -0.558   0.000  0.00  0.00    +0.000 A 
ATOM     13  C   UNL     1      -0.299  -1.301   0.000  0.00  0.00    +0.000 C 
ATOM     14  N   UNL     1       0.056  -2.044   0.000  0.00  0.00    +0.000 NA
ATOM     15  C   UNL     1       0.860  -2.228   0.000  0.00  0.00    +0.000 C 
ENDROOT
BRANCH  13  16
ATOM     16  C   UNL     1      -1.126  -1.301   0.000  0.00  0.00    +0.000 A 
ATOM     17  C   UNL     1      -1.537  -0.585   0.000  0.00  0.00    +0.000 A 
ATOM     18  C   UNL     1      -2.363  -0.585   0.000  0.00  0.00    +0.000 A 
ATOM     19  C   UNL     1      -2.774  -1.301   0.000  0.00  0.00    +0.000 A 
ATOM     20  C   UNL     1      -2.363  -2.017   0.000  0.00  0.00    +0.000 A 
ATOM     21  C   UNL     1      -1.537  -2.017   0.000  0.00  0.00    +0.000 A 
ENDBRANCH  13  16
BRANCH  10  22
ATOM     22  N   UNL     1      -0.821   1.440   0.000  0.00  0.00    +0.000 N 
ATOM     23  O   UNL     1      -0.577   2.228   0.000  0.00  0.00    +0.000 OA
ATOM     24  O   UNL     1      -1.625   1.257   0.000  0.00  0.00    +0.000 OA
ENDBRANCH  10  22
TORSDOF 2
