REMARK  Name = 
REMARK  4 active torsions:
REMARK  status: ('A' for Active; 'I' for Inactive)
REMARK    1  A    between atoms: O_2  and  C_3
REMARK    2  A    between atoms: C_5  and  C_12
REMARK    3  A    between atoms: C_8  and  O_9
REMARK    4  A    between atoms: C_21  and  C_22
REMARK                            x       y       z     vdW  Elec       q    Type
REMARK                         _______ _______ _______ _____ _____    ______ ____
ROOT
ATOM      1  C   UNL     1       1.429   0.000   0.000  0.00  0.00    +0.000 C 
ATOM      2  C   UNL     1       2.143  -0.412   0.000  0.00  0.00    +0.000 A 
ATOM      3  C   UNL     1       2.858   0.000   0.000  0.00  0.00    +0.000 A 
ATOM      4  C   UNL     1       3.572  -0.412   0.000  0.00  0.00    +0.000 A 
ATOM      5  C   UNL     1       3.572  -1.238   0.000  0.00  0.00    +0.000 A 
ATOM      6  C   UNL     1       2.858  -1.650   0.000  0.00  0.00    +0.000 A 
ATOM      7  C   UNL     1       2.143  -1.238   0.000  0.00  0.00    +0.000 A 
ATOM      8  O   UNL     1       1.429  -1.650   0.000  0.00  0.00    +0.000 OA
ATOM      9  C   UNL     1       0.715  -1.238   0.000  0.00  0.00    +0.000 C 
ATOM     10  C   UNL     1       0.715  -0.412   0.000  0.00  0.00    +0.000 C 
ATOM     11  N   UNL     1       0.000  -1.650   0.000  0.00  0.00    +0.000 NA
ATOM     12  N   UNL     1       2.858  -2.475   0.000  0.00  0.00    +0.000 NA
ATOM     13  N   UNL     1       4.287  -1.650   0.000  0.00  0.00    +0.000 NA
ENDROOT
BRANCH   1  16
ATOM     14  C   UNL     1       2.143   2.062   0.000  0.00  0.00    +0.000 A 
ATOM     15  C   UNL     1       2.143   1.238   0.000  0.00  0.00    +0.000 A 
ATOM     16  C   UNL     1       1.429   0.825   0.000  0.00  0.00    +0.000 A 
ATOM     17  C   UNL     1       0.715   1.238   0.000  0.00  0.00    +0.000 A 
ATOM     18  C   UNL     1       0.715   2.062   0.000  0.00  0.00    +0.000 A 
ATOM     19  C   UNL     1       1.429   2.475   0.000  0.00  0.00    +0.000 A 
ATOM     20 BR   UNL     1       0.000   2.475   0.000  0.00  0.00    +0.000 Br
BRANCH  14  22
ATOM     21  C   UNL     1       2.858   3.300   0.000  0.00  0.00    +0.000 C 
ATOM     22  O   UNL     1       2.858   2.475   0.000  0.00  0.00    +0.000 OA
ENDBRANCH  14  22
BRANCH  19  23
ATOM     23  O   UNL     1       1.429   3.300   0.000  0.00  0.00    +0.000 OA
ATOM     24  C   UNL     1       0.715   3.712   0.000  0.00  0.00    +0.000 C 
ENDBRANCH  19  23
ENDBRANCH   1  16
BRANCH  10  25
ATOM     25  C   UNL     1       0.000   0.000   0.000  0.00  0.00    +0.000 C 
ATOM     26  N   UNL     1      -0.715   0.412   0.000  0.00  0.00    +0.000 NA
ENDBRANCH  10  25
TORSDOF 4
