REMARK  Name = 
REMARK  3 active torsions:
REMARK  status: ('A' for Active; 'I' for Inactive)
REMARK    1  A    between atoms: C_5  and  N_8
REMARK    2  A    between atoms: N_8  and  C_19
REMARK    3  A    between atoms: C_9  and  C_11
REMARK                            x       y       z     vdW  Elec       q    Type
REMARK                         _______ _______ _______ _____ _____    ______ ____
ROOT
ATOM      1  N   UNL     1       2.143  -3.712   0.000  0.00  0.00    +0.000 N 
ATOM      2  C   UNL     1       2.858  -4.125   0.000  0.00  0.00    +0.000 C 
ATOM      3  O   UNL     1       3.572  -3.712   0.000  0.00  0.00    +0.000 OA
ENDROOT
BRANCH   2   4
ATOM      4  C   UNL     1       2.858  -4.950   0.000  0.00  0.00    +0.000 A 
ATOM      5  C   UNL     1       3.572  -5.362   0.000  0.00  0.00    +0.000 A 
ATOM      6  C   UNL     1       3.572  -6.188   0.000  0.00  0.00    +0.000 A 
ATOM      7  C   UNL     1       2.858  -6.600   0.000  0.00  0.00    +0.000 A 
ATOM      8  O   UNL     1       2.858  -7.425   0.000  0.00  0.00    +0.000 OA
ATOM      9  C   UNL     1       2.143  -6.188   0.000  0.00  0.00    +0.000 A 
ATOM     10  F   UNL     1       1.429  -6.600   0.000  0.00  0.00    +0.000 F 
ATOM     11  C   UNL     1       2.143  -5.362   0.000  0.00  0.00    +0.000 A 
ENDBRANCH   2   4
BRANCH   1  16
ATOM     12  O   UNL     1       2.143  -0.412   0.000  0.00  0.00    +0.000 OA
ATOM     13  C   UNL     1       2.143  -1.238   0.000  0.00  0.00    +0.000 A 
ATOM     14  C   UNL     1       2.858  -1.650   0.000  0.00  0.00    +0.000 A 
ATOM     15  C   UNL     1       2.858  -2.475   0.000  0.00  0.00    +0.000 A 
ATOM     16  C   UNL     1       2.143  -2.888   0.000  0.00  0.00    +0.000 A 
ATOM     17  C   UNL     1       1.429  -2.475   0.000  0.00  0.00    +0.000 A 
ATOM     18  C   UNL     1       1.429  -1.650   0.000  0.00  0.00    +0.000 A 
ENDBRANCH   1  16
BRANCH   1  19
ATOM     19  C   UNL     1       1.429  -4.125   0.000  0.00  0.00    +0.000 A 
ATOM     20  C   UNL     1       1.429  -4.950   0.000  0.00  0.00    +0.000 A 
ATOM     21  C   UNL     1       0.715  -5.362   0.000  0.00  0.00    +0.000 A 
ATOM     22  C   UNL     1       0.000  -4.950   0.000  0.00  0.00    +0.000 A 
ATOM     23  F   UNL     1      -0.715  -5.362   0.000  0.00  0.00    +0.000 F 
ATOM     24  C   UNL     1       0.000  -4.125   0.000  0.00  0.00    +0.000 A 
ATOM     25  C   UNL     1       0.715  -3.712   0.000  0.00  0.00    +0.000 A 
ENDBRANCH   1  19
TORSDOF 3
