REMARK  Name = 
REMARK  4 active torsions:
REMARK  status: ('A' for Active; 'I' for Inactive)
REMARK    1  A    between atoms: C_2  and  O_3
REMARK    2  A    between atoms: O_3  and  C_4
REMARK    3  A    between atoms: C_4  and  C_6
REMARK    4  A    between atoms: C_10  and  C_11
REMARK                            x       y       z     vdW  Elec       q    Type
REMARK                         _______ _______ _______ _____ _____    ______ ____
ROOT
ATOM      1  C   UNL     1      -2.361   1.593   0.000  0.00  0.00    +0.000 A 
ATOM      2  C   UNL     1      -2.533   0.786   0.000  0.00  0.00    +0.000 A 
ATOM      3  C   UNL     1      -3.287   0.451   0.000  0.00  0.00    +0.000 C 
ATOM      4  N   UNL     1      -1.819   0.374   0.000  0.00  0.00    +0.000 NA
ATOM      5  C   UNL     1      -1.205   0.926   0.000  0.00  0.00    +0.000 A 
ATOM      6  C   UNL     1      -1.541   1.679   0.000  0.00  0.00    +0.000 A 
ATOM      7  C   UNL     1      -1.129   2.394   0.000  0.00  0.00    +0.000 C 
ENDROOT
BRANCH   5   8
ATOM      8  C   UNL     1      -0.398   0.754   0.000  0.00  0.00    +0.000 C 
ATOM      9  C   UNL     1      -0.143  -0.030   0.000  0.00  0.00    +0.000 C 
ATOM     10  C   UNL     1      -0.628  -0.698   0.000  0.00  0.00    +0.000 C 
ATOM     11  O   UNL     1      -1.453  -0.698   0.000  0.00  0.00    +0.000 OA
ATOM     12  N   UNL     1      -0.143  -1.365   0.000  0.00  0.00    +0.000 NA
ATOM     13  C   UNL     1       0.641  -1.110   0.000  0.00  0.00    +0.000 A 
ATOM     14  C   UNL     1       0.641  -0.285   0.000  0.00  0.00    +0.000 A 
ATOM     15  C   UNL     1       1.356   0.127   0.000  0.00  0.00    +0.000 A 
ATOM     16  C   UNL     1       2.070  -0.285   0.000  0.00  0.00    +0.000 A 
ATOM     17  C   UNL     1       2.070  -1.110   0.000  0.00  0.00    +0.000 A 
ATOM     18  C   UNL     1       1.356  -1.523   0.000  0.00  0.00    +0.000 A 
ENDBRANCH   5   8
BRANCH   1  19
ATOM     19  C   UNL     1      -2.913   2.206   0.000  0.00  0.00    +0.000 C 
ATOM     20  O   UNL     1      -3.720   2.035   0.000  0.00  0.00    +0.000 OA
BRANCH  19  21
ATOM     21  O   UNL     1      -2.659   2.991   0.000  0.00  0.00    +0.000 OA
BRANCH  21  23
ATOM     22  C   UNL     1      -2.956   4.388   0.000  0.00  0.00    +0.000 C 
ATOM     23  C   UNL     1      -3.211   3.604   0.000  0.00  0.00    +0.000 C 
ENDBRANCH  21  23
ENDBRANCH  19  21
ENDBRANCH   1  19
TORSDOF 4
