REMARK  Name = 
REMARK  0 active torsions:
REMARK  status: ('A' for Active; 'I' for Inactive)
REMARK                            x       y       z     vdW  Elec       q    Type
REMARK                         _______ _______ _______ _____ _____    ______ ____
ROOT
ATOM      1  C   UNL     1       0.020  -0.301   0.000  0.00  0.00    +0.000 A 
ATOM      2  N   UNL     1       0.275   0.484   0.000  0.00  0.00    +0.000 N 
ATOM      3  C   UNL     1      -0.805  -0.301   0.000  0.00  0.00    +0.000 A 
ATOM      4  O   UNL     1       0.505  -0.969   0.000  0.00  0.00    +0.000 OA
ATOM      5  S   UNL     1      -0.392   0.969   0.000  0.00  0.00    +0.000 S 
ATOM      6  C   UNL     1       1.060   0.739   0.000  0.00  0.00    +0.000 C 
ATOM      7  C   UNL     1      -1.060   0.484   0.000  0.00  0.00    +0.000 A 
ENDROOT
TORSDOF 0
