REMARK  Name = 
REMARK  6 active torsions:
REMARK  status: ('A' for Active; 'I' for Inactive)
REMARK    1  A    between atoms: C_6  and  C_7
REMARK    2  A    between atoms: C_7  and  N_8
REMARK    3  A    between atoms: C_7  and  C_9
REMARK    4  A    between atoms: N_10  and  C_20
REMARK    5  A    between atoms: C_20  and  C_21
REMARK    6  A    between atoms: C_22  and  C_23
REMARK                            x       y       z     vdW  Elec       q    Type
REMARK                         _______ _______ _______ _____ _____    ______ ____
ROOT
ATOM      1  N   UNL     1      -0.714  -0.825   0.000  0.00  0.00    +0.000 NA
ATOM      2  N   UNL     1      -0.714   0.825   0.000  0.00  0.00    +0.000 NA
ATOM      3  C   UNL     1      -1.429   0.412   0.000  0.00  0.00    +0.000 C 
ATOM      4  C   UNL     1      -1.429  -0.412   0.000  0.00  0.00    +0.000 C 
ATOM      5  C   UNL     1       0.000  -0.412   0.000  0.00  0.00    +0.000 C 
ATOM      6  C   UNL     1       0.000   0.412   0.000  0.00  0.00    +0.000 C 
ENDROOT
BRANCH   2   7
ATOM      7  C   UNL     1      -0.714   1.650   0.000  0.00  0.00    +0.000 C 
BRANCH   7   8
ATOM      8  C   UNL     1       0.000   2.062   0.000  0.00  0.00    +0.000 C 
ATOM      9  C   UNL     1       0.714   1.650   0.000  0.00  0.00    +0.000 C 
BRANCH   9  10
ATOM     10  C   UNL     1       1.429   2.062   0.000  0.00  0.00    +0.000 A 
ATOM     11  C   UNL     1       2.143   3.300   0.000  0.00  0.00    +0.000 A 
ATOM     12  C   UNL     1       1.429   2.888   0.000  0.00  0.00    +0.000 A 
ATOM     13  C   UNL     1       2.143   1.650   0.000  0.00  0.00    +0.000 A 
ATOM     14  C   UNL     1       2.858   2.062   0.000  0.00  0.00    +0.000 A 
ATOM     15  C   UNL     1       2.858   2.888   0.000  0.00  0.00    +0.000 A 
ENDBRANCH   9  10
ENDBRANCH   7   8
ENDBRANCH   2   7
BRANCH   1  16
ATOM     16  C   UNL     1      -0.714  -1.650   0.000  0.00  0.00    +0.000 C 
BRANCH  16  22
ATOM     17  C   UNL     1      -2.143  -1.650   0.000  0.00  0.00    +0.000 A 
ATOM     18  C   UNL     1      -2.858  -2.062   0.000  0.00  0.00    +0.000 A 
ATOM     19  C   UNL     1      -2.858  -2.888   0.000  0.00  0.00    +0.000 A 
ATOM     20  C   UNL     1      -2.143  -3.300   0.000  0.00  0.00    +0.000 A 
ATOM     21  C   UNL     1      -1.429  -2.888   0.000  0.00  0.00    +0.000 A 
ATOM     22  C   UNL     1      -1.429  -2.062   0.000  0.00  0.00    +0.000 A 
ENDBRANCH  16  22
BRANCH  16  23
ATOM     23  C   UNL     1       0.000  -2.062   0.000  0.00  0.00    +0.000 A 
ATOM     24  C   UNL     1       0.714  -1.650   0.000  0.00  0.00    +0.000 A 
ATOM     25  C   UNL     1       0.000  -2.888   0.000  0.00  0.00    +0.000 A 
ATOM     26  C   UNL     1       0.714  -3.300   0.000  0.00  0.00    +0.000 A 
ATOM     27  C   UNL     1       1.429  -2.888   0.000  0.00  0.00    +0.000 A 
ATOM     28  C   UNL     1       1.429  -2.062   0.000  0.00  0.00    +0.000 A 
ENDBRANCH  16  23
ENDBRANCH   1  16
TORSDOF 6
