REMARK  Name = 
REMARK  9 active torsions:
REMARK  status: ('A' for Active; 'I' for Inactive)
REMARK    1  A    between atoms: O_2  and  C_13
REMARK    2  A    between atoms: O_2  and  C_24
REMARK    3  A    between atoms: N_3  and  C_25
REMARK    4  A    between atoms: N_3  and  C_26
REMARK    5  A    between atoms: N_3  and  C_27
REMARK    6  A    between atoms: C_4  and  C_5
REMARK    7  A    between atoms: C_4  and  C_7
REMARK    8  A    between atoms: C_6  and  C_8
REMARK    9  A    between atoms: C_24  and  C_25
REMARK                            x       y       z     vdW  Elec       q    Type
REMARK                         _______ _______ _______ _____ _____    ______ ____
ROOT
ATOM      1 CL   UNL     1      -2.874   0.838   0.000  0.00  0.00    +0.000 Cl
ATOM      2  C   UNL     1      -2.118  -0.421   0.000  0.00  0.00    +0.000 C 
ATOM      3  C   UNL     1      -2.118   0.421   0.000  0.00  0.00    +0.000 C 
ENDROOT
BRANCH   3   4
ATOM      4  C   UNL     1      -1.407   0.838   0.000  0.00  0.00    +0.000 A 
ATOM      5  C   UNL     1      -0.695   0.465   0.000  0.00  0.00    +0.000 A 
ATOM      6  C   UNL     1      -1.407   1.680   0.000  0.00  0.00    +0.000 A 
ATOM      7  C   UNL     1       0.017   0.881   0.000  0.00  0.00    +0.000 A 
ATOM      8  C   UNL     1      -0.695   2.097   0.000  0.00  0.00    +0.000 A 
ATOM      9  C   UNL     1       0.017   1.723   0.000  0.00  0.00    +0.000 A 
ENDBRANCH   3   4
BRANCH   2  10
ATOM     10  C   UNL     1      -2.830  -0.838   0.000  0.00  0.00    +0.000 A 
ATOM     11  C   UNL     1      -3.629  -0.421   0.000  0.00  0.00    +0.000 A 
ATOM     12  C   UNL     1      -2.830  -1.680   0.000  0.00  0.00    +0.000 A 
ATOM     13  C   UNL     1      -4.341  -0.838   0.000  0.00  0.00    +0.000 A 
ATOM     14  C   UNL     1      -3.629  -2.097   0.000  0.00  0.00    +0.000 A 
ATOM     15  C   UNL     1      -4.341  -1.680   0.000  0.00  0.00    +0.000 A 
ENDBRANCH   2  10
BRANCH   2  16
ATOM     16  C   UNL     1      -1.407  -0.838   0.000  0.00  0.00    +0.000 A 
ATOM     17  C   UNL     1      -0.651  -0.421   0.000  0.00  0.00    +0.000 A 
ATOM     18  C   UNL     1      -1.407  -1.680   0.000  0.00  0.00    +0.000 A 
ATOM     19  C   UNL     1       0.061  -1.680   0.000  0.00  0.00    +0.000 A 
ATOM     20  C   UNL     1       0.061  -0.838   0.000  0.00  0.00    +0.000 A 
ATOM     21  C   UNL     1      -0.651  -2.097   0.000  0.00  0.00    +0.000 A 
BRANCH  19  22
ATOM     22  O   UNL     1       0.773  -2.097   0.000  0.00  0.00    +0.000 OA
BRANCH  22  23
ATOM     23  C   UNL     1       1.485  -1.680   0.000  0.00  0.00    +0.000 C 
BRANCH  23  24
ATOM     24  C   UNL     1       2.205  -2.097   0.000  0.00  0.00    +0.000 C 
BRANCH  24  25
ATOM     25  N   UNL     1       2.917  -1.680   0.000  0.00  0.00    +0.000 NA
BRANCH  25  26
ATOM     26  C   UNL     1       3.629  -2.097   0.000  0.00  0.00    +0.000 C 
ATOM     27  C   UNL     1       4.341  -1.680   0.000  0.00  0.00    +0.000 C 
ENDBRANCH  25  26
BRANCH  25  28
ATOM     28  C   UNL     1       2.917  -0.838   0.000  0.00  0.00    +0.000 C 
ATOM     29  C   UNL     1       3.629  -0.421   0.000  0.00  0.00    +0.000 C 
ENDBRANCH  25  28
ENDBRANCH  24  25
ENDBRANCH  23  24
ENDBRANCH  22  23
ENDBRANCH  19  22
ENDBRANCH   2  16
TORSDOF 9
