REMARK  Name = 
REMARK  0 active torsions:
REMARK  status: ('A' for Active; 'I' for Inactive)
REMARK                            x       y       z     vdW  Elec       q    Type
REMARK                         _______ _______ _______ _____ _____    ______ ____
ROOT
ATOM      1 CL   UNL     1       0.619   0.715   0.000  0.00  0.00    +0.000 Cl
ATOM      2 IN   UNL     1       0.206   0.000   0.000  0.00  0.00    +0.000 In
ATOM      3 CL   UNL     1       0.619  -0.715   0.000  0.00  0.00    +0.000 Cl
ATOM      4 CL   UNL     1      -0.619   0.000   0.000  0.00  0.00    +0.000 Cl
ENDROOT
TORSDOF 0
