REMARK  Name = 
REMARK  4 active torsions:
REMARK  status: ('A' for Active; 'I' for Inactive)
REMARK    1  A    between atoms: S_1  and  C_16
REMARK    2  A    between atoms: S_1  and  C_17
REMARK    3  A    between atoms: C_15  and  C_16
REMARK    4  A    between atoms: C_18  and  C_20
REMARK                            x       y       z     vdW  Elec       q    Type
REMARK                         _______ _______ _______ _____ _____    ______ ____
ROOT
ATOM      1  O   UNL     1      -1.429   1.650   0.000  0.00  0.00    +0.000 OA
ATOM      2  N   UNL     1      -1.429  -0.825   0.000  0.00  0.00    +0.000 N 
ATOM      3  N   UNL     1      -0.715   0.412   0.000  0.00  0.00    +0.000 NA
ATOM      4  C   UNL     1      -0.715  -0.412   0.000  0.00  0.00    +0.000 A 
ATOM      5  C   UNL     1      -2.143  -0.412   0.000  0.00  0.00    +0.000 A 
ATOM      6  C   UNL     1      -2.143   0.412   0.000  0.00  0.00    +0.000 A 
ATOM      7  C   UNL     1      -1.429   0.825   0.000  0.00  0.00    +0.000 A 
ATOM      8  H   UNL     1      -1.429  -1.337   0.000  0.00  0.00    +0.000 HD
ENDROOT
BRANCH   5  12
ATOM      9  F   UNL     1      -2.445  -1.539   0.000  0.00  0.00    +0.000 F 
ATOM     10  F   UNL     1      -3.270  -0.111   0.000  0.00  0.00    +0.000 F 
ATOM     11  F   UNL     1      -3.572  -1.238   0.000  0.00  0.00    +0.000 F 
ATOM     12  C   UNL     1      -2.858  -0.825   0.000  0.00  0.00    +0.000 C 
ENDBRANCH   5  12
BRANCH   4  13
ATOM     13  S   UNL     1       0.000  -0.825   0.000  0.00  0.00    +0.000 S 
BRANCH  13  14
ATOM     14  C   UNL     1       0.715  -0.412   0.000  0.00  0.00    +0.000 C 
BRANCH  14  22
ATOM     15  O   UNL     1       1.429  -1.650   0.000  0.00  0.00    +0.000 OA
ATOM     16  N   UNL     1       2.143  -0.412   0.000  0.00  0.00    +0.000 N 
ATOM     17  C   UNL     1       3.572   0.412   0.000  0.00  0.00    +0.000 C 
ATOM     18  C   UNL     1       2.858   0.825   0.000  0.00  0.00    +0.000 C 
ATOM     19  C   UNL     1       3.572  -0.412   0.000  0.00  0.00    +0.000 C 
ATOM     20  C   UNL     1       2.143   0.412   0.000  0.00  0.00    +0.000 C 
ATOM     21  C   UNL     1       2.858  -0.825   0.000  0.00  0.00    +0.000 C 
ATOM     22  C   UNL     1       1.429  -0.825   0.000  0.00  0.00    +0.000 C 
ENDBRANCH  14  22
ENDBRANCH  13  14
ENDBRANCH   4  13
TORSDOF 4
