REMARK  Name = 
REMARK  3 active torsions:
REMARK  status: ('A' for Active; 'I' for Inactive)
REMARK    1  A    between atoms: C_2  and  C_3
REMARK    2  A    between atoms: C_3  and  C_4
REMARK    3  A    between atoms: C_8  and  C_9
REMARK                            x       y       z     vdW  Elec       q    Type
REMARK                         _______ _______ _______ _____ _____    ______ ____
ROOT
ATOM      1  N   UNL     1       0.587   0.356   0.000  0.00  0.00    +0.000 N 
ATOM      2  C   UNL     1      -0.139  -0.044   0.000  0.00  0.00    +0.000 C 
ATOM      3  O   UNL     1      -0.139  -0.860   0.000  0.00  0.00    +0.000 OA
ATOM      4  C   UNL     1       1.339   0.006   0.000  0.00  0.00    +0.000 C 
ATOM      5  C   UNL     1       1.896   0.624   0.000  0.00  0.00    +0.000 C 
ATOM      6  C   UNL     1       1.478   1.335   0.000  0.00  0.00    +0.000 C 
ATOM      7  C   UNL     1       0.698   1.192   0.000  0.00  0.00    +0.000 C 
ENDROOT
BRANCH   4   8
ATOM      8  C   UNL     1       1.491  -0.791   0.000  0.00  0.00    +0.000 C 
ATOM      9  O   UNL     1       2.266  -1.049   0.000  0.00  0.00    +0.000 OA
ATOM     10  O   UNL     1       0.878  -1.335   0.000  0.00  0.00    +0.000 OA
ENDBRANCH   4   8
BRANCH   2  11
ATOM     11  C   UNL     1      -0.838   0.386   0.000  0.00  0.00    +0.000 C 
ATOM     12  C   UNL     1      -0.841   1.214   0.000  0.00  0.00    +0.000 C 
BRANCH  11  13
ATOM     13  C   UNL     1      -1.562  -0.016   0.000  0.00  0.00    +0.000 C 
ATOM     14  S   UNL     1      -2.266   0.401   0.000  0.00  0.00    +0.000 S 
ENDBRANCH  11  13
ENDBRANCH   2  11
TORSDOF 3
