REMARK  Name = 
REMARK  3 active torsions:
REMARK  status: ('A' for Active; 'I' for Inactive)
REMARK    1  A    between atoms: N_4  and  C_5
REMARK    2  A    between atoms: C_8  and  C_11
REMARK    3  A    between atoms: N_13  and  C_14
REMARK                            x       y       z     vdW  Elec       q    Type
REMARK                         _______ _______ _______ _____ _____    ______ ____
ROOT
ATOM      1  C   UNL     1       1.429  -2.475   0.000  0.00  0.00    +0.000 A 
ATOM      2  C   UNL     1       2.143  -2.888   0.000  0.00  0.00    +0.000 A 
ATOM      3  C   UNL     1       2.143  -3.712   0.000  0.00  0.00    +0.000 A 
ATOM      4  C   UNL     1       1.429  -4.125   0.000  0.00  0.00    +0.000 A 
ATOM      5  C   UNL     1       0.715  -3.712   0.000  0.00  0.00    +0.000 A 
ATOM      6  C   UNL     1       0.715  -2.888   0.000  0.00  0.00    +0.000 A 
ENDROOT
BRANCH   1  10
ATOM      7  C   UNL     1       0.715  -0.412   0.000  0.00  0.00    +0.000 C 
ATOM      8  C   UNL     1       0.715  -1.238   0.000  0.00  0.00    +0.000 C 
ATOM      9  O   UNL     1       0.000  -1.650   0.000  0.00  0.00    +0.000 OA
ATOM     10  N   UNL     1       1.429  -1.650   0.000  0.00  0.00    +0.000 NA
ENDBRANCH   1  10
BRANCH   4  11
ATOM     11  C   UNL     1       1.429  -4.950   0.000  0.00  0.00    +0.000 C 
ATOM     12  O   UNL     1       0.715  -5.362   0.000  0.00  0.00    +0.000 OA
ATOM     13  N   UNL     1       2.143  -5.362   0.000  0.00  0.00    +0.000 NA
BRANCH  13  14
ATOM     14  C   UNL     1       2.143  -6.188   0.000  0.00  0.00    +0.000 A 
ATOM     15  C   UNL     1       2.858  -6.600   0.000  0.00  0.00    +0.000 A 
ATOM     16  C   UNL     1       2.858  -7.425   0.000  0.00  0.00    +0.000 A 
ATOM     17  C   UNL     1       2.143  -7.838   0.000  0.00  0.00    +0.000 A 
ATOM     18  C   UNL     1       1.429  -7.425   0.000  0.00  0.00    +0.000 A 
ATOM     19  C   UNL     1       1.429  -6.600   0.000  0.00  0.00    +0.000 A 
ATOM     20  N   UNL     1       0.715  -6.188   0.000  0.00  0.00    +0.000 NA
ENDBRANCH  13  14
ENDBRANCH   4  11
TORSDOF 3
