REMARK  Name = 
REMARK  3 active torsions:
REMARK  status: ('A' for Active; 'I' for Inactive)
REMARK    1  A    between atoms: O_2  and  C_10
REMARK    2  A    between atoms: O_3  and  C_14
REMARK    3  A    between atoms: C_12  and  C_17
REMARK                            x       y       z     vdW  Elec       q    Type
REMARK                         _______ _______ _______ _____ _____    ______ ____
ROOT
ATOM      1  O   UNL     1       0.353   0.650   0.000  0.00  0.00    +0.000 OA
ATOM      2  O   UNL     1      -1.099  -1.853   0.000  0.00  0.00    +0.000 OA
ATOM      3  O   UNL     1      -2.528   0.622   0.000  0.00  0.00    +0.000 OA
ATOM      4  O   UNL     1       0.344  -1.882   0.000  0.00  0.00    +0.000 OA
ATOM      5  C   UNL     1      -0.385  -0.616   0.000  0.00  0.00    +0.000 A 
ATOM      6  C   UNL     1      -0.385   0.209   0.000  0.00  0.00    +0.000 A 
ATOM      7  C   UNL     1      -1.099   0.622   0.000  0.00  0.00    +0.000 A 
ATOM      8  C   UNL     1      -1.099  -1.028   0.000  0.00  0.00    +0.000 A 
ATOM      9  C   UNL     1       1.101   0.226   0.000  0.00  0.00    +0.000 A 
ATOM     10  C   UNL     1       0.353  -1.057   0.000  0.00  0.00    +0.000 A 
ATOM     11  C   UNL     1      -1.813  -0.616   0.000  0.00  0.00    +0.000 A 
ATOM     12  C   UNL     1      -1.813   0.209   0.000  0.00  0.00    +0.000 A 
ATOM     13  C   UNL     1       1.101  -0.633   0.000  0.00  0.00    +0.000 A 
ENDROOT
BRANCH   9  15
ATOM     14  O   UNL     1       2.533  -0.593   0.000  0.00  0.00    +0.000 OA
ATOM     15  C   UNL     1       1.813   0.641   0.000  0.00  0.00    +0.000 A 
ATOM     16  C   UNL     1       2.530   0.232   0.000  0.00  0.00    +0.000 A 
ATOM     17  C   UNL     1       1.810   1.467   0.000  0.00  0.00    +0.000 A 
ATOM     18  C   UNL     1       3.242   0.647   0.000  0.00  0.00    +0.000 A 
ATOM     19  C   UNL     1       2.523   1.882   0.000  0.00  0.00    +0.000 A 
ATOM     20  C   UNL     1       3.239   1.472   0.000  0.00  0.00    +0.000 A 
ENDBRANCH   9  15
BRANCH   7  21
ATOM     21  O   UNL     1      -1.099   1.447   0.000  0.00  0.00    +0.000 OA
ATOM     22  C   UNL     1      -1.813   1.859   0.000  0.00  0.00    +0.000 C 
ENDBRANCH   7  21
BRANCH  11  23
ATOM     23  O   UNL     1      -2.528  -1.028   0.000  0.00  0.00    +0.000 OA
ATOM     24  C   UNL     1      -3.242  -0.616   0.000  0.00  0.00    +0.000 C 
ENDBRANCH  11  23
TORSDOF 3
