REMARK  Name = 
REMARK  4 active torsions:
REMARK  status: ('A' for Active; 'I' for Inactive)
REMARK    1  A    between atoms: N_2  and  C_13
REMARK    2  A    between atoms: C_5  and  C_6
REMARK    3  A    between atoms: C_5  and  C_7
REMARK    4  A    between atoms: C_7  and  C_8
REMARK                            x       y       z     vdW  Elec       q    Type
REMARK                         _______ _______ _______ _____ _____    ______ ____
ROOT
ATOM      1  C   UNL     1       0.000   0.128   0.000  0.00  0.00    +0.000 A 
ATOM      2  C   UNL     1      -0.715   0.540   0.000  0.00  0.00    +0.000 A 
ATOM      3  C   UNL     1       0.715   0.540   0.000  0.00  0.00    +0.000 A 
ATOM      4  C   UNL     1      -0.715   1.365   0.000  0.00  0.00    +0.000 A 
ATOM      5  C   UNL     1       0.715   1.365   0.000  0.00  0.00    +0.000 A 
ATOM      6  C   UNL     1       0.000   1.778   0.000  0.00  0.00    +0.000 A 
ENDROOT
BRANCH   6   7
ATOM      7  N   UNL     1       0.000   2.603   0.000  0.00  0.00    +0.000 NA
ATOM      8  N   UNL     1       0.715   3.840   0.000  0.00  0.00    +0.000 NA
ATOM      9  N   UNL     1       1.429   2.603   0.000  0.00  0.00    +0.000 NA
ATOM     10  C   UNL     1       0.715   3.015   0.000  0.00  0.00    +0.000 C 
ENDBRANCH   6   7
BRANCH   1  11
ATOM     11  C   UNL     1       0.000  -0.697   0.000  0.00  0.00    +0.000 C 
BRANCH  11  13
ATOM     12  O   UNL     1      -1.429  -0.697   0.000  0.00  0.00    +0.000 OA
ATOM     13  C   UNL     1      -0.715  -1.110   0.000  0.00  0.00    +0.000 C 
BRANCH  13  14
ATOM     14  C   UNL     1      -0.715  -1.935   0.000  0.00  0.00    +0.000 A 
ATOM     15  C   UNL     1      -1.429  -2.347   0.000  0.00  0.00    +0.000 A 
ATOM     16  C   UNL     1       0.000  -2.347   0.000  0.00  0.00    +0.000 A 
ATOM     17  C   UNL     1      -1.429  -3.172   0.000  0.00  0.00    +0.000 A 
ATOM     18  C   UNL     1       0.000  -3.172   0.000  0.00  0.00    +0.000 A 
ATOM     19  C   UNL     1      -0.715  -3.585   0.000  0.00  0.00    +0.000 A 
ENDBRANCH  13  14
ENDBRANCH  11  13
ENDBRANCH   1  11
TORSDOF 4
