REMARK  Name = 
REMARK  4 active torsions:
REMARK  status: ('A' for Active; 'I' for Inactive)
REMARK    1  A    between atoms: C_5  and  N_18
REMARK    2  A    between atoms: C_7  and  C_9
REMARK    3  A    between atoms: C_9  and  C_11
REMARK    4  A    between atoms: C_11  and  C_12
REMARK                            x       y       z     vdW  Elec       q    Type
REMARK                         _______ _______ _______ _____ _____    ______ ____
ROOT
ATOM      1  O   UNL     1       1.429  -1.650   0.000  0.00  0.00    +0.000 OA
ATOM      2  C   UNL     1       1.429  -2.475   0.000  0.00  0.00    +0.000 A 
ATOM      3  C   UNL     1       2.143  -2.888   0.000  0.00  0.00    +0.000 A 
ATOM      4  O   UNL     1       2.858  -2.475   0.000  0.00  0.00    +0.000 OA
ATOM      5  C   UNL     1       2.143  -3.712   0.000  0.00  0.00    +0.000 A 
ATOM      6  C   UNL     1       1.429  -4.125   0.000  0.00  0.00    +0.000 A 
ATOM      7  C   UNL     1       0.715  -3.712   0.000  0.00  0.00    +0.000 A 
ATOM      8  C   UNL     1       0.715  -2.888   0.000  0.00  0.00    +0.000 A 
ENDROOT
BRANCH   5   9
ATOM      9  N   UNL     1       2.858  -4.125   0.000  0.00  0.00    +0.000 N 
ATOM     10  O   UNL     1       2.858  -4.950   0.000  0.00  0.00    +0.000 OA
ATOM     11  O   UNL     1       3.572  -3.712   0.000  0.00  0.00    +0.000 OA
ENDBRANCH   5   9
BRANCH   7  12
ATOM     12  C   UNL     1       0.000  -4.125   0.000  0.00  0.00    +0.000 C 
ATOM     13  O   UNL     1      -0.715  -3.712   0.000  0.00  0.00    +0.000 OA
BRANCH  12  14
ATOM     14  C   UNL     1       0.000  -4.950   0.000  0.00  0.00    +0.000 C 
BRANCH  14  15
ATOM     15  C   UNL     1      -0.715  -5.362   0.000  0.00  0.00    +0.000 A 
ATOM     16  C   UNL     1      -0.715  -6.188   0.000  0.00  0.00    +0.000 A 
ATOM     17  C   UNL     1      -1.429  -6.600   0.000  0.00  0.00    +0.000 A 
ATOM     18  C   UNL     1      -2.143  -6.188   0.000  0.00  0.00    +0.000 A 
ATOM     19  C   UNL     1      -2.143  -5.362   0.000  0.00  0.00    +0.000 A 
ATOM     20  C   UNL     1      -1.429  -4.950   0.000  0.00  0.00    +0.000 A 
ENDBRANCH  14  15
ENDBRANCH  12  14
ENDBRANCH   7  12
TORSDOF 4
