REMARK  Name = 
REMARK  10 active torsions:
REMARK  status: ('A' for Active; 'I' for Inactive)
REMARK    1  A    between atoms: O_2  and  C_3
REMARK    2  A    between atoms: C_5  and  C_10
REMARK    3  A    between atoms: C_11  and  C_12
REMARK    4  A    between atoms: C_12  and  C_14
REMARK    5  A    between atoms: C_14  and  C_15
REMARK    6  A    between atoms: C_15  and  C_17
REMARK    7  A    between atoms: C_18  and  C_19
REMARK    8  A    between atoms: C_22  and  O_27
REMARK    9  A    between atoms: C_23  and  O_25
REMARK   10  A    between atoms: O_27  and  S_28
REMARK                            x       y       z     vdW  Elec       q    Type
REMARK                         _______ _______ _______ _____ _____    ______ ____
ROOT
ATOM      1  C   UNL     1       7.145  -9.075   0.000  0.00  0.00    +0.000 C 
ATOM      2  O   UNL     1       7.859  -8.662   0.000  0.00  0.00    +0.000 OA
ENDROOT
BRANCH   1   3
ATOM      3  C   UNL     1       7.145  -9.900   0.000  0.00  0.00    +0.000 C 
ATOM      4  C   UNL     1       7.859 -10.312   0.000  0.00  0.00    +0.000 C 
BRANCH   4   5
ATOM      5  C   UNL     1       7.859 -11.137   0.000  0.00  0.00    +0.000 A 
ATOM      6  C   UNL     1       8.574 -11.550   0.000  0.00  0.00    +0.000 A 
ATOM      7  C   UNL     1       8.574 -12.375   0.000  0.00  0.00    +0.000 A 
ATOM      8  C   UNL     1       7.859 -12.787   0.000  0.00  0.00    +0.000 A 
ATOM      9  C   UNL     1       7.145 -12.375   0.000  0.00  0.00    +0.000 A 
ATOM     10  C   UNL     1       7.145 -11.550   0.000  0.00  0.00    +0.000 A 
BRANCH   9  11
ATOM     11  O   UNL     1       6.430 -12.787   0.000  0.00  0.00    +0.000 OA
ATOM     12  C   UNL     1       5.716 -12.375   0.000  0.00  0.00    +0.000 C 
ENDBRANCH   9  11
BRANCH   8  13
ATOM     13  O   UNL     1       7.859 -13.613   0.000  0.00  0.00    +0.000 OA
BRANCH  13  14
ATOM     14  S   UNL     1       8.574 -14.025   0.000  0.00  0.00    +0.000 S 
ATOM     15  O   UNL     1       9.288 -14.438   0.000  0.00  0.00    +0.000 OA
ATOM     16  O   UNL     1       8.161 -14.739   0.000  0.00  0.00    +0.000 OA
ATOM     17  O   UNL     1       8.986 -13.310   0.000  0.00  0.00    +0.000 OA
ENDBRANCH  13  14
ENDBRANCH   8  13
ENDBRANCH   4   5
ENDBRANCH   1   3
BRANCH   1  18
ATOM     18  C   UNL     1       6.430  -8.662   0.000  0.00  0.00    +0.000 C 
BRANCH  18  19
ATOM     19  C   UNL     1       6.430  -7.838   0.000  0.00  0.00    +0.000 C 
ATOM     20  O   UNL     1       7.145  -7.425   0.000  0.00  0.00    +0.000 OA
BRANCH  19  22
ATOM     21  C   UNL     1       5.716  -6.600   0.000  0.00  0.00    +0.000 C 
ATOM     22  C   UNL     1       5.716  -7.425   0.000  0.00  0.00    +0.000 C 
BRANCH  21  25
ATOM     23  C   UNL     1       4.287  -4.950   0.000  0.00  0.00    +0.000 A 
ATOM     24  C   UNL     1       5.001  -5.362   0.000  0.00  0.00    +0.000 A 
ATOM     25  C   UNL     1       5.001  -6.188   0.000  0.00  0.00    +0.000 A 
ATOM     26  C   UNL     1       4.287  -6.600   0.000  0.00  0.00    +0.000 A 
ATOM     27  C   UNL     1       3.572  -6.188   0.000  0.00  0.00    +0.000 A 
ATOM     28  C   UNL     1       3.572  -5.362   0.000  0.00  0.00    +0.000 A 
ATOM     29  O   UNL     1       2.858  -4.950   0.000  0.00  0.00    +0.000 OA
BRANCH  23  31
ATOM     30  C   UNL     1       3.572  -3.712   0.000  0.00  0.00    +0.000 C 
ATOM     31  O   UNL     1       4.287  -4.125   0.000  0.00  0.00    +0.000 OA
ENDBRANCH  23  31
ENDBRANCH  21  25
ENDBRANCH  19  22
ENDBRANCH  18  19
ENDBRANCH   1  18
TORSDOF 10
