REMARK  Name = 
REMARK  5 active torsions:
REMARK  status: ('A' for Active; 'I' for Inactive)
REMARK    1  A    between atoms: C_1  and  C_13
REMARK    2  A    between atoms: C_6  and  O_7
REMARK    3  A    between atoms: C_13  and  C_14
REMARK    4  A    between atoms: C_13  and  C_16
REMARK    5  A    between atoms: C_16  and  C_17
REMARK                            x       y       z     vdW  Elec       q    Type
REMARK                         _______ _______ _______ _____ _____    ______ ____
ROOT
ATOM      1  C   UNL     1      -0.714   0.206   0.000  0.00  0.00    +0.000 A 
ATOM      2  C   UNL     1       0.000  -0.206   0.000  0.00  0.00    +0.000 A 
ATOM      3  C   UNL     1       0.714   0.206   0.000  0.00  0.00    +0.000 A 
ATOM      4  C   UNL     1       0.714   1.031   0.000  0.00  0.00    +0.000 A 
ATOM      5  C   UNL     1       1.429   1.444   0.000  0.00  0.00    +0.000 A 
ATOM      6  C   UNL     1       2.143   1.031   0.000  0.00  0.00    +0.000 A 
ATOM      7  C   UNL     1       2.143   0.206   0.000  0.00  0.00    +0.000 A 
ATOM      8  C   UNL     1       1.429  -0.206   0.000  0.00  0.00    +0.000 A 
ATOM      9  C   UNL     1       0.000   1.444   0.000  0.00  0.00    +0.000 A 
ATOM     10  C   UNL     1      -0.714   1.031   0.000  0.00  0.00    +0.000 A 
ENDROOT
BRANCH   6  11
ATOM     11  O   UNL     1       2.858   1.444   0.000  0.00  0.00    +0.000 OA
ATOM     12  C   UNL     1       3.572   1.031   0.000  0.00  0.00    +0.000 C 
ENDBRANCH   6  11
BRANCH   1  13
ATOM     13  C   UNL     1      -1.429  -0.206   0.000  0.00  0.00    +0.000 C 
BRANCH  13  14
ATOM     14  C   UNL     1      -2.143   0.206   0.000  0.00  0.00    +0.000 C 
ATOM     15  C   UNL     1      -1.731   0.921   0.000  0.00  0.00    +0.000 C 
ATOM     16  C   UNL     1      -2.556  -0.508   0.000  0.00  0.00    +0.000 C 
BRANCH  14  17
ATOM     17  C   UNL     1      -2.858   0.619   0.000  0.00  0.00    +0.000 C 
ATOM     18  O   UNL     1      -3.572   0.206   0.000  0.00  0.00    +0.000 OA
ATOM     19  O   UNL     1      -2.858   1.444   0.000  0.00  0.00    +0.000 OA
ENDBRANCH  14  17
ENDBRANCH  13  14
BRANCH  13  20
ATOM     20  C   UNL     1      -1.429  -1.031   0.000  0.00  0.00    +0.000 C 
ATOM     21  C   UNL     1      -2.143  -1.444   0.000  0.00  0.00    +0.000 C 
ENDBRANCH  13  20
ENDBRANCH   1  13
TORSDOF 5
