REMARK  Name = 
REMARK  4 active torsions:
REMARK  status: ('A' for Active; 'I' for Inactive)
REMARK    1  A    between atoms: CA_1  and  C_2
REMARK    2  A    between atoms: CA_1  and  C_3
REMARK    3  A    between atoms: C_3  and  O_11
REMARK    4  A    between atoms: O_11  and  S_12
REMARK                            x       y       z     vdW  Elec       q    Type
REMARK                         _______ _______ _______ _____ _____    ______ ____
ROOT
ATOM      1  C   UNL     1       1.238  -0.715   0.000  0.00  0.00    +0.000 C 
ATOM      2  O   UNL     1       0.825  -1.429   0.000  0.00  0.00    +0.000 OA
ENDROOT
BRANCH   1   3
ATOM      3  CA  UNL     1       2.062  -0.715   0.000  0.00  0.00    +0.000 C 
ATOM      4  N   UNL     1       2.475   0.000   0.000  0.00  0.00    +0.000 NA
BRANCH   3   5
ATOM      5  C   UNL     1       2.475  -1.429   0.000  0.00  0.00    +0.000 C 
ATOM      6  O   UNL     1       3.300  -1.429   0.000  0.00  0.00    +0.000 OA
ATOM      7  OXT UNL     1       2.062  -2.143   0.000  0.00  0.00    +0.000 OA
ENDBRANCH   3   5
ENDBRANCH   1   3
BRANCH   1   8
ATOM      8  O   UNL     1       0.825   0.000   0.000  0.00  0.00    +0.000 OA
BRANCH   8  12
ATOM      9  O   UNL     1      -0.825   0.000   0.000  0.00  0.00    +0.000 OA
ATOM     10  O   UNL     1       0.000   0.825   0.000  0.00  0.00    +0.000 OA
ATOM     11  O   UNL     1       0.000  -0.825   0.000  0.00  0.00    +0.000 OA
ATOM     12  S   UNL     1       0.000   0.000   0.000  0.00  0.00    +0.000 S 
ENDBRANCH   8  12
ENDBRANCH   1   8
TORSDOF 4
