REMARK  Name = 
REMARK  11 active torsions:
REMARK  status: ('A' for Active; 'I' for Inactive)
REMARK    1  A    between atoms: C_1  and  C_8
REMARK    2  A    between atoms: C_3  and  C_18
REMARK    3  A    between atoms: C_4  and  C_23
REMARK    4  A    between atoms: C_6  and  C_13
REMARK    5  A    between atoms: C_8  and  C_11
REMARK    6  A    between atoms: C_13  and  C_14
REMARK    7  A    between atoms: C_18  and  C_19
REMARK    8  A    between atoms: C_23  and  C_24
REMARK    9  A    between atoms: C_32  and  C_33
REMARK   10  A    between atoms: C_33  and  C_34
REMARK   11  A    between atoms: C_34  and  C_35
REMARK                            x       y       z     vdW  Elec       q    Type
REMARK                         _______ _______ _______ _____ _____    ______ ____
ROOT
ATOM      1  C   UNL     1      -0.048   1.284   0.000  0.00  0.00    +0.000 C 
ATOM      2  C   UNL     1      -0.811   0.968   0.000  0.00  0.00    +0.000 C 
ATOM      3  C   UNL     1      -1.126   0.206   0.000  0.00  0.00    +0.000 C 
ATOM      4  C   UNL     1       1.029   0.206   0.000  0.00  0.00    +0.000 C 
ATOM      5  C   UNL     1      -0.811  -0.556   0.000  0.00  0.00    +0.000 C 
ATOM      6  C   UNL     1      -0.048  -0.872   0.000  0.00  0.00    +0.000 C 
ATOM      7  C   UNL     1       0.714  -0.556   0.000  0.00  0.00    +0.000 C 
ATOM      8  O   UNL     1      -1.394   1.552   0.000  0.00  0.00    +0.000 OA
ATOM      9  O   UNL     1      -1.394  -1.139   0.000  0.00  0.00    +0.000 OA
ATOM     10  C   UNL     1      -0.574   0.206   0.000  0.00  0.00    +0.000 C 
ATOM     11  O   UNL     1       0.251   0.206   0.000  0.00  0.00    +0.000 OA
ATOM     12  C   UNL     1       0.714   0.968   0.000  0.00  0.00    +0.000 C 
ATOM     13  C   UNL     1       1.539   0.968   0.000  0.00  0.00    +0.000 C 
ENDROOT
BRANCH   1  14
ATOM     14  C   UNL     1      -0.048   2.109   0.000  0.00  0.00    +0.000 C 
ATOM     15  O   UNL     1      -0.763   2.522   0.000  0.00  0.00    +0.000 OA
BRANCH  14  16
ATOM     16  C   UNL     1       0.666   2.522   0.000  0.00  0.00    +0.000 C 
ATOM     17  C   UNL     1       0.666   3.347   0.000  0.00  0.00    +0.000 C 
ATOM     18  C   UNL     1       1.381   2.109   0.000  0.00  0.00    +0.000 C 
ENDBRANCH  14  16
ENDBRANCH   1  14
BRANCH   3  19
ATOM     19  C   UNL     1      -1.951   0.206   0.000  0.00  0.00    +0.000 C 
BRANCH  19  20
ATOM     20  C   UNL     1      -2.364   0.921   0.000  0.00  0.00    +0.000 C 
ATOM     21  C   UNL     1      -3.189   0.921   0.000  0.00  0.00    +0.000 C 
ATOM     22  C   UNL     1      -3.601   1.635   0.000  0.00  0.00    +0.000 C 
ATOM     23  C   UNL     1      -3.601   0.206   0.000  0.00  0.00    +0.000 C 
ENDBRANCH  19  20
ENDBRANCH   3  19
BRANCH   6  24
ATOM     24  C   UNL     1      -0.048  -1.697   0.000  0.00  0.00    +0.000 C 
BRANCH  24  25
ATOM     25  C   UNL     1      -0.763  -2.109   0.000  0.00  0.00    +0.000 C 
ATOM     26  C   UNL     1      -0.763  -2.934   0.000  0.00  0.00    +0.000 C 
ATOM     27  C   UNL     1      -1.477  -3.347   0.000  0.00  0.00    +0.000 C 
ATOM     28  C   UNL     1      -0.048  -3.347   0.000  0.00  0.00    +0.000 C 
ENDBRANCH  24  25
ENDBRANCH   6  24
BRANCH  12  29
ATOM     29  C   UNL     1       1.126   1.683   0.000  0.00  0.00    +0.000 C 
BRANCH  29  30
ATOM     30  C   UNL     1       1.951   1.683   0.000  0.00  0.00    +0.000 C 
BRANCH  30  31
ATOM     31  C   UNL     1       2.364   2.397   0.000  0.00  0.00    +0.000 C 
ATOM     32  C   UNL     1       3.189   2.397   0.000  0.00  0.00    +0.000 C 
ATOM     33  C   UNL     1       3.601   3.112   0.000  0.00  0.00    +0.000 C 
ATOM     34  C   UNL     1       3.601   1.683   0.000  0.00  0.00    +0.000 C 
ENDBRANCH  30  31
ENDBRANCH  29  30
ENDBRANCH  12  29
BRANCH   4  35
ATOM     35  C   UNL     1       1.854   0.206   0.000  0.00  0.00    +0.000 C 
BRANCH  35  36
ATOM     36  C   UNL     1       2.267  -0.508   0.000  0.00  0.00    +0.000 C 
ATOM     37  C   UNL     1       3.092  -0.508   0.000  0.00  0.00    +0.000 C 
ATOM     38  C   UNL     1       3.504  -1.223   0.000  0.00  0.00    +0.000 C 
ATOM     39  C   UNL     1       3.504   0.206   0.000  0.00  0.00    +0.000 C 
ENDBRANCH  35  36
ENDBRANCH   4  35
TORSDOF 11
