REMARK  Name = 
REMARK  1 active torsions:
REMARK  status: ('A' for Active; 'I' for Inactive)
REMARK    1  A    between atoms: N_5  and  C_11
REMARK                            x       y       z     vdW  Elec       q    Type
REMARK                         _______ _______ _______ _____ _____    ______ ____
ROOT
ATOM      1  N   UNL     1       0.659  -1.650   0.000  0.00  0.00    +0.000 NA
ATOM      2  C   UNL     1      -0.055  -2.062   0.000  0.00  0.00    +0.000 C 
ATOM      3  N   UNL     1      -0.769  -1.650   0.000  0.00  0.00    +0.000 NA
ATOM      4  C   UNL     1      -0.769  -0.825   0.000  0.00  0.00    +0.000 C 
ATOM      5  N   UNL     1      -0.055  -0.412   0.000  0.00  0.00    +0.000 N 
ATOM      6  C   UNL     1       0.659  -0.825   0.000  0.00  0.00    +0.000 C 
ATOM      7  N   UNL     1      -0.055  -2.887   0.000  0.00  0.00    +0.000 NA
ATOM      8  N   UNL     1      -1.484  -0.412   0.000  0.00  0.00    +0.000 NA
ATOM      9  C   UNL     1       1.097  -0.125   0.000  0.00  0.00    +0.000 C 
ATOM     10  C   UNL     1       1.484  -0.796   0.000  0.00  0.00    +0.000 C 
ENDROOT
BRANCH   5  11
ATOM     11  C   UNL     1      -0.055   0.412   0.000  0.00  0.00    +0.000 A 
ATOM     12  C   UNL     1       0.659   0.825   0.000  0.00  0.00    +0.000 A 
ATOM     13  C   UNL     1       0.659   1.650   0.000  0.00  0.00    +0.000 A 
ATOM     14  C   UNL     1      -0.055   2.062   0.000  0.00  0.00    +0.000 A 
ATOM     15  C   UNL     1      -0.769   1.650   0.000  0.00  0.00    +0.000 A 
ATOM     16  C   UNL     1      -0.769   0.825   0.000  0.00  0.00    +0.000 A 
ATOM     17 CL   UNL     1      -0.055   2.887   0.000  0.00  0.00    +0.000 Cl
ENDBRANCH   5  11
TORSDOF 1
