REMARK  Name = 
REMARK  5 active torsions:
REMARK  status: ('A' for Active; 'I' for Inactive)
REMARK    1  A    between atoms: C_8  and  N_9
REMARK    2  A    between atoms: C_10  and  C_12
REMARK    3  A    between atoms: C_12  and  N_15
REMARK    4  A    between atoms: C_13  and  N_15
REMARK    5  A    between atoms: N_15  and  C_16
REMARK                            x       y       z     vdW  Elec       q    Type
REMARK                         _______ _______ _______ _____ _____    ______ ____
ROOT
ATOM      1  N   UNL     1      -0.714  -0.412   0.000  0.00  0.00    +0.000 NA
ATOM      2  C   UNL     1       0.000   0.000   0.000  0.00  0.00    +0.000 C 
ATOM      3  O   UNL     1       0.000   0.825   0.000  0.00  0.00    +0.000 OA
ENDROOT
BRANCH   1  11
ATOM      4  C   UNL     1      -2.143   1.238   0.000  0.00  0.00    +0.000 A 
ATOM      5  C   UNL     1      -2.858   0.825   0.000  0.00  0.00    +0.000 A 
ATOM      6  C   UNL     1      -2.858   0.000   0.000  0.00  0.00    +0.000 A 
ATOM      7  C   UNL     1      -1.429   0.825   0.000  0.00  0.00    +0.000 A 
ATOM      8  C   UNL     1      -0.714   1.238   0.000  0.00  0.00    +0.000 C 
ATOM      9  C   UNL     1      -2.143  -0.412   0.000  0.00  0.00    +0.000 A 
ATOM     10  C   UNL     1      -2.143  -1.238   0.000  0.00  0.00    +0.000 C 
ATOM     11  C   UNL     1      -1.429   0.000   0.000  0.00  0.00    +0.000 A 
ENDBRANCH   1  11
BRANCH   2  12
ATOM     12  C   UNL     1       0.715  -0.412   0.000  0.00  0.00    +0.000 C 
BRANCH  12  13
ATOM     13  N   UNL     1       1.429   0.000   0.000  0.00  0.00    +0.000 NA
BRANCH  13  14
ATOM     14  C   UNL     1       1.429   0.825   0.000  0.00  0.00    +0.000 C 
ATOM     15  C   UNL     1       2.143   1.237   0.000  0.00  0.00    +0.000 C 
ENDBRANCH  13  14
BRANCH  13  16
ATOM     16  C   UNL     1       2.143  -0.412   0.000  0.00  0.00    +0.000 C 
ATOM     17  C   UNL     1       2.858   0.000   0.000  0.00  0.00    +0.000 C 
ENDBRANCH  13  16
ENDBRANCH  12  13
ENDBRANCH   2  12
TORSDOF 5
