REMARK  Name = 
REMARK  6 active torsions:
REMARK  status: ('A' for Active; 'I' for Inactive)
REMARK    1  A    between atoms: C_1  and  C_4
REMARK    2  A    between atoms: C_4  and  C_7
REMARK    3  A    between atoms: C_7  and  C_9
REMARK    4  A    between atoms: C_9  and  C_11
REMARK    5  A    between atoms: C_11  and  C_12
REMARK    6  A    between atoms: C_12  and  C_13
REMARK                            x       y       z     vdW  Elec       q    Type
REMARK                         _______ _______ _______ _____ _____    ______ ____
ROOT
ATOM      1  C   UNL     1      -1.778  -0.606   0.000  0.00  0.00    +0.000 A 
ATOM      2  C   UNL     1      -1.062  -0.198   0.000  0.00  0.00    +0.000 A 
ATOM      3  C   UNL     1      -2.497  -0.198   0.000  0.00  0.00    +0.000 A 
ATOM      4  C   UNL     1      -1.062   0.623   0.000  0.00  0.00    +0.000 A 
ATOM      5  C   UNL     1      -2.497   0.619   0.000  0.00  0.00    +0.000 A 
ATOM      6  C   UNL     1      -1.765   1.032   0.000  0.00  0.00    +0.000 A 
ATOM      7  O   UNL     1      -1.765   1.868   0.000  0.00  0.00    +0.000 OA
ENDROOT
BRANCH   1   8
ATOM      8  C   UNL     1      -1.778  -1.456   0.000  0.00  0.00    +0.000 C 
BRANCH   8   9
ATOM      9  C   UNL     1      -1.062  -1.868   0.000  0.00  0.00    +0.000 C 
BRANCH   9  10
ATOM     10  C   UNL     1      -0.353  -1.444   0.000  0.00  0.00    +0.000 C 
BRANCH  10  11
ATOM     11  C   UNL     1       0.343  -1.862   0.000  0.00  0.00    +0.000 C 
BRANCH  11  12
ATOM     12  C   UNL     1       1.058  -1.456   0.000  0.00  0.00    +0.000 C 
BRANCH  12  13
ATOM     13  C   UNL     1       1.767  -1.868   0.000  0.00  0.00    +0.000 C 
ATOM     14  C   UNL     1       2.497  -1.458   0.000  0.00  0.00    +0.000 C 
ENDBRANCH  12  13
ENDBRANCH  11  12
ENDBRANCH  10  11
ENDBRANCH   9  10
ENDBRANCH   8   9
ENDBRANCH   1   8
TORSDOF 6
