REMARK  Name = 
REMARK  6 active torsions:
REMARK  status: ('A' for Active; 'I' for Inactive)
REMARK    1  A    between atoms: C_3  and  N_23
REMARK    2  A    between atoms: C_6  and  O_7
REMARK    3  A    between atoms: O_7  and  C_8
REMARK    4  A    between atoms: C_11  and  C_24
REMARK    5  A    between atoms: C_16  and  C_17
REMARK    6  A    between atoms: C_17  and  C_19
REMARK                            x       y       z     vdW  Elec       q    Type
REMARK                         _______ _______ _______ _____ _____    ______ ____
ROOT
ATOM      1  C   UNL     1      -0.357  -0.825   0.000  0.00  0.00    +0.000 A 
ATOM      2  C   UNL     1       0.357  -1.237   0.000  0.00  0.00    +0.000 A 
ATOM      3  C   UNL     1       0.357  -2.062   0.000  0.00  0.00    +0.000 A 
ATOM      4  C   UNL     1      -0.357  -2.475   0.000  0.00  0.00    +0.000 A 
ATOM      5  C   UNL     1      -1.072  -2.062   0.000  0.00  0.00    +0.000 A 
ATOM      6  C   UNL     1      -1.072  -1.237   0.000  0.00  0.00    +0.000 A 
ATOM      7 BR   UNL     1      -0.357   0.000   0.000  0.00  0.00    +0.000 Br
ATOM      8 BR   UNL     1      -1.786  -2.475   0.000  0.00  0.00    +0.000 Br
ENDROOT
BRANCH   3  11
ATOM      9  C   UNL     1       1.786  -2.062   0.000  0.00  0.00    +0.000 C 
ATOM     10  O   UNL     1       1.786  -1.237   0.000  0.00  0.00    +0.000 OA
ATOM     11  N   UNL     1       1.072  -2.475   0.000  0.00  0.00    +0.000 NA
BRANCH   9  12
ATOM     12  C   UNL     1       2.501  -2.475   0.000  0.00  0.00    +0.000 C 
BRANCH  12  13
ATOM     13  C   UNL     1       3.215  -2.062   0.000  0.00  0.00    +0.000 C 
ATOM     14  O   UNL     1       3.930  -2.475   0.000  0.00  0.00    +0.000 OA
ATOM     15  O   UNL     1       3.215  -1.237   0.000  0.00  0.00    +0.000 OA
ENDBRANCH  12  13
ENDBRANCH   9  12
ENDBRANCH   3  11
BRANCH   6  16
ATOM     16  O   UNL     1      -1.786  -0.825   0.000  0.00  0.00    +0.000 OA
BRANCH  16  17
ATOM     17  C   UNL     1      -1.786   0.000   0.000  0.00  0.00    +0.000 A 
ATOM     18  C   UNL     1      -1.072   1.238   0.000  0.00  0.00    +0.000 A 
ATOM     19  C   UNL     1      -1.786   1.650   0.000  0.00  0.00    +0.000 A 
ATOM     20  C   UNL     1      -2.501   1.238   0.000  0.00  0.00    +0.000 A 
ATOM     21  C   UNL     1      -2.501   0.412   0.000  0.00  0.00    +0.000 A 
ATOM     22  C   UNL     1      -1.072   0.412   0.000  0.00  0.00    +0.000 A 
ATOM     23  O   UNL     1      -1.786   2.475   0.000  0.00  0.00    +0.000 OA
BRANCH  20  24
ATOM     24  C   UNL     1      -3.215   1.650   0.000  0.00  0.00    +0.000 C 
ATOM     25  C   UNL     1      -3.930   1.238   0.000  0.00  0.00    +0.000 C 
ATOM     26  C   UNL     1      -3.215   2.475   0.000  0.00  0.00    +0.000 C 
ENDBRANCH  20  24
ENDBRANCH  16  17
ENDBRANCH   6  16
TORSDOF 6
