REMARK  Name = 
REMARK  3 active torsions:
REMARK  status: ('A' for Active; 'I' for Inactive)
REMARK    1  A    between atoms: S_1  and  C_14
REMARK    2  A    between atoms: C_9  and  C_13
REMARK    3  A    between atoms: C_10  and  C_14
REMARK                            x       y       z     vdW  Elec       q    Type
REMARK                         _______ _______ _______ _____ _____    ______ ____
ROOT
ATOM      1  O   UNL     1       1.957  -0.442   0.000  0.00  0.00    +0.000 OA
ATOM      2  O   UNL     1       1.960   1.353   0.000  0.00  0.00    +0.000 OA
ATOM      3  N   UNL     1       0.022   0.459   0.000  0.00  0.00    +0.000 N 
ATOM      4  C   UNL     1       0.505  -0.209   0.000  0.00  0.00    +0.000 C 
ATOM      5  C   UNL     1       0.508   1.125   0.000  0.00  0.00    +0.000 C 
ATOM      6  C   UNL     1       1.290   0.044   0.000  0.00  0.00    +0.000 C 
ATOM      7  C   UNL     1       1.292   0.869   0.000  0.00  0.00    +0.000 C 
ATOM      8  H   UNL     1      -0.392   0.760   0.000  0.00  0.00    +0.000 HD
ATOM      9  H   UNL     1      -0.393   0.159   0.000  0.00  0.00    +0.000 HD
ENDROOT
BRANCH   4  14
ATOM     10  O   UNL     1      -1.246  -3.308   0.000  0.00  0.00    +0.000 OA
ATOM     11  N   UNL     1       0.249  -2.321   0.000  0.00  0.00    +0.000 N 
ATOM     12  N   UNL     1      -1.246  -0.833   0.000  0.00  0.00    +0.000 N 
ATOM     13  N   UNL     1      -1.960  -2.070   0.000  0.00  0.00    +0.000 NA
ATOM     14  C   UNL     1       0.249  -0.994   0.000  0.00  0.00    +0.000 A 
ATOM     15  C   UNL     1      -0.531  -1.245   0.000  0.00  0.00    +0.000 A 
ATOM     16  C   UNL     1       0.731  -1.657   0.000  0.00  0.00    +0.000 A 
ATOM     17  C   UNL     1      -0.531  -2.070   0.000  0.00  0.00    +0.000 A 
ATOM     18  C   UNL     1      -1.246  -2.482   0.000  0.00  0.00    +0.000 A 
ATOM     19  C   UNL     1      -1.960  -1.245   0.000  0.00  0.00    +0.000 A 
ATOM     20  H   UNL     1       0.408  -2.808   0.000  0.00  0.00    +0.000 HD
ATOM     21  H   UNL     1      -1.246  -0.321   0.000  0.00  0.00    +0.000 HD
ENDBRANCH   4  14
BRANCH   5  22
ATOM     22  C   UNL     1       0.254   1.910   0.000  0.00  0.00    +0.000 C 
BRANCH  22  23
ATOM     23  S   UNL     1       0.807   2.522   0.000  0.00  0.00    +0.000 S 
ATOM     24  C   UNL     1       0.554   3.308   0.000  0.00  0.00    +0.000 C 
ENDBRANCH  22  23
ENDBRANCH   5  22
TORSDOF 3
