REMARK  Name = 
REMARK  6 active torsions:
REMARK  status: ('A' for Active; 'I' for Inactive)
REMARK    1  A    between atoms: C_2  and  C_17
REMARK    2  A    between atoms: N_3  and  C_4
REMARK    3  A    between atoms: C_7  and  C_10
REMARK    4  A    between atoms: C_10  and  C_15
REMARK    5  A    between atoms: N_23  and  C_24
REMARK    6  A    between atoms: C_24  and  C_25
REMARK                            x       y       z     vdW  Elec       q    Type
REMARK                         _______ _______ _______ _____ _____    ______ ____
ROOT
ATOM      1  O   UNL     1       5.971   2.727   0.000  0.00  0.00    +0.000 OA
ATOM      2  C   UNL     1       5.163   2.555   0.000  0.00  0.00    +0.000 C 
ATOM      3  N   UNL     1       4.909   1.771   0.000  0.00  0.00    +0.000 NA
ENDROOT
BRANCH   2   4
ATOM      4  C   UNL     1       4.612   3.168   0.000  0.00  0.00    +0.000 A 
ATOM      5  C   UNL     1       3.804   2.997   0.000  0.00  0.00    +0.000 A 
ATOM      6  C   UNL     1       3.252   3.610   0.000  0.00  0.00    +0.000 A 
ATOM      7  C   UNL     1       3.507   4.395   0.000  0.00  0.00    +0.000 A 
ATOM      8  N   UNL     1       4.314   4.566   0.000  0.00  0.00    +0.000 NA
ATOM      9  C   UNL     1       4.866   3.953   0.000  0.00  0.00    +0.000 A 
ATOM     10  N   UNL     1       5.673   4.125   0.000  0.00  0.00    +0.000 NA
BRANCH  10  11
ATOM     11  C   UNL     1       5.928   4.909   0.000  0.00  0.00    +0.000 C 
BRANCH  11  12
ATOM     12  C   UNL     1       6.735   5.081   0.000  0.00  0.00    +0.000 A 
ATOM     13  C   UNL     1       6.990   5.865   0.000  0.00  0.00    +0.000 A 
ATOM     14  C   UNL     1       7.797   6.037   0.000  0.00  0.00    +0.000 A 
ATOM     15  N   UNL     1       8.349   5.424   0.000  0.00  0.00    +0.000 NA
ATOM     16  C   UNL     1       8.094   4.639   0.000  0.00  0.00    +0.000 A 
ATOM     17  C   UNL     1       7.287   4.468   0.000  0.00  0.00    +0.000 A 
ENDBRANCH  11  12
ENDBRANCH  10  11
ENDBRANCH   2   4
BRANCH   3  18
ATOM     18  C   UNL     1       5.461   1.158   0.000  0.00  0.00    +0.000 A 
ATOM     19  C   UNL     1       6.268   1.329   0.000  0.00  0.00    +0.000 A 
ATOM     20  C   UNL     1       6.820   0.716   0.000  0.00  0.00    +0.000 A 
ATOM     21  C   UNL     1       6.565  -0.069   0.000  0.00  0.00    +0.000 A 
ATOM     22  C   UNL     1       5.758  -0.240   0.000  0.00  0.00    +0.000 A 
ATOM     23  C   UNL     1       5.206   0.373   0.000  0.00  0.00    +0.000 A 
BRANCH  21  24
ATOM     24  C   UNL     1       7.117  -0.682   0.000  0.00  0.00    +0.000 C 
ATOM     25  C   UNL     1       7.784  -1.167   0.000  0.00  0.00    +0.000 C 
ATOM     26  C   UNL     1       7.529  -1.951   0.000  0.00  0.00    +0.000 C 
ATOM     27  C   UNL     1       6.704  -1.951   0.000  0.00  0.00    +0.000 C 
ATOM     28  C   UNL     1       6.449  -1.167   0.000  0.00  0.00    +0.000 C 
BRANCH  24  29
ATOM     29  C   UNL     1       7.669  -0.069   0.000  0.00  0.00    +0.000 C 
ATOM     30  N   UNL     1       8.221   0.545   0.000  0.00  0.00    +0.000 NA
ENDBRANCH  24  29
ENDBRANCH  21  24
ENDBRANCH   3  18
TORSDOF 6
