REMARK  Name = 
REMARK  6 active torsions:
REMARK  status: ('A' for Active; 'I' for Inactive)
REMARK    1  A    between atoms: C_1  and  C_4
REMARK    2  A    between atoms: C_6  and  N_21
REMARK    3  A    between atoms: C_7  and  N_8
REMARK    4  A    between atoms: C_12  and  C_14
REMARK    5  A    between atoms: N_16  and  C_18
REMARK    6  A    between atoms: C_18  and  C_19
REMARK                            x       y       z     vdW  Elec       q    Type
REMARK                         _______ _______ _______ _____ _____    ______ ____
ROOT
ATOM      1  C   UNL     1      -0.714  -1.237   0.000  0.00  0.00    +0.000 C 
ATOM      2  C   UNL     1      -1.429  -0.825   0.000  0.00  0.00    +0.000 C 
ATOM      3  C   UNL     1      -1.429   0.000   0.000  0.00  0.00    +0.000 C 
ATOM      4  C   UNL     1      -0.714   0.412   0.000  0.00  0.00    +0.000 C 
ATOM      5  C   UNL     1       0.000   0.000   0.000  0.00  0.00    +0.000 C 
ATOM      6  O   UNL     1       0.000  -0.825   0.000  0.00  0.00    +0.000 OA
ENDROOT
BRANCH   5   7
ATOM      7  C   UNL     1       0.714   0.412   0.000  0.00  0.00    +0.000 C 
ATOM      8  O   UNL     1       0.714   1.238   0.000  0.00  0.00    +0.000 OA
ATOM      9  N   UNL     1       1.429   0.000   0.000  0.00  0.00    +0.000 N 
ATOM     10  C   UNL     1       1.429  -0.825   0.000  0.00  0.00    +0.000 C 
BRANCH   9  11
ATOM     11  C   UNL     1       2.143   0.412   0.000  0.00  0.00    +0.000 C 
BRANCH  11  12
ATOM     12  C   UNL     1       2.858   0.000   0.000  0.00  0.00    +0.000 C 
ATOM     13  C   UNL     1       3.572   0.412   0.000  0.00  0.00    +0.000 C 
ENDBRANCH  11  12
ENDBRANCH   9  11
ENDBRANCH   5   7
BRANCH   4  14
ATOM     14  N   UNL     1      -0.714   1.238   0.000  0.00  0.00    +0.000 NA
ATOM     15  C   UNL     1      -1.429   1.650   0.000  0.00  0.00    +0.000 C 
ATOM     16  O   UNL     1      -2.143   1.238   0.000  0.00  0.00    +0.000 OA
ATOM     17  C   UNL     1      -1.429   2.475   0.000  0.00  0.00    +0.000 C 
ENDBRANCH   4  14
BRANCH   3  18
ATOM     18  N   UNL     1      -2.143   0.412   0.000  0.00  0.00    +0.000 NA
ATOM     19  C   UNL     1      -2.858   0.000   0.000  0.00  0.00    +0.000 C 
ATOM     20  N   UNL     1      -2.858  -0.825   0.000  0.00  0.00    +0.000 NA
ATOM     21  N   UNL     1      -3.572   0.412   0.000  0.00  0.00    +0.000 NA
ENDBRANCH   3  18
BRANCH   1  22
ATOM     22  C   UNL     1      -0.714  -2.062   0.000  0.00  0.00    +0.000 C 
ATOM     23  O   UNL     1      -1.429  -2.475   0.000  0.00  0.00    +0.000 OA
ATOM     24  O   UNL     1       0.000  -2.475   0.000  0.00  0.00    +0.000 OA
ENDBRANCH   1  22
TORSDOF 6
