REMARK  Name = 
REMARK  27 active torsions:
REMARK  status: ('A' for Active; 'I' for Inactive)
REMARK    1  A    between atoms: O_1  and  C_25
REMARK    2  A    between atoms: O_1  and  C_37
REMARK    3  A    between atoms: O_2  and  C_26
REMARK    4  A    between atoms: O_2  and  C_38
REMARK    5  A    between atoms: O_3  and  C_27
REMARK    6  A    between atoms: O_3  and  C_39
REMARK    7  A    between atoms: N_7  and  C_55
REMARK    8  A    between atoms: N_8  and  C_56
REMARK    9  A    between atoms: N_9  and  C_57
REMARK   10  A    between atoms: C_13  and  C_16
REMARK   11  A    between atoms: C_13  and  C_19
REMARK   12  A    between atoms: C_13  and  C_25
REMARK   13  A    between atoms: C_14  and  C_17
REMARK   14  A    between atoms: C_14  and  C_20
REMARK   15  A    between atoms: C_14  and  C_26
REMARK   16  A    between atoms: C_15  and  C_18
REMARK   17  A    between atoms: C_15  and  C_21
REMARK   18  A    between atoms: C_15  and  C_27
REMARK   19  A    between atoms: C_16  and  C_22
REMARK   20  A    between atoms: C_17  and  C_23
REMARK   21  A    between atoms: C_18  and  C_24
REMARK   22  A    between atoms: C_22  and  C_28
REMARK   23  A    between atoms: C_23  and  C_29
REMARK   24  A    between atoms: C_24  and  C_30
REMARK   25  A    between atoms: C_37  and  C_40
REMARK   26  A    between atoms: C_38  and  C_41
REMARK   27  A    between atoms: C_39  and  C_42
REMARK                            x       y       z     vdW  Elec       q    Type
REMARK                         _______ _______ _______ _____ _____    ______ ____
ROOT
ATOM      1  N   UNL     1      -0.865  -1.292   0.000  0.00  0.00    +0.000 N 
ATOM      2  N   UNL     1      -0.865  -4.150   0.000  0.00  0.00    +0.000 N 
ATOM      3  N   UNL     1      -3.340  -2.721   0.000  0.00  0.00    +0.000 N 
ATOM      4  N   UNL     1      -0.865  -2.721   0.000  0.00  0.00    +0.000 NA
ATOM      5  N   UNL     1      -2.102  -2.007   0.000  0.00  0.00    +0.000 NA
ATOM      6  N   UNL     1      -2.102  -3.436   0.000  0.00  0.00    +0.000 NA
ATOM      7  C   UNL     1      -1.277  -2.007   0.000  0.00  0.00    +0.000 A 
ATOM      8  C   UNL     1      -1.277  -3.436   0.000  0.00  0.00    +0.000 A 
ATOM      9  C   UNL     1      -2.515  -2.721   0.000  0.00  0.00    +0.000 A 
ATOM     10  H   UNL     1      -1.121  -0.849   0.000  0.00  0.00    +0.000 HD
ATOM     11  H   UNL     1      -1.121  -4.593   0.000  0.00  0.00    +0.000 HD
ATOM     12  H   UNL     1      -3.595  -3.164   0.000  0.00  0.00    +0.000 HD
ENDROOT
BRANCH   3  18
ATOM     13  C   UNL     1      -4.577  -0.578   0.000  0.00  0.00    +0.000 A 
ATOM     14  C   UNL     1      -3.752  -0.578   0.000  0.00  0.00    +0.000 A 
ATOM     15  C   UNL     1      -4.990  -1.292   0.000  0.00  0.00    +0.000 A 
ATOM     16  C   UNL     1      -3.340  -1.292   0.000  0.00  0.00    +0.000 A 
ATOM     17  C   UNL     1      -4.577  -2.007   0.000  0.00  0.00    +0.000 A 
ATOM     18  C   UNL     1      -3.752  -2.007   0.000  0.00  0.00    +0.000 A 
BRANCH  13  20
ATOM     19  O   UNL     1      -4.577   0.851   0.000  0.00  0.00    +0.000 OA
ATOM     20  C   UNL     1      -4.990   0.137   0.000  0.00  0.00    +0.000 C 
BRANCH  20  21
ATOM     21  O   UNL     1      -5.815   0.137   0.000  0.00  0.00    +0.000 OA
BRANCH  21  22
ATOM     22  C   UNL     1      -6.227   0.851   0.000  0.00  0.00    +0.000 C 
BRANCH  22  23
ATOM     23  C   UNL     1      -7.053   0.851   0.000  0.00  0.00    +0.000 C 
BRANCH  23  24
ATOM     24  C   UNL     1      -7.465   0.137   0.000  0.00  0.00    +0.000 C 
ATOM     25  C   UNL     1      -8.290   0.137   0.000  0.00  0.00    +0.000 C 
ENDBRANCH  23  24
BRANCH  23  26
ATOM     26  C   UNL     1      -7.465   1.566   0.000  0.00  0.00    +0.000 C 
BRANCH  26  27
ATOM     27  C   UNL     1      -8.290   1.566   0.000  0.00  0.00    +0.000 C 
BRANCH  27  28
ATOM     28  C   UNL     1      -8.703   2.280   0.000  0.00  0.00    +0.000 C 
ATOM     29  C   UNL     1      -9.527   2.280   0.000  0.00  0.00    +0.000 C 
ENDBRANCH  27  28
ENDBRANCH  26  27
ENDBRANCH  23  26
ENDBRANCH  22  23
ENDBRANCH  21  22
ENDBRANCH  20  21
ENDBRANCH  13  20
ENDBRANCH   3  18
BRANCH   2  35
ATOM     30  C   UNL     1       1.610  -4.150   0.000  0.00  0.00    +0.000 A 
ATOM     31  C   UNL     1       1.198  -4.865   0.000  0.00  0.00    +0.000 A 
ATOM     32  C   UNL     1       1.198  -3.436   0.000  0.00  0.00    +0.000 A 
ATOM     33  C   UNL     1       0.373  -4.865   0.000  0.00  0.00    +0.000 A 
ATOM     34  C   UNL     1       0.373  -3.436   0.000  0.00  0.00    +0.000 A 
ATOM     35  C   UNL     1      -0.040  -4.150   0.000  0.00  0.00    +0.000 A 
BRANCH  30  37
ATOM     36  O   UNL     1       2.848  -3.436   0.000  0.00  0.00    +0.000 OA
ATOM     37  C   UNL     1       2.435  -4.150   0.000  0.00  0.00    +0.000 C 
BRANCH  37  38
ATOM     38  O   UNL     1       2.848  -4.865   0.000  0.00  0.00    +0.000 OA
BRANCH  38  39
ATOM     39  C   UNL     1       3.673  -4.865   0.000  0.00  0.00    +0.000 C 
BRANCH  39  40
ATOM     40  C   UNL     1       4.085  -5.579   0.000  0.00  0.00    +0.000 C 
BRANCH  40  41
ATOM     41  C   UNL     1       3.673  -6.294   0.000  0.00  0.00    +0.000 C 
ATOM     42  C   UNL     1       4.085  -7.008   0.000  0.00  0.00    +0.000 C 
ENDBRANCH  40  41
BRANCH  40  43
ATOM     43  C   UNL     1       4.910  -5.579   0.000  0.00  0.00    +0.000 C 
BRANCH  43  44
ATOM     44  C   UNL     1       5.323  -6.294   0.000  0.00  0.00    +0.000 C 
BRANCH  44  45
ATOM     45  C   UNL     1       6.148  -6.294   0.000  0.00  0.00    +0.000 C 
ATOM     46  C   UNL     1       6.560  -7.008   0.000  0.00  0.00    +0.000 C 
ENDBRANCH  44  45
ENDBRANCH  43  44
ENDBRANCH  40  43
ENDBRANCH  39  40
ENDBRANCH  38  39
ENDBRANCH  37  38
ENDBRANCH  30  37
ENDBRANCH   2  35
BRANCH   1  52
ATOM     47  C   UNL     1       1.610  -1.292   0.000  0.00  0.00    +0.000 A 
ATOM     48  C   UNL     1       1.198  -2.007   0.000  0.00  0.00    +0.000 A 
ATOM     49  C   UNL     1       1.198  -0.578   0.000  0.00  0.00    +0.000 A 
ATOM     50  C   UNL     1       0.373  -2.007   0.000  0.00  0.00    +0.000 A 
ATOM     51  C   UNL     1       0.373  -0.578   0.000  0.00  0.00    +0.000 A 
ATOM     52  C   UNL     1      -0.040  -1.292   0.000  0.00  0.00    +0.000 A 
BRANCH  47  54
ATOM     53  O   UNL     1       2.848  -2.007   0.000  0.00  0.00    +0.000 OA
ATOM     54  C   UNL     1       2.435  -1.292   0.000  0.00  0.00    +0.000 C 
BRANCH  54  55
ATOM     55  O   UNL     1       2.848  -0.578   0.000  0.00  0.00    +0.000 OA
BRANCH  55  56
ATOM     56  C   UNL     1       3.673  -0.578   0.000  0.00  0.00    +0.000 C 
BRANCH  56  57
ATOM     57  C   UNL     1       4.085   0.137   0.000  0.00  0.00    +0.000 C 
BRANCH  57  58
ATOM     58  C   UNL     1       3.673   0.851   0.000  0.00  0.00    +0.000 C 
ATOM     59  C   UNL     1       4.085   1.565   0.000  0.00  0.00    +0.000 C 
ENDBRANCH  57  58
BRANCH  57  60
ATOM     60  C   UNL     1       4.910   0.137   0.000  0.00  0.00    +0.000 C 
BRANCH  60  61
ATOM     61  C   UNL     1       5.323   0.851   0.000  0.00  0.00    +0.000 C 
BRANCH  61  62
ATOM     62  C   UNL     1       6.148   0.851   0.000  0.00  0.00    +0.000 C 
ATOM     63  C   UNL     1       6.560   1.565   0.000  0.00  0.00    +0.000 C 
ENDBRANCH  61  62
ENDBRANCH  60  61
ENDBRANCH  57  60
ENDBRANCH  56  57
ENDBRANCH  55  56
ENDBRANCH  54  55
ENDBRANCH  47  54
ENDBRANCH   1  52
TORSDOF 27
