REMARK  Name = 
REMARK  20 active torsions:
REMARK  status: ('A' for Active; 'I' for Inactive)
REMARK    1  A    between atoms: C_1  and  C_2
REMARK    2  A    between atoms: C_1  and  C_9
REMARK    3  A    between atoms: C_1  and  N_38
REMARK    4  A    between atoms: C_2  and  C_3
REMARK    5  A    between atoms: N_10  and  C_11
REMARK    6  A    between atoms: C_11  and  C_12
REMARK    7  A    between atoms: C_11  and  C_33
REMARK    8  A    between atoms: N_13  and  C_14
REMARK    9  A    between atoms: C_14  and  C_15
REMARK   10  A    between atoms: C_14  and  C_25
REMARK   11  A    between atoms: N_16  and  C_17
REMARK   12  A    between atoms: C_17  and  C_18
REMARK   13  A    between atoms: C_25  and  C_26
REMARK   14  A    between atoms: C_26  and  C_27
REMARK   15  A    between atoms: C_27  and  N_28
REMARK   16  A    between atoms: C_33  and  C_34
REMARK   17  A    between atoms: C_34  and  C_35
REMARK   18  A    between atoms: C_39  and  C_40
REMARK   19  A    between atoms: C_40  and  C_41
REMARK   20  A    between atoms: C_41  and  C_42
REMARK                            x       y       z     vdW  Elec       q    Type
REMARK                         _______ _______ _______ _____ _____    ______ ____
ROOT
ATOM      1  C   UNL     1       0.002   0.215   0.000  0.00  0.00    +0.000 C 
ENDROOT
BRANCH   1   2
ATOM      2  C   UNL     1       0.712  -0.203   0.000  0.00  0.00    +0.000 C 
ATOM      3  N   UNL     1       1.421   0.215   0.000  0.00  0.00    +0.000 NA
ATOM      4  O   UNL     1       0.712  -1.042   0.000  0.00  0.00    +0.000 OA
BRANCH   3   5
ATOM      5  C   UNL     1       2.131  -0.203   0.000  0.00  0.00    +0.000 C 
BRANCH   5   6
ATOM      6  C   UNL     1       2.841   0.215   0.000  0.00  0.00    +0.000 C 
ATOM      7  N   UNL     1       3.550  -0.203   0.000  0.00  0.00    +0.000 NA
ATOM      8  O   UNL     1       2.841   1.055   0.000  0.00  0.00    +0.000 OA
BRANCH   7   9
ATOM      9  C   UNL     1       4.260   0.215   0.000  0.00  0.00    +0.000 C 
BRANCH   9  10
ATOM     10  C   UNL     1       4.972  -0.203   0.000  0.00  0.00    +0.000 A 
ATOM     11  C   UNL     1       4.972  -1.042   0.000  0.00  0.00    +0.000 A 
ATOM     12  C   UNL     1       5.682  -1.463   0.000  0.00  0.00    +0.000 A 
ATOM     13  N   UNL     1       6.391  -1.042   0.000  0.00  0.00    +0.000 NA
ATOM     14  C   UNL     1       6.391  -0.203   0.000  0.00  0.00    +0.000 A 
ATOM     15  C   UNL     1       5.682   0.215   0.000  0.00  0.00    +0.000 A 
ENDBRANCH   9  10
ENDBRANCH   7   9
ENDBRANCH   5   6
BRANCH   5  16
ATOM     16  C   UNL     1       2.131  -1.727   0.000  0.00  0.00    +0.000 C 
BRANCH  16  17
ATOM     17  C   UNL     1       1.421  -2.146   0.000  0.00  0.00    +0.000 C 
BRANCH  17  18
ATOM     18  C   UNL     1       0.718  -1.713   0.000  0.00  0.00    +0.000 C 
BRANCH  18  19
ATOM     19  N   UNL     1       0.008  -2.133   0.000  0.00  0.00    +0.000 NA
ATOM     20  C   UNL     1      -0.693  -1.700   0.000  0.00  0.00    +0.000 C 
ATOM     21  N   UNL     1      -0.693  -0.861   0.000  0.00  0.00    +0.000 NA
ATOM     22  N   UNL     1      -1.403  -2.121   0.000  0.00  0.00    +0.000 NA
ENDBRANCH  18  19
ENDBRANCH  17  18
ENDBRANCH  16  17
ENDBRANCH   5  16
ENDBRANCH   3   5
ENDBRANCH   1   2
BRANCH   1  24
ATOM     23  C   UNL     1      -1.417   0.215   0.000  0.00  0.00    +0.000 C 
ATOM     24  N   UNL     1      -0.708  -0.203   0.000  0.00  0.00    +0.000 NA
ATOM     25  O   UNL     1      -1.417   1.055   0.000  0.00  0.00    +0.000 OA
BRANCH  23  26
ATOM     26  C   UNL     1      -2.127  -0.203   0.000  0.00  0.00    +0.000 C 
BRANCH  26  27
ATOM     27  N   UNL     1      -2.845   0.203   0.000  0.00  0.00    +0.000 NA
ATOM     28  C   UNL     1      -2.845   1.042   0.000  0.00  0.00    +0.000 C 
ATOM     29  O   UNL     1      -2.133   1.463   0.000  0.00  0.00    +0.000 OA
BRANCH  28  30
ATOM     30  C   UNL     1      -3.553   1.463   0.000  0.00  0.00    +0.000 C 
ATOM     31  N   UNL     1      -3.553   2.302   0.000  0.00  0.00    +0.000 NA
BRANCH  30  32
ATOM     32  C   UNL     1      -4.262   1.042   0.000  0.00  0.00    +0.000 C 
BRANCH  32  33
ATOM     33  C   UNL     1      -4.972   1.463   0.000  0.00  0.00    +0.000 A 
ATOM     34  C   UNL     1      -4.972   2.302   0.000  0.00  0.00    +0.000 A 
ATOM     35  C   UNL     1      -5.682   2.720   0.000  0.00  0.00    +0.000 A 
ATOM     36  C   UNL     1      -6.391   2.302   0.000  0.00  0.00    +0.000 A 
ATOM     37  C   UNL     1      -6.391   1.463   0.000  0.00  0.00    +0.000 A 
ATOM     38  C   UNL     1      -5.682   1.042   0.000  0.00  0.00    +0.000 A 
ENDBRANCH  32  33
ENDBRANCH  30  32
ENDBRANCH  28  30
ENDBRANCH  26  27
BRANCH  26  39
ATOM     39  C   UNL     1      -2.127  -1.042   0.000  0.00  0.00    +0.000 C 
BRANCH  39  40
ATOM     40  C   UNL     1      -2.837  -1.463   0.000  0.00  0.00    +0.000 A 
ATOM     41  C   UNL     1      -2.837  -2.302   0.000  0.00  0.00    +0.000 A 
ATOM     42  C   UNL     1      -3.549  -2.720   0.000  0.00  0.00    +0.000 A 
ATOM     43  C   UNL     1      -4.256  -2.302   0.000  0.00  0.00    +0.000 A 
ATOM     44  C   UNL     1      -4.256  -1.463   0.000  0.00  0.00    +0.000 A 
ATOM     45  C   UNL     1      -3.549  -1.042   0.000  0.00  0.00    +0.000 A 
ENDBRANCH  39  40
ENDBRANCH  26  39
ENDBRANCH  23  26
ENDBRANCH   1  24
BRANCH   1  46
ATOM     46  C   UNL     1       0.002   1.098   0.000  0.00  0.00    +0.000 C 
BRANCH  46  47
ATOM     47  C   UNL     1       0.712   1.519   0.000  0.00  0.00    +0.000 C 
BRANCH  47  48
ATOM     48  C   UNL     1       1.421   1.098   0.000  0.00  0.00    +0.000 C 
ATOM     49  C   UNL     1       2.131   1.519   0.000  0.00  0.00    +0.000 C 
ENDBRANCH  47  48
ENDBRANCH  46  47
ENDBRANCH   1  46
TORSDOF 20
