REMARK  Name = 
REMARK  10 active torsions:
REMARK  status: ('A' for Active; 'I' for Inactive)
REMARK    1  A    between atoms: C_2  and  C_13
REMARK    2  A    between atoms: N_5  and  C_6
REMARK    3  A    between atoms: C_6  and  C_7
REMARK    4  A    between atoms: C_13  and  C_14
REMARK    5  A    between atoms: C_14  and  N_16
REMARK    6  A    between atoms: C_14  and  C_23
REMARK    7  A    between atoms: N_16  and  C_17
REMARK    8  A    between atoms: C_17  and  C_18
REMARK    9  A    between atoms: C_17  and  C_24
REMARK   10  A    between atoms: C_24  and  C_25
REMARK                            x       y       z     vdW  Elec       q    Type
REMARK                         _______ _______ _______ _____ _____    ______ ____
ROOT
ATOM      1  C   UNK     1      -1.255   1.552   0.000  0.00  0.00    +0.000 A 
ATOM      2  C   UNK     1      -0.177   0.772   0.000  0.00  0.00    +0.000 A 
ATOM      3  C   UNK     1       0.080   1.552   0.000  0.00  0.00    +0.000 A 
ATOM      4  N   UNK     1      -0.587   2.043   0.000  0.00  0.00    +0.000 NA
ATOM      5  N   UNK     1      -1.005   0.772   0.000  0.00  0.00    +0.000 N 
ENDROOT
BRANCH   5   6
ATOM      6  C   UNK     1      -1.488   0.104   0.000  0.00  0.00    +0.000 C 
BRANCH   6   7
ATOM      7  C   UNK     1      -2.308   0.185   0.000  0.00  0.00    +0.000 A 
ATOM      8  C   UNK     1      -3.579   0.845   0.000  0.00  0.00    +0.000 A 
ATOM      9  C   UNK     1      -3.957   0.113   0.000  0.00  0.00    +0.000 A 
ATOM     10  C   UNK     1      -3.515  -0.579   0.000  0.00  0.00    +0.000 A 
ATOM     11  C   UNK     1      -2.694  -0.547   0.000  0.00  0.00    +0.000 A 
ATOM     12  C   UNK     1      -2.751   0.885   0.000  0.00  0.00    +0.000 A 
ATOM     13 CL   UNK     1      -4.021   1.544   0.000  0.00  0.00    +0.000 Cl
ATOM     14 CL   UNK     1      -3.893  -1.311   0.000  0.00  0.00    +0.000 Cl
ENDBRANCH   6   7
ENDBRANCH   5   6
BRANCH   2  15
ATOM     15  C   UNK     1       0.306   0.104   0.000  0.00  0.00    +0.000 C 
BRANCH  15  16
ATOM     16  C   UNK     1       1.134   0.104   0.000  0.00  0.00    +0.000 C 
BRANCH  16  18
ATOM     17  O   UNK     1       0.764   1.480   0.000  0.00  0.00    +0.000 OA
ATOM     18  C   UNK     1       1.343   0.901   0.000  0.00  0.00    +0.000 C 
ATOM     19  O   UNK     1       2.139   1.110   0.000  0.00  0.00    +0.000 OA
ENDBRANCH  16  18
BRANCH  16  20
ATOM     20  N   UNK     1       1.544  -0.611   0.000  0.00  0.00    +0.000 NA
BRANCH  20  21
ATOM     21  C   UNK     1       2.373  -0.611   0.000  0.00  0.00    +0.000 C 
BRANCH  21  22
ATOM     22  C   UNK     1       2.783  -1.327   0.000  0.00  0.00    +0.000 C 
ATOM     23  O   UNK     1       2.373  -2.043   0.000  0.00  0.00    +0.000 OA
ATOM     24  O   UNK     1       3.611  -1.327   0.000  0.00  0.00    +0.000 OA
ENDBRANCH  21  22
BRANCH  21  25
ATOM     25  C   UNK     1       2.783   0.104   0.000  0.00  0.00    +0.000 C 
BRANCH  25  26
ATOM     26  C   UNK     1       3.611   0.104   0.000  0.00  0.00    +0.000 C 
ATOM     27  C   UNK     1       4.021   0.820   0.000  0.00  0.00    +0.000 C 
ATOM     28  C   UNK     1       4.021  -0.611   0.000  0.00  0.00    +0.000 C 
ENDBRANCH  25  26
ENDBRANCH  21  25
ENDBRANCH  20  21
ENDBRANCH  16  20
ENDBRANCH  15  16
ENDBRANCH   2  15
TORSDOF 10
