REMARK  Name = 
REMARK  2 active torsions:
REMARK  status: ('A' for Active; 'I' for Inactive)
REMARK    1  A    between atoms: C_1  and  C_2
REMARK    2  A    between atoms: C_2  and  N_5
REMARK                            x       y       z     vdW  Elec       q    Type
REMARK                         _______ _______ _______ _____ _____    ______ ____
ROOT
ATOM      1  C   UNL     1      -0.160  -0.175   0.000  0.00  0.00    +0.000 C 
ATOM      2  C   UNL     1      -0.475  -0.938   0.000  0.00  0.00    +0.000 C 
ATOM      3  N   UNL     1      -0.475   0.587   0.000  0.00  0.00    +0.000 NA
ATOM      4  C   UNL     1      -1.238  -1.253   0.000  0.00  0.00    +0.000 C 
ATOM      5  C   UNL     1      -1.238   0.902   0.000  0.00  0.00    +0.000 C 
ATOM      6  C   UNL     1      -2.000  -0.938   0.000  0.00  0.00    +0.000 C 
ATOM      7  C   UNL     1      -2.000   0.587   0.000  0.00  0.00    +0.000 C 
ATOM      8  C   UNL     1      -2.315  -0.175   0.000  0.00  0.00    +0.000 C 
ENDROOT
BRANCH   1   9
ATOM      9  C   UNL     1       0.665  -0.175   0.000  0.00  0.00    +0.000 C 
BRANCH   9  10
ATOM     10  N   UNL     1       1.078   0.539   0.000  0.00  0.00    +0.000 NA
ATOM     11  C   UNL     1       1.903   0.539   0.000  0.00  0.00    +0.000 C 
ATOM     12  N   UNL     1       2.315   1.253   0.000  0.00  0.00    +0.000 NA
ATOM     13  N   UNL     1       2.315  -0.175   0.000  0.00  0.00    +0.000 NA
ENDBRANCH   9  10
ENDBRANCH   1   9
TORSDOF 2
