REMARK  Name = 
REMARK  4 active torsions:
REMARK  status: ('A' for Active; 'I' for Inactive)
REMARK    1  A    between atoms: C_54  and  O_57
REMARK    2  A    between atoms: C_55  and  C_58
REMARK    3  A    between atoms: C_58  and  C_59
REMARK    4  A    between atoms: C_59  and  C_60
REMARK                            x       y       z     vdW  Elec       q    Type
REMARK                         _______ _______ _______ _____ _____    ______ ____
ROOT
ATOM      1  C   UNL     1      -0.948   1.473   0.000  0.00  0.00    +0.000 C 
ATOM      2  C   UNL     1      -0.948   2.288   0.000  0.00  0.00    +0.000 C 
ATOM      3  C   UNL     1      -0.218   2.717   0.000  0.00  0.00    +0.000 C 
ATOM      4  C   UNL     1       0.468   2.288   0.000  0.00  0.00    +0.000 C 
ATOM      5  C   UNL     1       1.197   2.717   0.000  0.00  0.00    +0.000 C 
ATOM      6  C   UNL     1       1.883   2.288   0.000  0.00  0.00    +0.000 C 
ATOM      7  C   UNL     1       2.612   2.717   0.000  0.00  0.00    +0.000 C 
ATOM      8  C   UNL     1       3.299   2.288   0.000  0.00  0.00    +0.000 C 
ATOM      9  C   UNL     1       3.299   1.473   0.000  0.00  0.00    +0.000 C 
ATOM     10  C   UNL     1       2.569   1.044   0.000  0.00  0.00    +0.000 C 
ATOM     11  C   UNL     1       2.569   0.229   0.000  0.00  0.00    +0.000 C 
ATOM     12  C   UNL     1       3.299  -0.199   0.000  0.00  0.00    +0.000 C 
ATOM     13  C   UNL     1       4.028   0.229   0.000  0.00  0.00    +0.000 C 
ATOM     14  O   UNL     1       4.028   1.044   0.000  0.00  0.00    +0.000 OA
ATOM     15  O   UNL     1       1.840  -0.199   0.000  0.00  0.00    +0.000 OA
ATOM     16  C   UNL     1       1.840  -1.057   0.000  0.00  0.00    +0.000 C 
ATOM     17  C   UNL     1       2.569  -1.443   0.000  0.00  0.00    +0.000 C 
ATOM     18  O   UNL     1       3.299  -1.057   0.000  0.00  0.00    +0.000 OA
ATOM     19  C   UNL     1       3.813  -1.443   0.000  0.00  0.00    +0.000 C 
ATOM     20  C   UNL     1       4.757  -0.199   0.000  0.00  0.00    +0.000 C 
ATOM     21  C   UNL     1       1.111  -1.443   0.000  0.00  0.00    +0.000 C 
ATOM     22  C   UNL     1       1.111  -2.301   0.000  0.00  0.00    +0.000 C 
ATOM     23  C   UNL     1       0.425  -2.687   0.000  0.00  0.00    +0.000 C 
ATOM     24  C   UNL     1       0.425  -3.545   0.000  0.00  0.00    +0.000 C 
ATOM     25  O   UNL     1      -0.304  -2.301   0.000  0.00  0.00    +0.000 OA
ATOM     26  C   UNL     1      -1.033  -2.730   0.000  0.00  0.00    +0.000 C 
ATOM     27  C   UNL     1      -1.762  -2.301   0.000  0.00  0.00    +0.000 C 
ATOM     28  C   UNL     1      -1.033  -3.545   0.000  0.00  0.00    +0.000 C 
ATOM     29  C   UNL     1      -1.762  -1.443   0.000  0.00  0.00    +0.000 C 
ATOM     30  C   UNL     1      -1.033  -1.057   0.000  0.00  0.00    +0.000 C 
ATOM     31  O   UNL     1      -1.033  -0.199   0.000  0.00  0.00    +0.000 OA
ATOM     32  C   UNL     1      -0.347  -1.443   0.000  0.00  0.00    +0.000 C 
ATOM     33  C   UNL     1       0.382  -1.057   0.000  0.00  0.00    +0.000 C 
ATOM     34  C   UNL     1       0.382  -0.199   0.000  0.00  0.00    +0.000 C 
ATOM     35  C   UNL     1      -0.304   0.229   0.000  0.00  0.00    +0.000 C 
ATOM     36  C   UNL     1      -0.304   1.044   0.000  0.00  0.00    +0.000 C 
ATOM     37  C   UNL     1       1.025   0.229   0.000  0.00  0.00    +0.000 C 
ATOM     38  O   UNL     1       0.468   1.473   0.000  0.00  0.00    +0.000 OA
ATOM     39  O   UNL     1       1.883   1.473   0.000  0.00  0.00    +0.000 OA
ATOM     40  O   UNL     1       2.569  -0.628   0.000  0.00  0.00    +0.000 OA
ATOM     41  C   UNL     1      -1.634  -4.103   0.000  0.00  0.00    +0.000 C 
ATOM     42  C   UNL     1      -1.722   2.540   0.000  0.00  0.00    +0.000 C 
ATOM     43  C   UNL     1      -2.201   1.881   0.000  0.00  0.00    +0.000 C 
ATOM     44  O   UNL     1      -1.722   1.221   0.000  0.00  0.00    +0.000 OA
ATOM     45  C   UNL     1       0.854  -0.714   0.000  0.00  0.00    +0.000 C 
ENDROOT
BRANCH  42  46
ATOM     46  O   UNL     1      -1.989   3.360   0.000  0.00  0.00    +0.000 OA
ATOM     47  C   UNL     1      -1.560   4.103   0.000  0.00  0.00    +0.000 C 
ENDBRANCH  42  46
BRANCH  43  48
ATOM     48  C   UNL     1      -3.049   1.880   0.000  0.00  0.00    +0.000 C 
BRANCH  48  49
ATOM     49  C   UNL     1      -3.469   2.607   0.000  0.00  0.00    +0.000 C 
ATOM     50  O   UNL     1      -3.051   3.332   0.000  0.00  0.00    +0.000 OA
BRANCH  49  51
ATOM     51  C   UNL     1      -4.335   2.607   0.000  0.00  0.00    +0.000 C 
ATOM     52  N   UNL     1      -4.757   3.336   0.000  0.00  0.00    +0.000 NA
ENDBRANCH  49  51
ENDBRANCH  48  49
ENDBRANCH  43  48
TORSDOF 4
