REMARK  Name = 
REMARK  6 active torsions:
REMARK  status: ('A' for Active; 'I' for Inactive)
REMARK    1  A    between atoms: C_1  and  N_7
REMARK    2  A    between atoms: C_2  and  C_28
REMARK    3  A    between atoms: C_8  and  C_10
REMARK    4  A    between atoms: C_11  and  S_15
REMARK    5  A    between atoms: S_15  and  N_16
REMARK    6  A    between atoms: N_16  and  C_17
REMARK                            x       y       z     vdW  Elec       q    Type
REMARK                         _______ _______ _______ _____ _____    ______ ____
ROOT
ATOM      1  C   UNL     1      -1.179  -0.237   0.000  0.00  0.00    +0.000 A 
ATOM      2  C   UNL     1      -1.270   0.586   0.000  0.00  0.00    +0.000 A 
ATOM      3  C   UNL     1      -2.080   0.758   0.000  0.00  0.00    +0.000 A 
ATOM      4  C   UNL     1      -2.494   0.041   0.000  0.00  0.00    +0.000 A 
ATOM      5  S   UNL     1      -1.940  -0.574   0.000  0.00  0.00    +0.000 S 
ENDROOT
BRANCH   2   6
ATOM      6  S   UNL     1      -0.459   1.063   0.000  0.00  0.00    +0.000 S 
ATOM      7  O   UNL     1      -0.048   0.349   0.000  0.00  0.00    +0.000 OA
ATOM      8  O   UNL     1       0.366   1.063   0.000  0.00  0.00    +0.000 OA
BRANCH   6   9
ATOM      9  N   UNL     1      -0.459   2.005   0.000  0.00  0.00    +0.000 NA
BRANCH   9  10
ATOM     10  C   UNL     1       0.255   2.416   0.000  0.00  0.00    +0.000 A 
ATOM     11  O   UNL     1       1.009   2.084   0.000  0.00  0.00    +0.000 OA
ATOM     12  N   UNL     1       1.562   2.696   0.000  0.00  0.00    +0.000 NA
ATOM     13  C   UNL     1       1.151   3.410   0.000  0.00  0.00    +0.000 A 
ATOM     14  C   UNL     1       0.344   3.240   0.000  0.00  0.00    +0.000 A 
ATOM     15  C   UNL     1      -0.267   3.793   0.000  0.00  0.00    +0.000 C 
ATOM     16  C   UNL     1       1.555   4.127   0.000  0.00  0.00    +0.000 C 
ENDBRANCH   9  10
ENDBRANCH   6   9
ENDBRANCH   2   6
BRANCH   1  18
ATOM     17  N   UNL     1      -0.363  -1.651   0.000  0.00  0.00    +0.000 NA
ATOM     18  C   UNL     1      -0.363  -0.709   0.000  0.00  0.00    +0.000 C 
ATOM     19  O   UNL     1       0.351  -0.298   0.000  0.00  0.00    +0.000 OA
BRANCH  17  20
ATOM     20  C   UNL     1       0.353  -2.064   0.000  0.00  0.00    +0.000 A 
ATOM     21  C   UNL     1       0.352  -2.891   0.000  0.00  0.00    +0.000 A 
ATOM     22  C   UNL     1       1.065  -3.305   0.000  0.00  0.00    +0.000 A 
ATOM     23  C   UNL     1       1.782  -2.891   0.000  0.00  0.00    +0.000 A 
ATOM     24  C   UNL     1       1.780  -2.062   0.000  0.00  0.00    +0.000 A 
ATOM     25  C   UNL     1       1.064  -1.653   0.000  0.00  0.00    +0.000 A 
ATOM     26  C   UNL     1       1.063  -0.826   0.000  0.00  0.00    +0.000 C 
ATOM     27  C   UNL     1       2.494  -3.298   0.000  0.00  0.00    +0.000 C 
BRANCH  21  28
ATOM     28  C   UNL     1      -0.363  -3.302   0.000  0.00  0.00    +0.000 C 
ATOM     29  C   UNL     1      -0.364  -4.127   0.000  0.00  0.00    +0.000 C 
ATOM     30  O   UNL     1      -1.076  -2.889   0.000  0.00  0.00    +0.000 OA
ENDBRANCH  21  28
ENDBRANCH  17  20
ENDBRANCH   1  18
TORSDOF 6
