REMARK  Name = 
REMARK  4 active torsions:
REMARK  status: ('A' for Active; 'I' for Inactive)
REMARK    1  A    between atoms: C_1  and  C_9
REMARK    2  A    between atoms: C_3  and  O_15
REMARK    3  A    between atoms: C_5  and  O_8
REMARK    4  A    between atoms: C_11  and  C_12
REMARK                            x       y       z     vdW  Elec       q    Type
REMARK                         _______ _______ _______ _____ _____    ______ ____
ROOT
ATOM      1  C   UNL     1       0.000   0.619   0.000  0.00  0.00    +0.000 A 
ATOM      2  C   UNL     1       0.000  -0.206   0.000  0.00  0.00    +0.000 A 
ATOM      3  C   UNL     1      -0.715  -0.619   0.000  0.00  0.00    +0.000 A 
ATOM      4  C   UNL     1      -1.429  -0.206   0.000  0.00  0.00    +0.000 A 
ATOM      5  C   UNL     1      -1.429   0.619   0.000  0.00  0.00    +0.000 A 
ATOM      6  C   UNL     1      -0.715   1.031   0.000  0.00  0.00    +0.000 A 
ATOM      7  O   UNL     1      -2.143  -0.619   0.000  0.00  0.00    +0.000 OA
ENDROOT
BRANCH   5   8
ATOM      8  O   UNL     1      -2.143   1.031   0.000  0.00  0.00    +0.000 OA
ATOM      9  C   UNL     1      -2.858   0.619   0.000  0.00  0.00    +0.000 C 
ENDBRANCH   5   8
BRANCH   1  10
ATOM     10  C   UNL     1       0.715   1.031   0.000  0.00  0.00    +0.000 C 
ATOM     11  C   UNL     1       1.429   0.619   0.000  0.00  0.00    +0.000 C 
BRANCH  11  12
ATOM     12  C   UNL     1       2.143   1.031   0.000  0.00  0.00    +0.000 C 
ATOM     13  O   UNL     1       2.143   1.856   0.000  0.00  0.00    +0.000 OA
ATOM     14  O   UNL     1       2.858   0.619   0.000  0.00  0.00    +0.000 OA
ENDBRANCH  11  12
ENDBRANCH   1  10
BRANCH   3  15
ATOM     15  O   UNL     1      -0.715  -1.444   0.000  0.00  0.00    +0.000 OA
ATOM     16  C   UNL     1       0.000  -1.856   0.000  0.00  0.00    +0.000 C 
ENDBRANCH   3  15
TORSDOF 4
