REMARK  Name = 
REMARK  4 active torsions:
REMARK  status: ('A' for Active; 'I' for Inactive)
REMARK    1  A    between atoms: N_6  and  C_7
REMARK    2  A    between atoms: C_7  and  C_8
REMARK    3  A    between atoms: C_8  and  C_9
REMARK    4  A    between atoms: C_9  and  O_11
REMARK                            x       y       z     vdW  Elec       q    Type
REMARK                         _______ _______ _______ _____ _____    ______ ____
ROOT
ATOM      1  C   UNL     1      -0.714  -0.825   0.000  0.00  0.00    +0.000 A 
ATOM      2  N   UNL     1      -1.429  -1.238   0.000  0.00  0.00    +0.000 NA
ATOM      3  C   UNL     1      -2.143  -0.825   0.000  0.00  0.00    +0.000 A 
ATOM      4  C   UNL     1      -2.143   0.000   0.000  0.00  0.00    +0.000 A 
ATOM      5  C   UNL     1      -1.429   0.412   0.000  0.00  0.00    +0.000 A 
ATOM      6  N   UNL     1      -0.714   0.000   0.000  0.00  0.00    +0.000 N 
ATOM      7  O   UNL     1      -2.858  -1.238   0.000  0.00  0.00    +0.000 OA
ATOM      8  O   UNL     1       0.000  -1.238   0.000  0.00  0.00    +0.000 OA
ENDROOT
BRANCH   6   9
ATOM      9  C   UNL     1       0.000   0.412   0.000  0.00  0.00    +0.000 C 
BRANCH   9  10
ATOM     10  C   UNL     1       0.714   0.000   0.000  0.00  0.00    +0.000 C 
BRANCH  10  11
ATOM     11  C   UNL     1       1.429   0.412   0.000  0.00  0.00    +0.000 C 
ATOM     12  O   UNL     1       1.429   1.238   0.000  0.00  0.00    +0.000 OA
BRANCH  11  13
ATOM     13  O   UNL     1       2.143   0.000   0.000  0.00  0.00    +0.000 OA
ATOM     14  N   UNL     1       2.858   0.412   0.000  0.00  0.00    +0.000 NA
ENDBRANCH  11  13
ENDBRANCH  10  11
ENDBRANCH   9  10
ENDBRANCH   6   9
TORSDOF 4
