REMARK  Name = 
REMARK  2 active torsions:
REMARK  status: ('A' for Active; 'I' for Inactive)
REMARK    1  A    between atoms: C_9  and  C_20
REMARK    2  A    between atoms: C_21  and  C_22
REMARK                            x       y       z     vdW  Elec       q    Type
REMARK                         _______ _______ _______ _____ _____    ______ ____
ROOT
ATOM      1  C   UNL     1      -2.146  -1.103   0.000  0.00  0.00    +0.000 A 
ATOM      2  I   UNL     1      -2.864  -0.696   0.000  0.00  0.00    +0.000 I 
ATOM      3  C   UNL     1      -2.140  -1.928   0.000  0.00  0.00    +0.000 A 
ATOM      4  O   UNL     1      -2.852  -2.346   0.000  0.00  0.00    +0.000 OA
ATOM      5  C   UNL     1      -1.423  -2.336   0.000  0.00  0.00    +0.000 A 
ATOM      6  I   UNL     1      -1.417  -3.161   0.000  0.00  0.00    +0.000 I 
ATOM      7  C   UNL     1      -0.711  -1.918   0.000  0.00  0.00    +0.000 A 
ATOM      8  C   UNL     1      -0.718  -1.093   0.000  0.00  0.00    +0.000 A 
ATOM      9  C   UNL     1      -0.006  -0.675   0.000  0.00  0.00    +0.000 A 
ATOM     10  C   UNL     1       0.711  -1.083   0.000  0.00  0.00    +0.000 A 
ATOM     11  C   UNL     1       1.423  -0.665   0.000  0.00  0.00    +0.000 A 
ATOM     12  C   UNL     1       2.140  -1.072   0.000  0.00  0.00    +0.000 A 
ATOM     13  I   UNL     1       2.852  -0.655   0.000  0.00  0.00    +0.000 I 
ATOM     14  C   UNL     1       2.146  -1.897   0.000  0.00  0.00    +0.000 A 
ATOM     15  O   UNL     1       2.864  -2.304   0.000  0.00  0.00    +0.000 OA
ATOM     16  C   UNL     1       1.435  -2.315   0.000  0.00  0.00    +0.000 A 
ATOM     17  I   UNL     1       1.441  -3.140   0.000  0.00  0.00    +0.000 I 
ATOM     18  C   UNL     1       0.717  -1.908   0.000  0.00  0.00    +0.000 A 
ATOM     19  O   UNL     1       0.006  -2.325   0.000  0.00  0.00    +0.000 OA
ATOM     20  C   UNL     1      -1.435  -0.686   0.000  0.00  0.00    +0.000 A 
ENDROOT
BRANCH   9  21
ATOM     21  C   UNL     1      -0.016   0.686   0.000  0.00  0.00    +0.000 A 
ATOM     22  C   UNL     1       0.696   1.103   0.000  0.00  0.00    +0.000 A 
ATOM     23  C   UNL     1       0.690   1.928   0.000  0.00  0.00    +0.000 A 
ATOM     24 CL   UNL     1       1.401   2.346   0.000  0.00  0.00    +0.000 Cl
ATOM     25  C   UNL     1      -0.028   2.336   0.000  0.00  0.00    +0.000 A 
ATOM     26 CL   UNL     1      -0.034   3.161   0.000  0.00  0.00    +0.000 Cl
ATOM     27  C   UNL     1      -0.739   1.918   0.000  0.00  0.00    +0.000 A 
ATOM     28 CL   UNL     1      -1.457   2.325   0.000  0.00  0.00    +0.000 Cl
ATOM     29  C   UNL     1      -0.733   1.093   0.000  0.00  0.00    +0.000 A 
ATOM     30 CL   UNL     1      -1.445   0.675   0.000  0.00  0.00    +0.000 Cl
BRANCH  22  31
ATOM     31  C   UNL     1       1.413   0.696   0.000  0.00  0.00    +0.000 C 
ATOM     32  O   UNL     1       1.419  -0.129   0.000  0.00  0.00    +0.000 OA
ATOM     33  O   UNL     1       2.124   1.114   0.000  0.00  0.00    +0.000 OA
ENDBRANCH  22  31
ENDBRANCH   9  21
TORSDOF 2
