REMARK  Name = 
REMARK  6 active torsions:
REMARK  status: ('A' for Active; 'I' for Inactive)
REMARK    1  A    between atoms: C_5  and  N_7
REMARK    2  A    between atoms: C_8  and  C_9
REMARK    3  A    between atoms: C_9  and  N_10
REMARK    4  A    between atoms: N_10  and  C_11
REMARK    5  A    between atoms: C_11  and  C_12
REMARK    6  A    between atoms: C_12  and  C_13
REMARK                            x       y       z     vdW  Elec       q    Type
REMARK                         _______ _______ _______ _____ _____    ______ ____
ROOT
ATOM      1  N   UNL     1      -1.421   0.416   0.000  0.00  0.00    +0.000 NA
ATOM      2  C   UNL     1      -0.707   0.003   0.000  0.00  0.00    +0.000 C 
ATOM      3  O   UNL     1      -0.707  -0.822   0.000  0.00  0.00    +0.000 OA
ENDROOT
BRANCH   1   8
ATOM      4  C   UNL     1      -3.580   0.003   0.000  0.00  0.00    +0.000 A 
ATOM      5  C   UNL     1      -3.580  -0.822   0.000  0.00  0.00    +0.000 A 
ATOM      6  C   UNL     1      -2.865  -1.234   0.000  0.00  0.00    +0.000 A 
ATOM      7  C   UNL     1      -2.151  -0.822   0.000  0.00  0.00    +0.000 A 
ATOM      8  C   UNL     1      -2.151   0.003   0.000  0.00  0.00    +0.000 A 
ATOM      9  C   UNL     1      -2.865   0.416   0.000  0.00  0.00    +0.000 A 
ATOM     10  C   UNL     1      -2.865   1.241   0.000  0.00  0.00    +0.000 C 
ATOM     11 CL   UNL     1      -1.425  -1.241   0.000  0.00  0.00    +0.000 Cl
ENDBRANCH   1   8
BRANCH   2  12
ATOM     12  C   UNL     1       0.007   0.416   0.000  0.00  0.00    +0.000 C 
BRANCH  12  13
ATOM     13  N   UNL     1       0.722   0.003   0.000  0.00  0.00    +0.000 NA
BRANCH  13  14
ATOM     14  C   UNL     1       1.436   0.416   0.000  0.00  0.00    +0.000 C 
BRANCH  14  15
ATOM     15  C   UNL     1       2.151   0.003   0.000  0.00  0.00    +0.000 C 
BRANCH  15  16
ATOM     16  C   UNL     1       2.865   0.416   0.000  0.00  0.00    +0.000 C 
ATOM     17  C   UNL     1       3.580   0.003   0.000  0.00  0.00    +0.000 C 
ENDBRANCH  15  16
ENDBRANCH  14  15
ENDBRANCH  13  14
ENDBRANCH  12  13
ENDBRANCH   2  12
TORSDOF 6
