REMARK  Name = 
REMARK  7 active torsions:
REMARK  status: ('A' for Active; 'I' for Inactive)
REMARK    1  A    between atoms: N_9  and  C_10
REMARK    2  A    between atoms: C_11  and  C_15
REMARK    3  A    between atoms: C_12  and  C_16
REMARK    4  A    between atoms: C_12  and  C_18
REMARK    5  A    between atoms: C_15  and  C_17
REMARK    6  A    between atoms: C_16  and  C_20
REMARK    7  A    between atoms: C_17  and  C_19
REMARK                            x       y       z     vdW  Elec       q    Type
REMARK                         _______ _______ _______ _____ _____    ______ ____
ROOT
ATOM      1  O   UNL     1       0.357   0.729   0.000  0.00  0.00    +0.000 OA
ATOM      2  O   UNL     1       2.501  -0.508   0.000  0.00  0.00    +0.000 OA
ATOM      3  C   UNL     1       1.072  -0.508   0.000  0.00  0.00    +0.000 C 
ATOM      4  C   UNL     1       0.357  -0.096   0.000  0.00  0.00    +0.000 C 
ATOM      5  C   UNL     1       1.072   1.142   0.000  0.00  0.00    +0.000 C 
ATOM      6  C   UNL     1       1.786  -0.096   0.000  0.00  0.00    +0.000 C 
ATOM      7  C   UNL     1       1.786   0.729   0.000  0.00  0.00    +0.000 C 
ENDROOT
BRANCH   3   9
ATOM      8  O   UNL     1       2.501  -1.333   0.000  0.00  0.00    +0.000 OA
ATOM      9  N   UNL     1       1.072  -1.333   0.000  0.00  0.00    +0.000 N 
ATOM     10  C   UNL     1       1.786  -1.746   0.000  0.00  0.00    +0.000 C 
ATOM     11  C   UNL     1       1.786  -2.571   0.000  0.00  0.00    +0.000 C 
ATOM     12  H   UNL     1       0.629  -1.589   0.000  0.00  0.00    +0.000 HD
ENDBRANCH   3   9
BRANCH   5  15
ATOM     13  O   UNL     1       2.309   1.856   0.000  0.00  0.00    +0.000 OA
ATOM     14  O   UNL     1       1.072   2.571   0.000  0.00  0.00    +0.000 OA
ATOM     15  C   UNL     1       1.484   1.856   0.000  0.00  0.00    +0.000 C 
ENDBRANCH   5  15
BRANCH   4  17
ATOM     16  O   UNL     1      -0.357  -1.333   0.000  0.00  0.00    +0.000 OA
ATOM     17  C   UNL     1      -0.357  -0.508   0.000  0.00  0.00    +0.000 C 
BRANCH  17  19
ATOM     18  O   UNL     1      -1.072   0.729   0.000  0.00  0.00    +0.000 OA
ATOM     19  C   UNL     1      -1.072  -0.096   0.000  0.00  0.00    +0.000 C 
BRANCH  19  21
ATOM     20  O   UNL     1      -2.501  -0.096   0.000  0.00  0.00    +0.000 OA
ATOM     21  C   UNL     1      -1.786  -0.508   0.000  0.00  0.00    +0.000 C 
ENDBRANCH  19  21
ENDBRANCH  17  19
ENDBRANCH   4  17
BRANCH   5  22
ATOM     22  C   UNL     1       0.659   1.856   0.000  0.00  0.00    +0.000 C 
BRANCH  22  23
ATOM     23  C   UNL     1      -0.166   1.856   0.000  0.00  0.00    +0.000 C 
ATOM     24  C   UNL     1      -0.578   2.571   0.000  0.00  0.00    +0.000 C 
ENDBRANCH  22  23
ENDBRANCH   5  22
TORSDOF 7
