REMARK  Name = 
REMARK  5 active torsions:
REMARK  status: ('A' for Active; 'I' for Inactive)
REMARK    1  A    between atoms: C_6  and  O_7
REMARK    2  A    between atoms: O_7  and  C_8
REMARK    3  A    between atoms: C_11  and  C_15
REMARK    4  A    between atoms: C_15  and  CA_16
REMARK    5  A    between atoms: CA_16  and  C_17
REMARK                            x       y       z     vdW  Elec       q    Type
REMARK                         _______ _______ _______ _____ _____    ______ ____
ROOT
ATOM      1  C   UNL     1      -1.429   0.000   0.000  0.00  0.00    +0.000 A 
ATOM      2  C   UNL     1      -2.143  -0.412   0.000  0.00  0.00    +0.000 A 
ATOM      3  C   UNL     1      -2.858   0.000   0.000  0.00  0.00    +0.000 A 
ATOM      4  C   UNL     1      -2.858   0.825   0.000  0.00  0.00    +0.000 A 
ATOM      5  C   UNL     1      -2.143   1.238   0.000  0.00  0.00    +0.000 A 
ATOM      6  C   UNL     1      -1.429   0.825   0.000  0.00  0.00    +0.000 A 
ATOM      7  I   UNL     1      -0.715   1.238   0.000  0.00  0.00    +0.000 I 
ATOM      8  I   UNL     1      -2.143  -1.238   0.000  0.00  0.00    +0.000 I 
ENDROOT
BRANCH   1   9
ATOM      9  O   UNL     1      -0.715  -0.412   0.000  0.00  0.00    +0.000 OA
BRANCH   9  15
ATOM     10  C   UNL     1       0.000  -1.650   0.000  0.00  0.00    +0.000 A 
ATOM     11  C   UNL     1       0.000  -2.475   0.000  0.00  0.00    +0.000 A 
ATOM     12  C   UNL     1      -0.715  -2.888   0.000  0.00  0.00    +0.000 A 
ATOM     13  C   UNL     1      -1.429  -2.475   0.000  0.00  0.00    +0.000 A 
ATOM     14  C   UNL     1      -1.429  -1.650   0.000  0.00  0.00    +0.000 A 
ATOM     15  C   UNL     1      -0.715  -1.238   0.000  0.00  0.00    +0.000 A 
ATOM     16  I   UNL     1      -2.143  -2.888   0.000  0.00  0.00    +0.000 I 
ATOM     17  O   UNL     1      -0.715  -3.712   0.000  0.00  0.00    +0.000 OA
ENDBRANCH   9  15
ENDBRANCH   1   9
BRANCH   4  18
ATOM     18  C   UNL     1      -3.572   1.238   0.000  0.00  0.00    +0.000 C 
BRANCH  18  19
ATOM     19  CA  UNL     1      -3.572   2.062   0.000  0.00  0.00    +0.000 C 
ATOM     20  N   UNL     1      -2.858   2.475   0.000  0.00  0.00    +0.000 NA
BRANCH  19  21
ATOM     21  C   UNL     1      -4.287   2.475   0.000  0.00  0.00    +0.000 C 
ATOM     22  O   UNL     1      -4.287   3.300   0.000  0.00  0.00    +0.000 OA
ATOM     23  OXT UNL     1      -5.001   2.062   0.000  0.00  0.00    +0.000 OA
ENDBRANCH  19  21
ENDBRANCH  18  19
ENDBRANCH   4  18
TORSDOF 5
