REMARK  Name = 
REMARK  3 active torsions:
REMARK  status: ('A' for Active; 'I' for Inactive)
REMARK    1  A    between atoms: C_5  and  S_9
REMARK    2  A    between atoms: S_9  and  N_12
REMARK    3  A    between atoms: N_15  and  C_16
REMARK                            x       y       z     vdW  Elec       q    Type
REMARK                         _______ _______ _______ _____ _____    ______ ____
ROOT
ATOM      1  S   UNL     1       3.572  -5.362   0.000  0.00  0.00    +0.000 S 
ATOM      2  O   UNL     1       2.747  -5.362   0.000  0.00  0.00    +0.000 OA
ATOM      3  O   UNL     1       4.397  -5.362   0.000  0.00  0.00    +0.000 OA
ENDROOT
BRANCH   1   8
ATOM      4  C   UNL     1       3.572  -2.062   0.000  0.00  0.00    +0.000 C 
ATOM      5  C   UNL     1       3.572  -2.888   0.000  0.00  0.00    +0.000 A 
ATOM      6  C   UNL     1       4.287  -3.300   0.000  0.00  0.00    +0.000 A 
ATOM      7  C   UNL     1       4.287  -4.125   0.000  0.00  0.00    +0.000 A 
ATOM      8  C   UNL     1       3.572  -4.537   0.000  0.00  0.00    +0.000 A 
ATOM      9  C   UNL     1       2.858  -4.125   0.000  0.00  0.00    +0.000 A 
ATOM     10  C   UNL     1       2.858  -3.300   0.000  0.00  0.00    +0.000 A 
ATOM     11  N   UNL     1       2.143  -2.888   0.000  0.00  0.00    +0.000 NA
ENDBRANCH   1   8
BRANCH   1  12
ATOM     12  N   UNL     1       3.572  -6.188   0.000  0.00  0.00    +0.000 NA
ATOM     13  C   UNL     1       2.858  -6.600   0.000  0.00  0.00    +0.000 C 
ATOM     14  O   UNL     1       2.143  -6.188   0.000  0.00  0.00    +0.000 OA
ATOM     15  N   UNL     1       2.858  -7.425   0.000  0.00  0.00    +0.000 NA
BRANCH  15  16
ATOM     16  C   UNL     1       2.143  -7.838   0.000  0.00  0.00    +0.000 C 
ATOM     17  C   UNL     1       2.143  -8.662   0.000  0.00  0.00    +0.000 C 
ATOM     18  C   UNL     1       1.429  -9.075   0.000  0.00  0.00    +0.000 C 
ATOM     19  C   UNL     1       0.715  -8.662   0.000  0.00  0.00    +0.000 C 
ATOM     20  C   UNL     1       0.715  -7.838   0.000  0.00  0.00    +0.000 C 
ATOM     21  C   UNL     1       1.429  -7.425   0.000  0.00  0.00    +0.000 C 
ENDBRANCH  15  16
ENDBRANCH   1  12
TORSDOF 3
