REMARK  Name = 
REMARK  0 active torsions:
REMARK  status: ('A' for Active; 'I' for Inactive)
REMARK                            x       y       z     vdW  Elec       q    Type
REMARK                         _______ _______ _______ _____ _____    ______ ____
ROOT
ATOM      1  C   UNL     1       0.218   0.407   0.000  0.00  0.00    +0.000 C 
ATOM      2  C   UNL     1       0.600  -0.384   0.000  0.00  0.00    +0.000 C 
ATOM      3  C   UNL     1       0.218  -1.247   0.000  0.00  0.00    +0.000 C 
ATOM      4  C   UNL     1      -0.492  -0.832   0.000  0.00  0.00    +0.000 C 
ATOM      5  C   UNL     1      -0.492  -0.012   0.000  0.00  0.00    +0.000 C 
ATOM      6  O   UNL     1      -1.221   0.407   0.000  0.00  0.00    +0.000 OA
ATOM      7 BR   UNL     1      -1.396  -1.077   0.000  0.00  0.00    +0.000 Br
ATOM      8  C   UNL     1       0.929  -0.832   0.000  0.00  0.00    +0.000 C 
ATOM      9  C   UNL     1       0.929  -0.012   0.000  0.00  0.00    +0.000 C 
ATOM     10  C   UNL     1       1.396  -0.112   0.000  0.00  0.00    +0.000 C 
ATOM     11  C   UNL     1       1.396  -0.655   0.000  0.00  0.00    +0.000 C 
ATOM     12  C   UNL     1       0.218   1.247   0.000  0.00  0.00    +0.000 C 
ENDROOT
TORSDOF 0
