REMARK  Name = 
REMARK  8 active torsions:
REMARK  status: ('A' for Active; 'I' for Inactive)
REMARK    1  A    between atoms: C_2  and  C_23
REMARK    2  A    between atoms: C_8  and  N_17
REMARK    3  A    between atoms: C_13  and  N_20
REMARK    4  A    between atoms: N_17  and  C_18
REMARK    5  A    between atoms: N_20  and  C_21
REMARK    6  A    between atoms: C_27  and  C_29
REMARK    7  A    between atoms: C_29  and  O_30
REMARK    8  A    between atoms: O_30  and  C_31
REMARK                            x       y       z     vdW  Elec       q    Type
REMARK                         _______ _______ _______ _____ _____    ______ ____
ROOT
ATOM      1  C   UNL     1      -0.693   0.709   0.000  0.00  0.00    +0.000 A 
ATOM      2  C   UNL     1       0.028   0.309   0.000  0.00  0.00    +0.000 A 
ATOM      3  C   UNL     1       0.736   0.734   0.000  0.00  0.00    +0.000 A 
ATOM      4  C   UNL     1       0.722   1.559   0.000  0.00  0.00    +0.000 A 
ATOM      5  O   UNL     1       0.000   1.959   0.000  0.00  0.00    +0.000 OA
ATOM      6  C   UNL     1      -0.707   1.534   0.000  0.00  0.00    +0.000 A 
ATOM      7  C   UNL     1      -1.429   1.934   0.000  0.00  0.00    +0.000 A 
ATOM      8  C   UNL     1      -2.136   1.509   0.000  0.00  0.00    +0.000 A 
ATOM      9  C   UNL     1      -2.122   0.684   0.000  0.00  0.00    +0.000 A 
ATOM     10  C   UNL     1      -1.400   0.284   0.000  0.00  0.00    +0.000 A 
ATOM     11  C   UNL     1       1.457   0.334   0.000  0.00  0.00    +0.000 A 
ATOM     12  C   UNL     1       2.164   0.758   0.000  0.00  0.00    +0.000 A 
ATOM     13  C   UNL     1       2.150   1.583   0.000  0.00  0.00    +0.000 A 
ATOM     14  C   UNL     1       1.429   1.983   0.000  0.00  0.00    +0.000 A 
ATOM     15  C   UNL     1       2.886   0.358   0.000  0.00  0.00    +0.000 C 
ATOM     16  C   UNL     1      -2.829   0.260   0.000  0.00  0.00    +0.000 C 
ENDROOT
BRANCH   2  17
ATOM     17  C   UNL     1       0.028  -1.400   0.000  0.00  0.00    +0.000 A 
ATOM     18  C   UNL     1       0.057  -3.050   0.000  0.00  0.00    +0.000 A 
ATOM     19  C   UNL     1       0.764  -2.625   0.000  0.00  0.00    +0.000 A 
ATOM     20  C   UNL     1       0.750  -1.800   0.000  0.00  0.00    +0.000 A 
ATOM     21  C   UNL     1      -0.679  -1.825   0.000  0.00  0.00    +0.000 A 
ATOM     22  C   UNL     1      -0.664  -2.650   0.000  0.00  0.00    +0.000 A 
BRANCH  21  23
ATOM     23  C   UNL     1      -1.400  -1.425   0.000  0.00  0.00    +0.000 C 
ATOM     24  O   UNL     1      -1.414  -0.600   0.000  0.00  0.00    +0.000 OA
BRANCH  23  25
ATOM     25  O   UNL     1      -2.107  -1.850   0.000  0.00  0.00    +0.000 OA
BRANCH  25  26
ATOM     26  C   UNL     1      -2.829  -1.450   0.000  0.00  0.00    +0.000 C 
ATOM     27  C   UNL     1      -3.536  -1.874   0.000  0.00  0.00    +0.000 C 
ENDBRANCH  25  26
ENDBRANCH  23  25
ENDBRANCH  21  23
ENDBRANCH   2  17
BRANCH  13  28
ATOM     28  N   UNL     1       2.857   2.008   0.000  0.00  0.00    +0.000 NA
BRANCH  28  29
ATOM     29  C   UNL     1       3.579   1.608   0.000  0.00  0.00    +0.000 C 
ATOM     30  C   UNL     1       4.286   2.033   0.000  0.00  0.00    +0.000 C 
ENDBRANCH  28  29
ENDBRANCH  13  28
BRANCH   8  31
ATOM     31  N   UNL     1      -2.857   1.909   0.000  0.00  0.00    +0.000 NA
BRANCH  31  32
ATOM     32  C   UNL     1      -3.565   1.485   0.000  0.00  0.00    +0.000 C 
ATOM     33  C   UNL     1      -4.286   1.885   0.000  0.00  0.00    +0.000 C 
ENDBRANCH  31  32
ENDBRANCH   8  31
TORSDOF 8
REMARK  Name = 
REMARK  8 active torsions:
REMARK  status: ('A' for Active; 'I' for Inactive)
REMARK    1  A    between atoms: C_2  and  C_23
REMARK    2  A    between atoms: C_8  and  N_17
REMARK    3  A    between atoms: C_13  and  N_20
REMARK    4  A    between atoms: N_17  and  C_18
REMARK    5  A    between atoms: N_20  and  C_21
REMARK    6  A    between atoms: C_27  and  C_29
REMARK    7  A    between atoms: C_29  and  O_30
REMARK    8  A    between atoms: O_30  and  C_31
REMARK                            x       y       z     vdW  Elec       q    Type
REMARK                         _______ _______ _______ _____ _____    ______ ____
ROOT
ATOM      1 CL   UNL     1      -0.043   3.050   0.000  0.00  0.00    +0.000 Cl
ENDROOT
TORSDOF 0
