REMARK  Name = 
REMARK  6 active torsions:
REMARK  status: ('A' for Active; 'I' for Inactive)
REMARK    1  A    between atoms: C_4  and  C_7
REMARK    2  A    between atoms: C_7  and  O_8
REMARK    3  A    between atoms: O_8  and  C_9
REMARK    4  A    between atoms: C_9  and  C_10
REMARK    5  A    between atoms: C_9  and  C_14
REMARK    6  A    between atoms: C_10  and  N_11
REMARK                            x       y       z     vdW  Elec       q    Type
REMARK                         _______ _______ _______ _____ _____    ______ ____
ROOT
ATOM      1  O   UNL     1      27.312 -18.458   0.000  0.00  0.00    +0.000 OA
ENDROOT
BRANCH   1   2
ATOM      2  C   UNL     1      28.023 -18.877   0.000  0.00  0.00    +0.000 C 
ATOM      3  C   UNL     1      28.735 -19.295   0.000  0.00  0.00    +0.000 C 
BRANCH   2   4
ATOM      4  C   UNL     1      27.312 -19.295   0.000  0.00  0.00    +0.000 C 
ATOM      5  C   UNL     1      27.312 -20.131   0.000  0.00  0.00    +0.000 C 
ENDBRANCH   2   4
BRANCH   2   6
ATOM      6  C   UNL     1      28.735 -18.458   0.000  0.00  0.00    +0.000 C 
BRANCH   6   7
ATOM      7  N   UNL     1      29.487 -18.877   0.000  0.00  0.00    +0.000 NA
ATOM      8  C   UNL     1      30.198 -18.458   0.000  0.00  0.00    +0.000 C 
ATOM      9  C   UNL     1      29.487 -19.713   0.000  0.00  0.00    +0.000 C 
ENDBRANCH   6   7
ENDBRANCH   2   6
ENDBRANCH   1   2
BRANCH   1  10
ATOM     10  C   UNL     1      26.559 -18.877   0.000  0.00  0.00    +0.000 C 
ATOM     11  O   UNL     1      26.559 -19.713   0.000  0.00  0.00    +0.000 OA
BRANCH  10  15
ATOM     12  C   UNL     1      24.384 -17.622   0.000  0.00  0.00    +0.000 A 
ATOM     13  C   UNL     1      24.384 -18.458   0.000  0.00  0.00    +0.000 A 
ATOM     14  C   UNL     1      25.137 -18.877   0.000  0.00  0.00    +0.000 A 
ATOM     15  C   UNL     1      25.848 -18.458   0.000  0.00  0.00    +0.000 A 
ATOM     16  C   UNL     1      25.848 -17.622   0.000  0.00  0.00    +0.000 A 
ATOM     17  C   UNL     1      25.137 -17.203   0.000  0.00  0.00    +0.000 A 
ENDBRANCH  10  15
ENDBRANCH   1  10
TORSDOF 6
