REMARK  Name = 
REMARK  4 active torsions:
REMARK  status: ('A' for Active; 'I' for Inactive)
REMARK    1  A    between atoms: C_2  and  C_7
REMARK    2  A    between atoms: C_5  and  C_11
REMARK    3  A    between atoms: C_7  and  C_8
REMARK    4  A    between atoms: C_11  and  C_12
REMARK                            x       y       z     vdW  Elec       q    Type
REMARK                         _______ _______ _______ _____ _____    ______ ____
ROOT
ATOM      1  C   UNL     1      -1.072   0.000   0.000  0.00  0.00    +0.000 A 
ATOM      2  C   UNL     1      -1.072  -0.825   0.000  0.00  0.00    +0.000 A 
ATOM      3  C   UNL     1      -0.358  -1.238   0.000  0.00  0.00    +0.000 A 
ATOM      4  C   UNL     1       0.357  -0.825   0.000  0.00  0.00    +0.000 A 
ATOM      5  C   UNL     1       0.357   0.000   0.000  0.00  0.00    +0.000 A 
ATOM      6  C   UNL     1      -0.358   0.412   0.000  0.00  0.00    +0.000 A 
ENDROOT
BRANCH   5   7
ATOM      7  C   UNL     1       1.072   0.412   0.000  0.00  0.00    +0.000 C 
ATOM      8  C   UNL     1       1.073   1.238   0.000  0.00  0.00    +0.000 C 
BRANCH   7   9
ATOM      9  C   UNL     1       1.787   0.000   0.000  0.00  0.00    +0.000 C 
ATOM     10  N   UNL     1       2.501   0.412   0.000  0.00  0.00    +0.000 NA
ATOM     11  O   UNL     1       1.787  -0.825   0.000  0.00  0.00    +0.000 OA
ATOM     12  O   UNL     1       3.216   0.000   0.000  0.00  0.00    +0.000 OA
ENDBRANCH   7   9
ENDBRANCH   5   7
BRANCH   2  13
ATOM     13  C   UNL     1      -1.787  -1.238   0.000  0.00  0.00    +0.000 C 
BRANCH  13  14
ATOM     14  C   UNL     1      -2.501  -0.825   0.000  0.00  0.00    +0.000 C 
ATOM     15  C   UNL     1      -3.216  -1.238   0.000  0.00  0.00    +0.000 C 
ATOM     16  C   UNL     1      -2.501   0.000   0.000  0.00  0.00    +0.000 C 
ENDBRANCH  13  14
ENDBRANCH   2  13
TORSDOF 4
