REMARK  Name = 
REMARK  14 active torsions:
REMARK  status: ('A' for Active; 'I' for Inactive)
REMARK    1  A    between atoms: C_1  and  C_2
REMARK    2  A    between atoms: C_1  and  S_5
REMARK    3  A    between atoms: C_2  and  C_3
REMARK    4  A    between atoms: C_3  and  C_4
REMARK    5  A    between atoms: C_4  and  N_9
REMARK    6  A    between atoms: C_10  and  C_24
REMARK    7  A    between atoms: C_25  and  C_26
REMARK    8  A    between atoms: C_27  and  C_28
REMARK    9  A    between atoms: C_29  and  C_30
REMARK   10  A    between atoms: N_31  and  C_44
REMARK   11  A    between atoms: C_44  and  C_45
REMARK   12  A    between atoms: C_45  and  C_46
REMARK   13  A    between atoms: C_46  and  C_47
REMARK   14  A    between atoms: C_47  and  S_48
REMARK                            x       y       z     vdW  Elec       q    Type
REMARK                         _______ _______ _______ _____ _____    ______ ____
ROOT
ATOM      1  C   UNL     1       0.716   2.092   0.000  0.00  0.00    +0.000 C 
ATOM      2  C   UNL     1       0.000   1.679   0.000  0.00  0.00    +0.000 C 
ENDROOT
BRANCH   2   3
ATOM      3  C   UNL     1      -0.716   2.092   0.000  0.00  0.00    +0.000 C 
ATOM      4  C   UNL     1      -1.427   1.679   0.000  0.00  0.00    +0.000 C 
BRANCH   4   5
ATOM      5  C   UNL     1      -2.143   2.092   0.000  0.00  0.00    +0.000 C 
ATOM      6  N   UNL     1      -2.944   0.857   0.000  0.00  0.00    +0.000 N 
ATOM      7  C   UNL     1      -2.855   1.679   0.000  0.00  0.00    +0.000 C 
ATOM      8  C   UNL     1      -3.609   2.013   0.000  0.00  0.00    +0.000 C 
ATOM      9  C   UNL     1      -4.162   1.401   0.000  0.00  0.00    +0.000 A 
ATOM     10  C   UNL     1      -4.987   1.401   0.000  0.00  0.00    +0.000 A 
ATOM     11  C   UNL     1      -5.400   0.689   0.000  0.00  0.00    +0.000 A 
ATOM     12  C   UNL     1      -4.987  -0.027   0.000  0.00  0.00    +0.000 A 
ATOM     13  C   UNL     1      -4.162  -0.027   0.000  0.00  0.00    +0.000 A 
ATOM     14  C   UNL     1      -3.750   0.689   0.000  0.00  0.00    +0.000 A 
ATOM     15  C   UNL     1      -6.225   0.689   0.000  0.00  0.00    +0.000 A 
ATOM     16  C   UNL     1      -6.637   1.401   0.000  0.00  0.00    +0.000 A 
ATOM     17  C   UNL     1      -6.225   2.116   0.000  0.00  0.00    +0.000 A 
ATOM     18  C   UNL     1      -5.400   2.116   0.000  0.00  0.00    +0.000 A 
ATOM     19  C   UNL     1      -3.197   2.728   0.000  0.00  0.00    +0.000 C 
ATOM     20  C   UNL     1      -4.279   2.502   0.000  0.00  0.00    +0.000 C 
BRANCH   6  21
ATOM     21  C   UNL     1      -2.332   0.308   0.000  0.00  0.00    +0.000 C 
BRANCH  21  22
ATOM     22  C   UNL     1      -2.504  -0.502   0.000  0.00  0.00    +0.000 C 
BRANCH  22  23
ATOM     23  C   UNL     1      -3.284  -0.755   0.000  0.00  0.00    +0.000 C 
BRANCH  23  24
ATOM     24  C   UNL     1      -3.457  -1.561   0.000  0.00  0.00    +0.000 C 
BRANCH  24  25
ATOM     25  S   UNL     1      -2.873  -2.145   0.000  0.00  0.00    +0.000 S 
ATOM     26  O   UNL     1      -3.457  -2.728   0.000  0.00  0.00    +0.000 OA
ATOM     27  O   UNL     1      -2.289  -1.561   0.000  0.00  0.00    +0.000 OA
ATOM     28  O   UNL     1      -2.289  -2.728   0.000  0.00  0.00    +0.000 OA
ENDBRANCH  24  25
ENDBRANCH  23  24
ENDBRANCH  22  23
ENDBRANCH  21  22
ENDBRANCH   6  21
ENDBRANCH   4   5
ENDBRANCH   2   3
BRANCH   1  30
ATOM     29  C   UNL     1       2.143   2.092   0.000  0.00  0.00    +0.000 C 
ATOM     30  C   UNL     1       1.432   1.679   0.000  0.00  0.00    +0.000 C 
BRANCH  29  32
ATOM     31  N   UNL     1       2.944   0.857   0.000  0.00  0.00    +0.000 N 
ATOM     32  C   UNL     1       2.859   1.679   0.000  0.00  0.00    +0.000 C 
ATOM     33  C   UNL     1       3.614   2.013   0.000  0.00  0.00    +0.000 C 
ATOM     34  C   UNL     1       4.162   1.401   0.000  0.00  0.00    +0.000 A 
ATOM     35  C   UNL     1       4.987   1.401   0.000  0.00  0.00    +0.000 A 
ATOM     36  C   UNL     1       5.400   0.689   0.000  0.00  0.00    +0.000 A 
ATOM     37  C   UNL     1       4.987  -0.027   0.000  0.00  0.00    +0.000 A 
ATOM     38  C   UNL     1       4.162  -0.027   0.000  0.00  0.00    +0.000 A 
ATOM     39  C   UNL     1       3.750   0.689   0.000  0.00  0.00    +0.000 A 
ATOM     40  C   UNL     1       6.225   0.689   0.000  0.00  0.00    +0.000 A 
ATOM     41  C   UNL     1       6.637   1.401   0.000  0.00  0.00    +0.000 A 
ATOM     42  C   UNL     1       6.225   2.116   0.000  0.00  0.00    +0.000 A 
ATOM     43  C   UNL     1       5.400   2.116   0.000  0.00  0.00    +0.000 A 
ATOM     44  C   UNL     1       3.201   2.728   0.000  0.00  0.00    +0.000 C 
ATOM     45  C   UNL     1       4.279   2.502   0.000  0.00  0.00    +0.000 C 
BRANCH  31  46
ATOM     46  C   UNL     1       2.332   0.308   0.000  0.00  0.00    +0.000 C 
BRANCH  46  47
ATOM     47  C   UNL     1       1.547   0.561   0.000  0.00  0.00    +0.000 C 
BRANCH  47  48
ATOM     48  C   UNL     1       0.935   0.008   0.000  0.00  0.00    +0.000 C 
BRANCH  48  49
ATOM     49  C   UNL     1       0.150   0.265   0.000  0.00  0.00    +0.000 C 
BRANCH  49  50
ATOM     50  S   UNL     1      -0.466  -0.288   0.000  0.00  0.00    +0.000 S 
ATOM     51  O   UNL     1       0.087  -0.900   0.000  0.00  0.00    +0.000 OA
ATOM     52  O   UNL     1      -1.015   0.324   0.000  0.00  0.00    +0.000 OA
ATOM     53  O   UNL     1      -1.078  -0.841   0.000  0.00  0.00    +0.000 OA
ENDBRANCH  49  50
ENDBRANCH  48  49
ENDBRANCH  47  48
ENDBRANCH  46  47
ENDBRANCH  31  46
ENDBRANCH  29  32
ENDBRANCH   1  30
TORSDOF 14
