REMARK  Name = 
REMARK  16 active torsions:
REMARK  status: ('A' for Active; 'I' for Inactive)
REMARK    1  A    between atoms: SG_1  and  C_14
REMARK    2  A    between atoms: SG_1  and  CB_20
REMARK    3  A    between atoms: N_10  and  CA_21
REMARK    4  A    between atoms: N_11  and  CA_29
REMARK    5  A    between atoms: N_12  and  CA_28
REMARK    6  A    between atoms: C_13  and  C_16
REMARK    7  A    between atoms: C_16  and  C_18
REMARK    8  A    between atoms: C_18  and  C_19
REMARK    9  A    between atoms: C_19  and  C_22
REMARK   10  A    between atoms: CB_20  and  CA_21
REMARK   11  A    between atoms: CA_21  and  C_23
REMARK   12  A    between atoms: C_25  and  C_26
REMARK   13  A    between atoms: C_26  and  C_27
REMARK   14  A    between atoms: C_27  and  CA_28
REMARK   15  A    between atoms: CA_28  and  C_30
REMARK   16  A    between atoms: CA_29  and  C_31
REMARK                            x       y       z     vdW  Elec       q    Type
REMARK                         _______ _______ _______ _____ _____    ______ ____
ROOT
ATOM      1  CA  UNL     1       0.970  -1.377   0.000  0.00  0.00    +0.000 C 
ENDROOT
BRANCH   1   3
ATOM      2  O   UNL     1       0.000  -2.712   0.000  0.00  0.00    +0.000 OA
ATOM      3  N   UNL     1       0.149  -1.291   0.000  0.00  0.00    +0.000 N 
ATOM      4  C   UNL     1      -0.336  -1.958   0.000  0.00  0.00    +0.000 C 
ATOM      5  H   UNL     1      -0.059  -0.824   0.000  0.00  0.00    +0.000 HD
BRANCH   4   6
ATOM      6  C   UNL     1      -1.156  -1.872   0.000  0.00  0.00    +0.000 C 
BRANCH   6   7
ATOM      7  C   UNL     1      -1.641  -2.540   0.000  0.00  0.00    +0.000 C 
BRANCH   7   8
ATOM      8  CA  UNL     1      -2.461  -2.453   0.000  0.00  0.00    +0.000 C 
BRANCH   8   9
ATOM      9  N   UNL     1      -2.797  -1.700   0.000  0.00  0.00    +0.000 NA
ATOM     10  H1  UNL     1      -2.496  -1.286   0.000  0.00  0.00    +0.000 HD
ATOM     11  H2  UNL     1      -3.306  -1.646   0.000  0.00  0.00    +0.000 HD
ENDBRANCH   8   9
BRANCH   8  14
ATOM     12  O   UNL     1      -3.767  -3.035   0.000  0.00  0.00    +0.000 OA
ATOM     13  OXT UNL     1      -2.611  -3.875   0.000  0.00  0.00    +0.000 OA
ATOM     14  C   UNL     1      -2.946  -3.121   0.000  0.00  0.00    +0.000 C 
ENDBRANCH   8  14
ENDBRANCH   7   8
ENDBRANCH   6   7
ENDBRANCH   4   6
ENDBRANCH   1   3
BRANCH   1  17
ATOM     15  O   UNL     1       0.820  -2.798   0.000  0.00  0.00    +0.000 OA
ATOM     16  N   UNL     1       2.126  -2.217   0.000  0.00  0.00    +0.000 N 
ATOM     17  C   ACE A   1       1.305  -2.131   0.000  0.00  0.00    +0.000 C 
ATOM     18  H   UNL     1       2.426  -1.803   0.000  0.00  0.00    +0.000 HD
BRANCH  16  19
ATOM     19  CA  UNL     1       2.461  -2.971   0.000  0.00  0.00    +0.000 C 
BRANCH  19  22
ATOM     20  O   UNL     1       3.617  -3.811   0.000  0.00  0.00    +0.000 OA
ATOM     21  OXT UNL     1       3.767  -2.390   0.000  0.00  0.00    +0.000 OA
ATOM     22  C   UNL     1       3.282  -3.057   0.000  0.00  0.00    +0.000 C 
ENDBRANCH  19  22
ENDBRANCH  16  19
ENDBRANCH   1  17
BRANCH   1  23
ATOM     23  CB  UNL     1       1.455  -0.710   0.000  0.00  0.00    +0.000 C 
BRANCH  23  24
ATOM     24  SG  UNL     1       1.119   0.044   0.000  0.00  0.00    +0.000 S 
BRANCH  24  28
ATOM     25  O   UNL     1       2.017   1.981   0.000  0.00  0.00    +0.000 OA
ATOM     26  O   UNL     1       3.469   1.751   0.000  0.00  0.00    +0.000 OA
ATOM     27  C   UNL     1       1.349   1.496   0.000  0.00  0.00    +0.000 C 
ATOM     28  C   UNL     1       1.604   0.711   0.000  0.00  0.00    +0.000 C 
ATOM     29  C   UNL     1       2.429   0.711   0.000  0.00  0.00    +0.000 C 
ATOM     30  C   UNL     1       2.684   1.496   0.000  0.00  0.00    +0.000 C 
BRANCH  27  31
ATOM     31  C   UNL     1       0.565   1.751   0.000  0.00  0.00    +0.000 C 
BRANCH  31  32
ATOM     32  C   UNL     1       0.393   2.558   0.000  0.00  0.00    +0.000 C 
BRANCH  32  33
ATOM     33  C   UNL     1      -0.392   2.813   0.000  0.00  0.00    +0.000 C 
BRANCH  33  34
ATOM     34  C   UNL     1      -0.563   3.620   0.000  0.00  0.00    +0.000 C 
ATOM     35  C   UNL     1      -1.348   3.875   0.000  0.00  0.00    +0.000 C 
ENDBRANCH  33  34
ENDBRANCH  32  33
ENDBRANCH  31  32
ENDBRANCH  27  31
ENDBRANCH  24  28
ENDBRANCH  23  24
ENDBRANCH   1  23
TORSDOF 16
