REMARK  Name = 
REMARK  2 active torsions:
REMARK  status: ('A' for Active; 'I' for Inactive)
REMARK    1  A    between atoms: C_16  and  O_21
REMARK    2  A    between atoms: O_21  and  C_23
REMARK                            x       y       z     vdW  Elec       q    Type
REMARK                         _______ _______ _______ _____ _____    ______ ____
ROOT
ATOM      1  C   UNL     1      -0.488  -0.178   0.000  0.00  0.00    +0.000 C 
ATOM      2  C   UNL     1       0.229  -0.575   0.000  0.00  0.00    +0.000 C 
ATOM      3  C   UNL     1      -1.185  -0.589   0.000  0.00  0.00    +0.000 C 
ATOM      4  C   UNL     1      -0.487   0.647   0.000  0.00  0.00    +0.000 C 
ATOM      5  C   UNL     1       0.931  -0.151   0.000  0.00  0.00    +0.000 C 
ATOM      6  C   UNL     1       0.243  -1.404   0.000  0.00  0.00    +0.000 C 
ATOM      7  C   UNL     1      -1.188  -1.406   0.000  0.00  0.00    +0.000 C 
ATOM      8  C   UNL     1      -1.911  -0.182   0.000  0.00  0.00    +0.000 C 
ATOM      9  C   UNL     1      -1.190   0.247   0.000  0.00  0.00    +0.000 C 
ATOM     10  C   UNL     1       0.194   1.063   0.000  0.00  0.00    +0.000 C 
ATOM     11  C   UNL     1       0.933   0.669   0.000  0.00  0.00    +0.000 C 
ATOM     12  C   UNL     1       1.724  -0.384   0.000  0.00  0.00    +0.000 C 
ATOM     13  C   UNL     1      -0.485  -1.825   0.000  0.00  0.00    +0.000 C 
ATOM     14  C   UNL     1      -1.909  -1.837   0.000  0.00  0.00    +0.000 C 
ATOM     15  C   UNL     1      -2.633  -0.593   0.000  0.00  0.00    +0.000 C 
ATOM     16  C   UNL     1       1.706   0.932   0.000  0.00  0.00    +0.000 C 
ATOM     17  C   UNL     1       0.913   1.495   0.000  0.00  0.00    +0.000 C 
ATOM     18  C   UNL     1       2.186   0.278   0.000  0.00  0.00    +0.000 C 
ATOM     19  C   UNL     1      -2.633  -1.442   0.000  0.00  0.00    +0.000 C 
ATOM     20 CL   UNL     1      -1.907  -2.663   0.000  0.00  0.00    +0.000 Cl
ATOM     21  O   UNL     1      -3.341  -1.877   0.000  0.00  0.00    +0.000 OA
ENDROOT
BRANCH  16  22
ATOM     22  O   UNL     1       1.983   1.723   0.000  0.00  0.00    +0.000 OA
BRANCH  22  23
ATOM     23  C   UNL     1       2.782   1.891   0.000  0.00  0.00    +0.000 C 
ATOM     24  C   UNL     1       3.341   1.296   0.000  0.00  0.00    +0.000 C 
ATOM     25  O   UNL     1       3.027   2.663   0.000  0.00  0.00    +0.000 OA
ENDBRANCH  22  23
ENDBRANCH  16  22
TORSDOF 2
