REMARK  Name = 
REMARK  4 active torsions:
REMARK  status: ('A' for Active; 'I' for Inactive)
REMARK    1  A    between atoms: C_7  and  C_19
REMARK    2  A    between atoms: C_8  and  O_18
REMARK    3  A    between atoms: C_19  and  O_20
REMARK    4  A    between atoms: O_20  and  C_21
REMARK                            x       y       z     vdW  Elec       q    Type
REMARK                         _______ _______ _______ _____ _____    ______ ____
ROOT
ATOM      1  C   UNL     1      -0.313  -0.447   0.000  0.00  0.00    +0.000 C 
ATOM      2  C   UNL     1      -0.313  -1.272   0.000  0.00  0.00    +0.000 C 
ATOM      3  C   UNL     1      -1.027  -0.034   0.000  0.00  0.00    +0.000 C 
ATOM      4  C   UNL     1      -1.027  -1.684   0.000  0.00  0.00    +0.000 C 
ATOM      5  C   UNL     1      -1.742  -0.447   0.000  0.00  0.00    +0.000 C 
ATOM      6  C   UNL     1      -1.742  -1.272   0.000  0.00  0.00    +0.000 C 
ATOM      7  C   UNL     1       0.472  -0.192   0.000  0.00  0.00    +0.000 C 
ATOM      8  C   UNL     1       0.957  -0.859   0.000  0.00  0.00    +0.000 C 
ATOM      9  N   UNL     1       0.472  -1.527   0.000  0.00  0.00    +0.000 N 
ATOM     10  C   UNL     1       1.742  -1.114   0.000  0.00  0.00    +0.000 C 
ATOM     11  C   UNL     1       1.742  -1.939   0.000  0.00  0.00    +0.000 C 
ATOM     12  C   UNL     1       0.957  -2.194   0.000  0.00  0.00    +0.000 C 
ATOM     13  O   UNL     1      -1.027   0.791   0.000  0.00  0.00    +0.000 OA
ATOM     14  O   UNL     1      -1.027  -2.509   0.000  0.00  0.00    +0.000 OA
ATOM     15  N   UNL     1      -2.456  -0.034   0.000  0.00  0.00    +0.000 NA
ATOM     16  N   UNL     1       2.456  -1.527   0.000  0.00  0.00    +0.000 NA
ATOM     17  C   UNL     1      -2.456  -1.684   0.000  0.00  0.00    +0.000 C 
ENDROOT
BRANCH   8  18
ATOM     18  O   UNL     1       1.442  -0.192   0.000  0.00  0.00    +0.000 OA
ATOM     19  C   UNL     1       1.450   0.689   0.000  0.00  0.00    +0.000 C 
ENDBRANCH   8  18
BRANCH   7  20
ATOM     20  C   UNL     1       0.727   0.593   0.000  0.00  0.00    +0.000 C 
BRANCH  20  21
ATOM     21  O   UNL     1       0.175   1.206   0.000  0.00  0.00    +0.000 OA
BRANCH  21  22
ATOM     22  C   UNL     1       0.430   1.990   0.000  0.00  0.00    +0.000 C 
ATOM     23  N   UNL     1       1.237   2.162   0.000  0.00  0.00    +0.000 NA
ATOM     24  O   UNL     1      -0.122   2.603   0.000  0.00  0.00    +0.000 OA
ENDBRANCH  21  22
ENDBRANCH  20  21
ENDBRANCH   7  20
TORSDOF 4
