REMARK  Name = 
REMARK  5 active torsions:
REMARK  status: ('A' for Active; 'I' for Inactive)
REMARK    1  A    between atoms: C_6  and  N_8
REMARK    2  A    between atoms: C_11  and  C_16
REMARK    3  A    between atoms: C_18  and  N_24
REMARK    4  A    between atoms: C_26  and  C_27
REMARK    5  A    between atoms: C_31  and  C_33
REMARK                            x       y       z     vdW  Elec       q    Type
REMARK                         _______ _______ _______ _____ _____    ______ ____
ROOT
ATOM      1  C   UNL     1      -0.379   1.091   0.000  0.00  0.00    +0.000 A 
ATOM      2  C   UNL     1       0.336   0.679   0.000  0.00  0.00    +0.000 A 
ATOM      3  C   UNL     1       1.050   1.091   0.000  0.00  0.00    +0.000 A 
ATOM      4  C   UNL     1       1.050   1.917   0.000  0.00  0.00    +0.000 A 
ATOM      5  C   UNL     1       0.336   2.329   0.000  0.00  0.00    +0.000 A 
ATOM      6  C   UNL     1      -0.379   1.917   0.000  0.00  0.00    +0.000 A 
ATOM      7 CL   UNL     1       0.336  -0.146   0.000  0.00  0.00    +0.000 Cl
ENDROOT
BRANCH   1  11
ATOM      8  N   UNL     1      -2.522  -0.146   0.000  0.00  0.00    +0.000 N 
ATOM      9  C   UNL     1      -1.807  -0.558   0.000  0.00  0.00    +0.000 C 
ATOM     10  C   UNL     1      -1.093  -0.146   0.000  0.00  0.00    +0.000 C 
ATOM     11  C   UNL     1      -1.093   0.679   0.000  0.00  0.00    +0.000 C 
ATOM     12  N   UNL     1      -1.807   1.091   0.000  0.00  0.00    +0.000 NA
ATOM     13  C   UNL     1      -2.522   0.679   0.000  0.00  0.00    +0.000 C 
ATOM     14  N   UNL     1      -3.236   1.091   0.000  0.00  0.00    +0.000 NA
ATOM     15  O   UNL     1      -1.807  -1.383   0.000  0.00  0.00    +0.000 OA
ATOM     16  C   UNL     1      -1.093   1.504   0.000  0.00  0.00    +0.000 C 
BRANCH   8  22
ATOM     17  C   UNL     1      -3.951  -0.146   0.000  0.00  0.00    +0.000 C 
ATOM     18  C   UNL     1      -4.665  -0.558   0.000  0.00  0.00    +0.000 C 
ATOM     19  O   UNL     1      -4.665  -1.383   0.000  0.00  0.00    +0.000 OA
ATOM     20  C   UNL     1      -3.951  -1.796   0.000  0.00  0.00    +0.000 C 
ATOM     21  C   UNL     1      -3.236  -1.383   0.000  0.00  0.00    +0.000 C 
ATOM     22  C   UNL     1      -3.236  -0.558   0.000  0.00  0.00    +0.000 C 
ATOM     23  C   UNL     1      -5.380  -0.146   0.000  0.00  0.00    +0.000 C 
ENDBRANCH   8  22
ENDBRANCH   1  11
BRANCH   3  24
ATOM     24  N   UNL     1       1.765   0.679   0.000  0.00  0.00    +0.000 NA
ATOM     25  O   UNL     1       2.468   1.929   0.000  0.00  0.00    +0.000 OA
ATOM     26  C   UNL     1       2.479   1.104   0.000  0.00  0.00    +0.000 C 
BRANCH  26  27
ATOM     27  C   UNL     1       3.199   0.701   0.000  0.00  0.00    +0.000 A 
ATOM     28  C   UNL     1       3.199  -0.124   0.000  0.00  0.00    +0.000 A 
ATOM     29  C   UNL     1       3.913  -0.536   0.000  0.00  0.00    +0.000 A 
ATOM     30  C   UNL     1       4.628  -0.124   0.000  0.00  0.00    +0.000 A 
ATOM     31  C   UNL     1       4.628   0.701   0.000  0.00  0.00    +0.000 A 
ATOM     32  C   UNL     1       3.913   1.113   0.000  0.00  0.00    +0.000 A 
BRANCH  31  33
ATOM     33  C   UNL     1       5.343   1.113   0.000  0.00  0.00    +0.000 C 
ATOM     34  N   UNL     1       6.057   1.526   0.000  0.00  0.00    +0.000 NA
ENDBRANCH  31  33
ENDBRANCH  26  27
ENDBRANCH   3  24
TORSDOF 5
