REMARK  Name = 
REMARK  10 active torsions:
REMARK  status: ('A' for Active; 'I' for Inactive)
REMARK    1  A    between atoms: C_2  and  C_4
REMARK    2  A    between atoms: C_4  and  N_5
REMARK    3  A    between atoms: C_14  and  N_15
REMARK    4  A    between atoms: C_16  and  C_18
REMARK    5  A    between atoms: C_18  and  C_19
REMARK    6  A    between atoms: C_19  and  C_20
REMARK    7  A    between atoms: C_20  and  C_21
REMARK    8  A    between atoms: C_20  and  C_33
REMARK    9  A    between atoms: C_21  and  C_22
REMARK   10  A    between atoms: C_22  and  C_23
REMARK                            x       y       z     vdW  Elec       q    Type
REMARK                         _______ _______ _______ _____ _____    ______ ____
ROOT
ATOM      1  C   UNL     1       6.289  -8.679   0.000  0.00  0.00    +0.000 C 
ATOM      2  C   UNL     1       6.460  -9.486   0.000  0.00  0.00    +0.000 C 
ATOM      3  C   UNL     1       5.746  -9.898   0.000  0.00  0.00    +0.000 C 
ATOM      4  C   UNL     1       5.133  -9.346   0.000  0.00  0.00    +0.000 C 
ATOM      5  C   UNL     1       5.468  -8.592   0.000  0.00  0.00    +0.000 C 
ENDROOT
BRANCH   1   7
ATOM      6  N   UNL     1       7.594  -9.260   0.000  0.00  0.00    +0.000 NA
ATOM      7  C   UNL     1       7.109  -8.592   0.000  0.00  0.00    +0.000 C 
ATOM      8  O   UNL     1       7.445  -7.839   0.000  0.00  0.00    +0.000 OA
BRANCH   6  18
ATOM      9  N   UNL     1       9.474  -8.130   0.000  0.00  0.00    +0.000 N 
ATOM     10  C   UNL     1      10.169  -8.575   0.000  0.00  0.00    +0.000 A 
ATOM     11  C   UNL     1      10.836  -8.090   0.000  0.00  0.00    +0.000 A 
ATOM     12  C   UNL     1      11.590  -8.425   0.000  0.00  0.00    +0.000 A 
ATOM     13  C   UNL     1      11.676  -9.246   0.000  0.00  0.00    +0.000 A 
ATOM     14  C   UNL     1      11.009  -9.731   0.000  0.00  0.00    +0.000 A 
ATOM     15  C   UNL     1      10.255  -9.395   0.000  0.00  0.00    +0.000 A 
ATOM     16  C   UNL     1       9.667  -9.974   0.000  0.00  0.00    +0.000 C 
ATOM     17  C   UNL     1       8.848  -9.876   0.000  0.00  0.00    +0.000 C 
ATOM     18  C   UNL     1       8.415  -9.174   0.000  0.00  0.00    +0.000 C 
ATOM     19  C   UNL     1       8.693  -8.397   0.000  0.00  0.00    +0.000 C 
ATOM     20  O   UNL     1       8.114  -7.809   0.000  0.00  0.00    +0.000 OA
BRANCH   9  21
ATOM     21  C   UNL     1       9.572  -7.311   0.000  0.00  0.00    +0.000 C 
BRANCH  21  23
ATOM     22  O   UNL     1      10.429  -6.168   0.000  0.00  0.00    +0.000 OA
ATOM     23  C   UNL     1      10.331  -6.987   0.000  0.00  0.00    +0.000 C 
ATOM     24  O   UNL     1      10.991  -7.482   0.000  0.00  0.00    +0.000 OA
ENDBRANCH  21  23
ENDBRANCH   9  21
ENDBRANCH   6  18
ENDBRANCH   1   7
BRANCH   1  25
ATOM     25  C   UNL     1       6.289  -7.854   0.000  0.00  0.00    +0.000 C 
BRANCH  25  26
ATOM     26  C   UNL     1       5.574  -7.441   0.000  0.00  0.00    +0.000 C 
BRANCH  26  27
ATOM     27  C   UNL     1       4.860  -7.854   0.000  0.00  0.00    +0.000 C 
ATOM     28  O   UNL     1       4.860  -8.679   0.000  0.00  0.00    +0.000 OA
ATOM     29  O   UNL     1       4.145  -7.441   0.000  0.00  0.00    +0.000 OA
ENDBRANCH  26  27
BRANCH  26  30
ATOM     30  C   UNL     1       5.574  -6.616   0.000  0.00  0.00    +0.000 C 
BRANCH  30  31
ATOM     31  C   UNL     1       4.860  -6.204   0.000  0.00  0.00    +0.000 C 
BRANCH  31  32
ATOM     32  C   UNL     1       4.860  -5.379   0.000  0.00  0.00    +0.000 A 
ATOM     33  C   UNL     1       4.145  -4.966   0.000  0.00  0.00    +0.000 A 
ATOM     34  C   UNL     1       4.145  -4.141   0.000  0.00  0.00    +0.000 A 
ATOM     35  C   UNL     1       4.860  -3.729   0.000  0.00  0.00    +0.000 A 
ATOM     36  C   UNL     1       5.574  -4.141   0.000  0.00  0.00    +0.000 A 
ATOM     37  C   UNL     1       6.289  -3.729   0.000  0.00  0.00    +0.000 A 
ATOM     38  C   UNL     1       7.003  -4.141   0.000  0.00  0.00    +0.000 A 
ATOM     39  C   UNL     1       7.003  -4.966   0.000  0.00  0.00    +0.000 A 
ATOM     40  C   UNL     1       6.289  -5.379   0.000  0.00  0.00    +0.000 A 
ATOM     41  C   UNL     1       5.574  -4.966   0.000  0.00  0.00    +0.000 A 
ENDBRANCH  31  32
ENDBRANCH  30  31
ENDBRANCH  26  30
ENDBRANCH  25  26
ENDBRANCH   1  25
TORSDOF 10
