REMARK  Name = 
REMARK  4 active torsions:
REMARK  status: ('A' for Active; 'I' for Inactive)
REMARK    1  A    between atoms: C_2  and  N_5
REMARK    2  A    between atoms: C_7  and  C_8
REMARK    3  A    between atoms: C_9  and  S_18
REMARK    4  A    between atoms: C_11  and  S_14
REMARK                            x       y       z     vdW  Elec       q    Type
REMARK                         _______ _______ _______ _____ _____    ______ ____
ROOT
ATOM      1  C   UNL     1       0.715   1.238   0.000  0.00  0.00    +0.000 A 
ATOM      2  C   UNL     1       1.429   0.825   0.000  0.00  0.00    +0.000 A 
ATOM      3  C   UNL     1       1.429   0.000   0.000  0.00  0.00    +0.000 A 
ATOM      4  C   UNL     1       0.715  -0.412   0.000  0.00  0.00    +0.000 A 
ATOM      5  C   UNL     1       0.000   0.000   0.000  0.00  0.00    +0.000 A 
ATOM      6  C   UNL     1       0.000   0.825   0.000  0.00  0.00    +0.000 A 
ENDROOT
BRANCH   4   7
ATOM      7  S   UNL     1       0.715  -1.238   0.000  0.00  0.00    +0.000 S 
ATOM      8  O   UNL     1       0.715  -2.062   0.000  0.00  0.00    +0.000 OA
ATOM      9  O   UNL     1      -0.111  -1.238   0.000  0.00  0.00    +0.000 OA
ATOM     10  O   UNL     1       1.540  -1.238   0.000  0.00  0.00    +0.000 OA
ENDBRANCH   4   7
BRANCH   2  11
ATOM     11  S   UNL     1       2.143   1.238   0.000  0.00  0.00    +0.000 S 
ATOM     12  O   UNL     1       2.858   1.650   0.000  0.00  0.00    +0.000 OA
ATOM     13  O   UNL     1       2.556   0.523   0.000  0.00  0.00    +0.000 OA
ATOM     14  O   UNL     1       1.731   1.952   0.000  0.00  0.00    +0.000 OA
ENDBRANCH   2  11
BRANCH   1  17
ATOM     15  N   UNL     1       0.000   2.475   0.000  0.00  0.00    +0.000 N 
ATOM     16  O   UNL     1      -0.715   2.062   0.000  0.00  0.00    +0.000 OA
ATOM     17  C   UNL     1       0.715   2.062   0.000  0.00  0.00    +0.000 C 
BRANCH  15  19
ATOM     18  C   UNL     1       0.000   4.125   0.000  0.00  0.00    +0.000 C 
ATOM     19  C   UNL     1       0.000   3.300   0.000  0.00  0.00    +0.000 C 
ATOM     20  C   UNL     1      -0.825   3.300   0.000  0.00  0.00    +0.000 C 
ATOM     21  C   UNL     1       0.825   3.300   0.000  0.00  0.00    +0.000 C 
ENDBRANCH  15  19
ENDBRANCH   1  17
TORSDOF 4
