REMARK  Name = 
REMARK  2 active torsions:
REMARK  status: ('A' for Active; 'I' for Inactive)
REMARK    1  A    between atoms: C_5  and  C_8
REMARK    2  A    between atoms: C_5  and  C_9
REMARK                            x       y       z     vdW  Elec       q    Type
REMARK                         _______ _______ _______ _____ _____    ______ ____
ROOT
ATOM      1  C   UNL     1      -0.715   1.238   0.000  0.00  0.00    +0.000 C 
ENDROOT
BRANCH   1   5
ATOM      2  C   UNL     1      -0.715   3.712   0.000  0.00  0.00    +0.000 A 
ATOM      3  C   UNL     1      -1.429   3.300   0.000  0.00  0.00    +0.000 A 
ATOM      4  C   UNL     1       0.000   2.475   0.000  0.00  0.00    +0.000 A 
ATOM      5  C   UNL     1      -0.715   2.062   0.000  0.00  0.00    +0.000 A 
ATOM      6  C   UNL     1       0.000   3.300   0.000  0.00  0.00    +0.000 A 
ATOM      7  C   UNL     1      -1.429   2.475   0.000  0.00  0.00    +0.000 A 
ATOM      8 CL   UNL     1       0.715   3.712   0.000  0.00  0.00    +0.000 Cl
ATOM      9  O   UNL     1      -2.143   2.062   0.000  0.00  0.00    +0.000 OA
ENDBRANCH   1   5
BRANCH   1  13
ATOM     10  C   UNL     1       1.429   0.000   0.000  0.00  0.00    +0.000 A 
ATOM     11  C   UNL     1       1.429   0.825   0.000  0.00  0.00    +0.000 A 
ATOM     12  C   UNL     1       0.000   0.000   0.000  0.00  0.00    +0.000 A 
ATOM     13  C   UNL     1       0.000   0.825   0.000  0.00  0.00    +0.000 A 
ATOM     14  C   UNL     1       0.715  -0.412   0.000  0.00  0.00    +0.000 A 
ATOM     15  C   UNL     1       0.715   1.238   0.000  0.00  0.00    +0.000 A 
ATOM     16 CL   UNL     1       0.715  -1.238   0.000  0.00  0.00    +0.000 Cl
ATOM     17  O   UNL     1       0.715   2.062   0.000  0.00  0.00    +0.000 OA
ENDBRANCH   1  13
TORSDOF 2
