REMARK  Name = 
REMARK  49 active torsions:
REMARK  status: ('A' for Active; 'I' for Inactive)
REMARK    1  A    between atoms: C_6  and  C_37
REMARK    2  A    between atoms: C_8  and  O_9
REMARK    3  A    between atoms: O_9  and  C_10
REMARK    4  A    between atoms: C_26  and  O_27
REMARK    5  A    between atoms: C_37  and  C_38
REMARK    6  A    between atoms: C_38  and  O_39
REMARK    7  A    between atoms: O_39  and  C_40
REMARK    8  A    between atoms: C_40  and  C_41
REMARK    9  A    between atoms: C_41  and  C_42
REMARK   10  A    between atoms: C_42  and  C_43
REMARK   11  A    between atoms: C_43  and  C_44
REMARK   12  A    between atoms: N_45  and  C_49
REMARK   13  A    between atoms: C_49  and  C_130
REMARK   14  A    between atoms: C_50  and  C_51
REMARK   15  A    between atoms: C_50  and  C_130
REMARK   16  A    between atoms: C_51  and  C_52
REMARK   17  A    between atoms: C_52  and  N_53
REMARK   18  A    between atoms: C_52  and  C_131
REMARK   19  A    between atoms: C_59  and  CA_61
REMARK   20  A    between atoms: N_60  and  CA_61
REMARK   21  A    between atoms: CA_61  and  CB_62
REMARK   22  A    between atoms: CB_62  and  CG_63
REMARK   23  A    between atoms: N_67  and  CA_68
REMARK   24  A    between atoms: CA_68  and  C_70
REMARK   25  A    between atoms: CA_68  and  CB_71
REMARK   26  A    between atoms: CB_71  and  CG_73
REMARK   27  A    between atoms: N_81  and  C_82
REMARK   28  A    between atoms: C_82  and  C_84
REMARK   29  A    between atoms: C_82  and  C_85
REMARK   30  A    between atoms: C_85  and  O_86
REMARK   31  A    between atoms: N_87  and  C_88
REMARK   32  A    between atoms: C_88  and  C_90
REMARK   33  A    between atoms: C_88  and  C_91
REMARK   34  A    between atoms: C_91  and  C_93
REMARK   35  A    between atoms: C_96  and  O_98
REMARK   36  A    between atoms: N_100  and  C_101
REMARK   37  A    between atoms: C_101  and  C_103
REMARK   38  A    between atoms: C_101  and  C_104
REMARK   39  A    between atoms: C_104  and  C_105
REMARK   40  A    between atoms: N_108  and  C_113
REMARK   41  A    between atoms: N_112  and  C_117
REMARK   42  A    between atoms: C_113  and  C_115
REMARK   43  A    between atoms: C_113  and  C_129
REMARK   44  A    between atoms: C_115  and  C_116
REMARK   45  A    between atoms: C_116  and  C_117
REMARK   46  A    between atoms: C_118  and  C_119
REMARK   47  A    between atoms: N_125  and  C_126
REMARK   48  A    between atoms: C_126  and  C_128
REMARK   49  A    between atoms: CA_135  and  C_138
REMARK                            x       y       z     vdW  Elec       q    Type
REMARK                         _______ _______ _______ _____ _____    ______ ____
ROOT
ATOM      1  C   UNK A   3       0.962   6.446   0.000  0.00  0.00    +0.000 C 
ENDROOT
BRANCH   1   3
ATOM      2  N   UNK A   3       2.669   6.632   0.000  0.00  0.00    +0.000 NA
ATOM      3  C   UNK A   3       1.701   6.890   0.000  0.00  0.00    +0.000 C 
ATOM      4  O   UNK A   3       1.701   7.575   0.000  0.00  0.00    +0.000 OA
BRANCH   2   5
ATOM      5  C   UNK A   3       3.218   7.034   0.000  0.00  0.00    +0.000 C 
BRANCH   5   7
ATOM      6  O   UNK A   3       3.796   5.944   0.000  0.00  0.00    +0.000 OA
ATOM      7  C   UNK A   3       3.796   6.643   0.000  0.00  0.00    +0.000 C 
ATOM      8  N   UNK A   3       4.997   6.637   0.000  0.00  0.00    +0.000 NA
BRANCH   8   9
ATOM      9  C   UNK A   3       5.391   6.925   0.000  0.00  0.00    +0.000 C 
BRANCH   9  16
ATOM     10  O   UNK A   3       5.805   6.144   0.000  0.00  0.00    +0.000 OA
ATOM     11  C   UNK A   3       8.753   7.027   0.000  0.00  0.00    +0.000 C 
ATOM     12  C   UNK A   3       8.753   7.715   0.000  0.00  0.00    +0.000 C 
ATOM     13  C   UNK A   3       8.021   7.822   0.000  0.00  0.00    +0.000 C 
ATOM     14  C   UNK A   3       7.692   7.159   0.000  0.00  0.00    +0.000 C 
ATOM     15  N   UNK A   3       8.219   6.635   0.000  0.00  0.00    +0.000 N 
ATOM     16  C   UNK A   3       5.805   6.645   0.000  0.00  0.00    +0.000 C 
BRANCH  11  17
ATOM     17  C   UNK A   3       9.319   6.647   0.000  0.00  0.00    +0.000 C 
ATOM     18  O   UNK A   3       9.319   5.965   0.000  0.00  0.00    +0.000 OA
ATOM     19  N   UNK A   3       9.892   6.635   0.000  0.00  0.00    +0.000 NA
BRANCH  19  20
ATOM     20  C   UNK A   3      10.540   7.108   0.000  0.00  0.00    +0.000 C 
BRANCH  20  23
ATOM     21  N   UNK A   3      12.169   6.653   0.000  0.00  0.00    +0.000 NA
ATOM     22  O   UNK A   3      11.225   5.822   0.000  0.00  0.00    +0.000 OA
ATOM     23  C   UNK A   3      11.222   6.647   0.000  0.00  0.00    +0.000 C 
ENDBRANCH  20  23
ENDBRANCH  19  20
ENDBRANCH  11  17
ENDBRANCH   9  16
BRANCH   9  24
ATOM     24  C   UNK A   3       5.391   7.427   0.000  0.00  0.00    +0.000 C 
BRANCH  24  25
ATOM     25  C   UNK A   3       5.823   7.676   0.000  0.00  0.00    +0.000 C 
BRANCH  25  26
ATOM     26  C   UNK A   3       5.823   8.175   0.000  0.00  0.00    +0.000 C 
BRANCH  26  30
ATOM     27  C   UNK A   3       6.688   8.674   0.000  0.00  0.00    +0.000 C 
ATOM     28  N   UNK A   3       6.688   9.173   0.000  0.00  0.00    +0.000 NA
ATOM     29  N   UNK A   3       7.120   8.424   0.000  0.00  0.00    +0.000 NA
ATOM     30  N   UNK A   3       6.253   8.408   0.000  0.00  0.00    +0.000 NA
ENDBRANCH  26  30
ENDBRANCH  25  26
ENDBRANCH  24  25
ENDBRANCH   9  24
ENDBRANCH   8   9
ENDBRANCH   5   7
BRANCH   5  31
ATOM     31  C   UNK A   3       3.218   7.734   0.000  0.00  0.00    +0.000 C 
BRANCH  31  32
ATOM     32  C   UNK A   3       3.821   8.082   0.000  0.00  0.00    +0.000 C 
ATOM     33  C   UNK A   3       3.821   8.778   0.000  0.00  0.00    +0.000 C 
ATOM     34  C   UNK A   3       4.424   7.734   0.000  0.00  0.00    +0.000 C 
ENDBRANCH  31  32
ENDBRANCH   5  31
ENDBRANCH   2   5
ENDBRANCH   1   3
BRANCH   1  35
ATOM     35  N   UNK A   3       0.295   6.818   0.000  0.00  0.00    +0.000 NA
ATOM     36  O   UNK A   3      -0.676   6.082   0.000  0.00  0.00    +0.000 OA
ATOM     37  C   UNK A   3      -0.676   6.609   0.000  0.00  0.00    +0.000 C 
BRANCH  37  38
ATOM     38  C   UNK A   3      -1.111   6.904   0.000  0.00  0.00    +0.000 C 
BRANCH  38  41
ATOM     39  O   UNK A   3      -2.123   5.915   0.000  0.00  0.00    +0.000 OA
ATOM     40  C   UNK A   3      -2.123   6.610   0.000  0.00  0.00    +0.000 C 
ATOM     41  N   UNK A   3      -1.525   6.601   0.000  0.00  0.00    +0.000 NA
BRANCH  40  42
ATOM     42  C   UNK A   3      -2.699   6.999   0.000  0.00  0.00    +0.000 C 
BRANCH  42  45
ATOM     43  O   TRP A   2      -4.711   6.020   0.000  0.00  0.00    +0.000 OA
ATOM     44  C   TRP A   2      -4.711   6.609   0.000  0.00  0.00    +0.000 C 
ATOM     45  N   UNK A   3      -3.245   6.600   0.000  0.00  0.00    +0.000 NA
BRANCH  44  46
ATOM     46  CA  TRP A   2      -5.198   6.939   0.000  0.00  0.00    +0.000 C 
BRANCH  46  49
ATOM     47  O   GLN A   1      -7.299   5.931   0.000  0.00  0.00    +0.000 OA
ATOM     48  C   GLN A   1      -7.299   6.606   0.000  0.00  0.00    +0.000 C 
ATOM     49  N   TRP A   2      -5.661   6.601   0.000  0.00  0.00    +0.000 NA
BRANCH  48  50
ATOM     50  CA  GLN A   1      -7.858   6.984   0.000  0.00  0.00    +0.000 C 
BRANCH  50  51
ATOM     51  N   GLN A   1      -8.388   6.596   0.000  0.00  0.00    +0.000 NA
ATOM     52  C   GLN A   1      -9.201   7.222   0.000  0.00  0.00    +0.000 C 
ATOM     53  O   GLN A   1      -8.839   8.006   0.000  0.00  0.00    +0.000 OA
BRANCH  52  56
ATOM     54  CG  GLN A   1     -11.130   7.816   0.000  0.00  0.00    +0.000 C 
ATOM     55  CB  GLN A   1     -10.305   7.816   0.000  0.00  0.00    +0.000 C 
ATOM     56  CA  GLN A   1     -10.050   7.031   0.000  0.00  0.00    +0.000 C 
ATOM     57  N   GLN A   1     -10.717   6.546   0.000  0.00  0.00    +0.000 NA
ATOM     58  CD  GLN A   1     -11.385   7.031   0.000  0.00  0.00    +0.000 C 
ATOM     59  OE1 GLN A   1     -12.169   6.776   0.000  0.00  0.00    +0.000 OA
ENDBRANCH  52  56
ENDBRANCH  50  51
BRANCH  50  60
ATOM     60  CB  GLN A   1      -7.858   7.661   0.000  0.00  0.00    +0.000 C 
BRANCH  60  62
ATOM     61  ND1 GLN A   1      -7.272   8.671   0.000  0.00  0.00    +0.000 NA
ATOM     62  CG  GLN A   1      -7.272   7.998   0.000  0.00  0.00    +0.000 A 
ATOM     63  CD2 GLN A   1      -6.635   7.784   0.000  0.00  0.00    +0.000 A 
ATOM     64  CE1 GLN A   1      -6.623   8.872   0.000  0.00  0.00    +0.000 A 
ATOM     65  NE2 GLN A   1      -6.234   8.324   0.000  0.00  0.00    +0.000 NA
ENDBRANCH  60  62
ENDBRANCH  50  60
ENDBRANCH  48  50
ENDBRANCH  46  49
BRANCH  46  66
ATOM     66  CB  TRP A   2      -5.198   7.530   0.000  0.00  0.00    +0.000 C 
BRANCH  66  69
ATOM     67  HE1 TRP A   2      -2.986   9.052   0.000  0.00  0.00    +0.000 HD
ATOM     68  CD1 TRP A   2      -4.121   7.692   0.000  0.00  0.00    +0.000 A 
ATOM     69  CG  TRP A   2      -4.690   7.825   0.000  0.00  0.00    +0.000 A 
ATOM     70  NE1 TRP A   2      -3.818   8.196   0.000  0.00  0.00    +0.000 N 
ATOM     71  CD2 TRP A   2      -4.743   8.409   0.000  0.00  0.00    +0.000 A 
ATOM     72  CE2 TRP A   2      -4.204   8.639   0.000  0.00  0.00    +0.000 A 
ATOM     73  CZ2 TRP A   2      -4.134   9.221   0.000  0.00  0.00    +0.000 A 
ATOM     74  CH2 TRP A   2      -4.606   9.572   0.000  0.00  0.00    +0.000 A 
ATOM     75  CZ3 TRP A   2      -5.145   9.342   0.000  0.00  0.00    +0.000 A 
ATOM     76  CE3 TRP A   2      -5.210   8.763   0.000  0.00  0.00    +0.000 A 
ENDBRANCH  66  69
ENDBRANCH  46  66
ENDBRANCH  44  46
ENDBRANCH  42  45
BRANCH  42  77
ATOM     77  C   UNK A   3      -2.699   7.697   0.000  0.00  0.00    +0.000 C 
BRANCH  77  79
ATOM     78  H   UNK A   3      -2.066   9.080   0.000  0.00  0.00    +0.000 HD
ATOM     79  O   UNK A   3      -2.098   8.043   0.000  0.00  0.00    +0.000 OA
ENDBRANCH  77  79
ENDBRANCH  42  77
ENDBRANCH  40  42
ENDBRANCH  38  41
BRANCH  38  80
ATOM     80  C   UNK A   3      -1.111   7.432   0.000  0.00  0.00    +0.000 C 
BRANCH  80  82
ATOM     81  C   UNK A   3      -0.657   8.220   0.000  0.00  0.00    +0.000 A 
ATOM     82  C   UNK A   3      -0.657   7.696   0.000  0.00  0.00    +0.000 A 
ATOM     83  C   UNK A   3      -0.203   7.434   0.000  0.00  0.00    +0.000 A 
ATOM     84  C   UNK A   3       0.251   7.696   0.000  0.00  0.00    +0.000 A 
ATOM     85  C   UNK A   3       0.251   8.220   0.000  0.00  0.00    +0.000 A 
ATOM     86  C   UNK A   3      -0.203   8.483   0.000  0.00  0.00    +0.000 A 
BRANCH  85  88
ATOM     87  H   UNK A   3       0.665   9.594   0.000  0.00  0.00    +0.000 HD
ATOM     88  O   UNK A   3       0.705   8.483   0.000  0.00  0.00    +0.000 OA
ENDBRANCH  85  88
ENDBRANCH  80  82
ENDBRANCH  38  80
ENDBRANCH  37  38
ENDBRANCH   1  35
BRANCH   1  89
ATOM     89  C   UNK A   3       0.962   5.463   0.000  0.00  0.00    +0.000 C 
BRANCH  89  90
ATOM     90  C   UNK A   3       0.458   4.624   0.000  0.00  0.00    +0.000 C 
BRANCH  90  91
ATOM     91  C   UNK A   3       0.942   3.785   0.000  0.00  0.00    +0.000 C 
BRANCH  91  92
ATOM     92  C   UNK A   3       0.457   2.946   0.000  0.00  0.00    +0.000 C 
BRANCH  92  94
ATOM     93  C   UNK A   3       0.457   1.269   0.000  0.00  0.00    +0.000 C 
ATOM     94  N   UNK A   3       0.942   2.108   0.000  0.00  0.00    +0.000 NA
ATOM     95  O   UNK A   3      -0.511   1.269   0.000  0.00  0.00    +0.000 OA
BRANCH  93  96
ATOM     96  C   UNK A   3       0.942   0.430   0.000  0.00  0.00    +0.000 C 
BRANCH  96  97
ATOM     97  C   UNK A   3       0.457  -0.408   0.000  0.00  0.00    +0.000 C 
BRANCH  97  98
ATOM     98  C   UNK A   3       0.942  -1.247   0.000  0.00  0.00    +0.000 C 
BRANCH  98  99
ATOM     99  C   UNK A   3       0.457  -2.086   0.000  0.00  0.00    +0.000 C 
ATOM    100  O   UNK A   3       0.942  -2.925   0.000  0.00  0.00    +0.000 OA
BRANCH  99 101
ATOM    101  O   UNK A   3      -0.511  -2.086   0.000  0.00  0.00    +0.000 OA
BRANCH 101 102
ATOM    102  C   UNK A   3      -0.995  -2.925   0.000  0.00  0.00    +0.000 C 
BRANCH 102 103
ATOM    103  C   UNK A   3      -1.936  -2.925   0.000  0.00  0.00    +0.000 C 
ATOM    104  O   UNK A   3      -2.636  -2.224   0.000  0.00  0.00    +0.000 OA
BRANCH 103 110
ATOM    105  C   UNK A   3      -5.747  -3.920   0.000  0.00  0.00    +0.000 A 
ATOM    106  C   UNK A   3      -4.912  -3.439   0.000  0.00  0.00    +0.000 A 
ATOM    107  O   UNK A   3      -4.912  -2.477   0.000  0.00  0.00    +0.000 OA
ATOM    108  C   UNK A   3      -4.082  -3.920   0.000  0.00  0.00    +0.000 A 
ATOM    109  C   UNK A   3      -3.268  -3.439   0.000  0.00  0.00    +0.000 C 
ATOM    110  C   UNK A   3      -2.423  -3.920   0.000  0.00  0.00    +0.000 C 
ATOM    111  C   UNK A   3      -2.423  -4.875   0.000  0.00  0.00    +0.000 C 
ATOM    112  C   UNK A   3      -3.268  -5.350   0.000  0.00  0.00    +0.000 C 
ATOM    113  C   UNK A   3      -4.082  -4.875   0.000  0.00  0.00    +0.000 A 
ATOM    114  C   UNK A   3      -4.912  -5.350   0.000  0.00  0.00    +0.000 A 
ATOM    115  O   UNK A   3      -4.747  -6.286   0.000  0.00  0.00    +0.000 OA
ATOM    116  C   UNK A   3      -5.747  -4.875   0.000  0.00  0.00    +0.000 A 
ATOM    117  C   UNK A   3      -6.580  -5.359   0.000  0.00  0.00    +0.000 C 
ATOM    118  C   UNK A   3      -7.410  -4.866   0.000  0.00  0.00    +0.000 A 
ATOM    119  C   UNK A   3      -8.254  -5.341   0.000  0.00  0.00    +0.000 A 
ATOM    120  C   UNK A   3      -9.075  -4.875   0.000  0.00  0.00    +0.000 A 
ATOM    121  C   UNK A   3      -9.075  -3.920   0.000  0.00  0.00    +0.000 A 
ATOM    122  C   UNK A   3      -8.254  -3.439   0.000  0.00  0.00    +0.000 A 
ATOM    123  C   UNK A   3      -7.410  -3.901   0.000  0.00  0.00    +0.000 A 
ATOM    124  C   UNK A   3      -6.589  -3.448   0.000  0.00  0.00    +0.000 C 
ATOM    125  O   UNK A   3      -6.589  -2.477   0.000  0.00  0.00    +0.000 OA
ATOM    126  O   UNK A   3      -6.580  -6.309   0.000  0.00  0.00    +0.000 OA
ATOM    127  O   UNK A   3      -1.401  -4.388   0.000  0.00  0.00    +0.000 OA
BRANCH 119 128
ATOM    128  O   UNK A   3      -8.254  -6.309   0.000  0.00  0.00    +0.000 OA
ATOM    129  C   UNK A   3      -9.075  -6.787   0.000  0.00  0.00    +0.000 C 
ENDBRANCH 119 128
BRANCH 112 130
ATOM    130  O   UNK A   3      -3.268  -6.748   0.000  0.00  0.00    +0.000 OA
BRANCH 130 131
ATOM    131  C   UNK A   3      -4.079  -7.229   0.000  0.00  0.00    +0.000 C 
ATOM    132  C   UNK A   3      -4.079  -8.172   0.000  0.00  0.00    +0.000 C 
ATOM    133  C   UNK A   3      -4.882  -8.695   0.000  0.00  0.00    +0.000 C 
ATOM    134  N   UNK A   3      -4.882  -9.594   0.000  0.00  0.00    +0.000 NA
ATOM    135  C   UNK A   3      -5.735  -8.220   0.000  0.00  0.00    +0.000 C 
ATOM    136  O   UNK A   3      -6.484  -8.714   0.000  0.00  0.00    +0.000 OA
ATOM    137  C   UNK A   3      -5.735  -7.268   0.000  0.00  0.00    +0.000 C 
ATOM    138  C   UNK A   3      -6.439  -6.934   0.000  0.00  0.00    +0.000 C 
ATOM    139  O   UNK A   3      -4.918  -6.769   0.000  0.00  0.00    +0.000 OA
ENDBRANCH 130 131
ENDBRANCH 112 130
ENDBRANCH 103 110
ENDBRANCH 102 103
ENDBRANCH 101 102
ENDBRANCH  99 101
ENDBRANCH  98  99
ENDBRANCH  97  98
ENDBRANCH  96  97
ENDBRANCH  93  96
ENDBRANCH  92  94
ENDBRANCH  91  92
ENDBRANCH  90  91
ENDBRANCH  89  90
ENDBRANCH   1  89
TORSDOF 49
