REMARK  Name = 
REMARK  10 active torsions:
REMARK  status: ('A' for Active; 'I' for Inactive)
REMARK    1  A    between atoms: C_1  and  O_4
REMARK    2  A    between atoms: C_2  and  C_5
REMARK    3  A    between atoms: O_4  and  C_7
REMARK    4  A    between atoms: C_7  and  C_11
REMARK    5  A    between atoms: C_8  and  N_12
REMARK    6  A    between atoms: C_11  and  C_13
REMARK    7  A    between atoms: C_13  and  N_16
REMARK    8  A    between atoms: N_16  and  C_19
REMARK    9  A    between atoms: N_17  and  C_20
REMARK   10  A    between atoms: N_17  and  C_23
REMARK                            x       y       z     vdW  Elec       q    Type
REMARK                         _______ _______ _______ _____ _____    ______ ____
ROOT
ATOM      1  C   UNL     1      -0.748   0.893   0.000  0.00  0.00    +0.000 A 
ATOM      2  C   UNL     1      -1.454   0.478   0.000  0.00  0.00    +0.000 A 
ATOM      3  C   UNL     1       0.000   0.478   0.000  0.00  0.00    +0.000 A 
ATOM      4  C   UNL     1       0.000  -0.353   0.000  0.00  0.00    +0.000 A 
ATOM      5  C   UNL     1      -0.706  -0.768   0.000  0.00  0.00    +0.000 A 
ATOM      6  C   UNL     1      -1.454  -0.353   0.000  0.00  0.00    +0.000 A 
ENDROOT
BRANCH   5   7
ATOM      7  N   UNL     1      -0.706  -1.641   0.000  0.00  0.00    +0.000 NA
ATOM      8  C   UNL     1      -1.412  -2.056   0.000  0.00  0.00    +0.000 C 
ATOM      9  N   UNL     1      -2.160  -1.682   0.000  0.00  0.00    +0.000 N 
ATOM     10  O   UNL     1      -1.412  -2.887   0.000  0.00  0.00    +0.000 OA
BRANCH   9  11
ATOM     11  C   UNL     1      -2.160  -0.810   0.000  0.00  0.00    +0.000 C 
ATOM     12  C   UNL     1      -2.866  -0.395   0.000  0.00  0.00    +0.000 C 
ENDBRANCH   9  11
BRANCH   9  13
ATOM     13  C   UNL     1      -2.825  -2.098   0.000  0.00  0.00    +0.000 C 
ATOM     14  C   UNL     1      -3.572  -1.682   0.000  0.00  0.00    +0.000 C 
ENDBRANCH   9  13
ENDBRANCH   5   7
BRANCH   2  15
ATOM     15  C   UNL     1      -2.160   0.852   0.000  0.00  0.00    +0.000 C 
ATOM     16  C   UNL     1      -2.866   0.436   0.000  0.00  0.00    +0.000 C 
ATOM     17  O   UNL     1      -2.160   1.682   0.000  0.00  0.00    +0.000 OA
ENDBRANCH   2  15
BRANCH   1  18
ATOM     18  O   UNL     1      -0.748   1.724   0.000  0.00  0.00    +0.000 OA
BRANCH  18  19
ATOM     19  C   UNL     1      -0.042   2.139   0.000  0.00  0.00    +0.000 C 
BRANCH  19  20
ATOM     20  C   UNL     1       0.706   1.724   0.000  0.00  0.00    +0.000 C 
ATOM     21  O   UNL     1       0.706   0.893   0.000  0.00  0.00    +0.000 OA
BRANCH  20  22
ATOM     22  C   UNL     1       1.412   2.181   0.000  0.00  0.00    +0.000 C 
BRANCH  22  23
ATOM     23  N   UNL     1       2.160   1.765   0.000  0.00  0.00    +0.000 NA
BRANCH  23  24
ATOM     24  C   UNL     1       2.866   2.181   0.000  0.00  0.00    +0.000 C 
ATOM     25  C   UNL     1       3.572   2.596   0.000  0.00  0.00    +0.000 C 
ATOM     26  C   UNL     1       3.281   1.475   0.000  0.00  0.00    +0.000 C 
ATOM     27  C   UNL     1       2.451   2.887   0.000  0.00  0.00    +0.000 C 
ENDBRANCH  23  24
ENDBRANCH  22  23
ENDBRANCH  20  22
ENDBRANCH  19  20
ENDBRANCH  18  19
ENDBRANCH   1  18
TORSDOF 10
