REMARK  Name = 
REMARK  2 active torsions:
REMARK  status: ('A' for Active; 'I' for Inactive)
REMARK    1  A    between atoms: C_7  and  C_13
REMARK    2  A    between atoms: C_8  and  O_14
REMARK                            x       y       z     vdW  Elec       q    Type
REMARK                         _______ _______ _______ _____ _____    ______ ____
ROOT
ATOM      1  C   UNL     1      -0.711  -0.226   0.000  0.00  0.00    +0.000 A 
ATOM      2  C   UNL     1      -0.711  -1.051   0.000  0.00  0.00    +0.000 A 
ATOM      3  O   UNL     1       0.014   0.189   0.000  0.00  0.00    +0.000 OA
ATOM      4  C   UNL     1      -1.424   0.189   0.000  0.00  0.00    +0.000 A 
ATOM      5  C   UNL     1       0.014  -1.461   0.000  0.00  0.00    +0.000 A 
ATOM      6  C   UNL     1      -1.424  -1.461   0.000  0.00  0.00    +0.000 A 
ATOM      7  C   UNL     1       0.724  -0.201   0.000  0.00  0.00    +0.000 A 
ATOM      8  C   UNL     1      -2.129  -0.201   0.000  0.00  0.00    +0.000 A 
ATOM      9  C   UNL     1       0.724  -1.051   0.000  0.00  0.00    +0.000 A 
ATOM     10  O   UNL     1       0.014  -2.291   0.000  0.00  0.00    +0.000 OA
ATOM     11  C   UNL     1      -2.129  -1.051   0.000  0.00  0.00    +0.000 A 
ATOM     12  O   UNL     1      -1.424  -2.291   0.000  0.00  0.00    +0.000 OA
ATOM     13  O   UNL     1       1.449  -1.486   0.000  0.00  0.00    +0.000 OA
ENDROOT
BRANCH   7  14
ATOM     14  C   UNL     1       1.459   0.209   0.000  0.00  0.00    +0.000 A 
ATOM     15  C   UNL     1       1.459   1.044   0.000  0.00  0.00    +0.000 A 
ATOM     16  C   UNL     1       2.164  -0.201   0.000  0.00  0.00    +0.000 A 
ATOM     17  C   UNL     1       2.149   1.456   0.000  0.00  0.00    +0.000 A 
ATOM     18  C   UNL     1       2.873   0.209   0.000  0.00  0.00    +0.000 A 
ATOM     19  C   UNL     1       2.873   1.041   0.000  0.00  0.00    +0.000 A 
ATOM     20  O   UNL     1       2.149   2.291   0.000  0.00  0.00    +0.000 OA
ATOM     21  O   UNL     1       3.579   1.494   0.000  0.00  0.00    +0.000 OA
ENDBRANCH   7  14
BRANCH   8  22
ATOM     22  O   UNL     1      -2.853   0.234   0.000  0.00  0.00    +0.000 OA
ATOM     23  C   UNL     1      -3.579  -0.181   0.000  0.00  0.00    +0.000 C 
ENDBRANCH   8  22
TORSDOF 2
