REMARK  Name = 
REMARK  7 active torsions:
REMARK  status: ('A' for Active; 'I' for Inactive)
REMARK    1  A    between atoms: C_2  and  C_3
REMARK    2  A    between atoms: C_2  and  C_9
REMARK    3  A    between atoms: C_2  and  C_12
REMARK    4  A    between atoms: C_3  and  C_4
REMARK    5  A    between atoms: C_4  and  C_5
REMARK    6  A    between atoms: C_5  and  C_6
REMARK    7  A    between atoms: C_6  and  C_7
REMARK                            x       y       z     vdW  Elec       q    Type
REMARK                         _______ _______ _______ _____ _____    ______ ____
ROOT
ATOM      1  C   UNL     1       1.650  -1.429   0.000  0.00  0.00    +0.000 C 
ATOM      2  C   UNL     1       1.238  -0.715   0.000  0.00  0.00    +0.000 C 
ENDROOT
BRANCH   2   3
ATOM      3  C   UNL     1       0.825   0.000   0.000  0.00  0.00    +0.000 C 
ATOM      4  O   UNL     1       1.238   0.715   0.000  0.00  0.00    +0.000 OA
ATOM      5  O   UNL     1       0.000   0.000   0.000  0.00  0.00    +0.000 OA
ENDBRANCH   2   3
BRANCH   2   6
ATOM      6  C   UNL     1       0.523  -1.127   0.000  0.00  0.00    +0.000 C 
ATOM      7  O   UNL     1       0.523  -1.952   0.000  0.00  0.00    +0.000 OA
ATOM      8  O   UNL     1      -0.191  -0.715   0.000  0.00  0.00    +0.000 OA
ENDBRANCH   2   6
BRANCH   2   9
ATOM      9  C   UNL     1       1.952  -0.302   0.000  0.00  0.00    +0.000 C 
BRANCH   9  10
ATOM     10  C   UNL     1       1.952   0.523   0.000  0.00  0.00    +0.000 C 
BRANCH  10  11
ATOM     11  C   UNL     1       2.666   0.935   0.000  0.00  0.00    +0.000 C 
BRANCH  11  12
ATOM     12  C   UNL     1       2.666   1.760   0.000  0.00  0.00    +0.000 C 
BRANCH  12  13
ATOM     13  C   UNL     1       3.381   2.173   0.000  0.00  0.00    +0.000 C 
ATOM     14  F   UNL     1       3.381   2.998   0.000  0.00  0.00    +0.000 F 
ENDBRANCH  12  13
ENDBRANCH  11  12
ENDBRANCH  10  11
ENDBRANCH   9  10
ENDBRANCH   2   9
TORSDOF 7
