REMARK  Name = 
REMARK  9 active torsions:
REMARK  status: ('A' for Active; 'I' for Inactive)
REMARK    1  A    between atoms: N_2  and  C_4
REMARK    2  A    between atoms: C_4  and  C_5
REMARK    3  A    between atoms: C_5  and  N_6
REMARK    4  A    between atoms: N_6  and  S_7
REMARK    5  A    between atoms: S_7  and  C_10
REMARK    6  A    between atoms: C_10  and  C_11
REMARK    7  A    between atoms: C_13  and  N_14
REMARK    8  A    between atoms: C_17  and  O_18
REMARK    9  A    between atoms: O_18  and  C_19
REMARK                            x       y       z     vdW  Elec       q    Type
REMARK                         _______ _______ _______ _____ _____    ______ ____
ROOT
ATOM      1  N   UNL     1       5.642   0.698   0.000  0.00  0.00    +0.000 NA
ATOM      2  C   UNL     1       4.928   1.110   0.000  0.00  0.00    +0.000 A 
ATOM      3  N   UNL     1       4.213   0.698   0.000  0.00  0.00    +0.000 NA
ATOM      4  C   UNL     1       3.499   1.110   0.000  0.00  0.00    +0.000 A 
ATOM      5  C   UNL     1       3.499   1.935   0.000  0.00  0.00    +0.000 A 
ATOM      6  C   UNL     1       4.213   2.348   0.000  0.00  0.00    +0.000 A 
ATOM      7  N   UNL     1       4.928   1.935   0.000  0.00  0.00    +0.000 NA
ENDROOT
BRANCH   1  10
ATOM      8  C   UNL     1       7.786   1.110   0.000  0.00  0.00    +0.000 A 
ATOM      9  C   UNL     1       7.071   0.698   0.000  0.00  0.00    +0.000 A 
ATOM     10  C   UNL     1       6.357   1.110   0.000  0.00  0.00    +0.000 A 
ATOM     11  C   UNL     1       6.357   1.935   0.000  0.00  0.00    +0.000 A 
ATOM     12  C   UNL     1       7.071   2.348   0.000  0.00  0.00    +0.000 A 
ATOM     13  C   UNL     1       7.786   1.935   0.000  0.00  0.00    +0.000 A 
BRANCH   8  14
ATOM     14  C   UNL     1       8.500   0.698   0.000  0.00  0.00    +0.000 C 
BRANCH  14  15
ATOM     15  S   UNL     1       9.215   1.110   0.000  0.00  0.00    +0.000 S 
ATOM     16  O   UNL     1       8.802   1.825   0.000  0.00  0.00    +0.000 OA
ATOM     17  O   UNL     1       9.627   0.396   0.000  0.00  0.00    +0.000 OA
BRANCH  15  18
ATOM     18  N   UNL     1       9.929   1.523   0.000  0.00  0.00    +0.000 NA
BRANCH  18  19
ATOM     19  C   UNL     1      10.644   1.110   0.000  0.00  0.00    +0.000 C 
BRANCH  19  20
ATOM     20  C   UNL     1      11.358   1.523   0.000  0.00  0.00    +0.000 C 
BRANCH  20  22
ATOM     21  C   UNL     1      12.787   1.523   0.000  0.00  0.00    +0.000 C 
ATOM     22  N   UNL     1      12.073   1.110   0.000  0.00  0.00    +0.000 NA
ATOM     23  C   UNL     1      12.073   0.285   0.000  0.00  0.00    +0.000 C 
ENDBRANCH  20  22
ENDBRANCH  19  20
ENDBRANCH  18  19
ENDBRANCH  15  18
ENDBRANCH  14  15
ENDBRANCH   8  14
ENDBRANCH   1  10
BRANCH   4  24
ATOM     24  O   UNL     1       2.784   0.698   0.000  0.00  0.00    +0.000 OA
BRANCH  24  25
ATOM     25  C   UNL     1       2.070   1.110   0.000  0.00  0.00    +0.000 A 
ATOM     26  C   UNL     1       1.356   0.698   0.000  0.00  0.00    +0.000 A 
ATOM     27  C   UNL     1       0.641   1.110   0.000  0.00  0.00    +0.000 A 
ATOM     28  C   UNL     1       0.641   1.935   0.000  0.00  0.00    +0.000 A 
ATOM     29  N   UNL     1      -0.143   2.190   0.000  0.00  0.00    +0.000 NA
ATOM     30  C   UNL     1      -0.628   1.523   0.000  0.00  0.00    +0.000 A 
ATOM     31  C   UNL     1      -1.453   1.523   0.000  0.00  0.00    +0.000 C 
ATOM     32  C   UNL     1      -0.143   0.856   0.000  0.00  0.00    +0.000 A 
ATOM     33  C   UNL     1       1.356   2.348   0.000  0.00  0.00    +0.000 A 
ATOM     34  C   UNL     1       2.070   1.935   0.000  0.00  0.00    +0.000 A 
ENDBRANCH  24  25
ENDBRANCH   4  24
TORSDOF 9
