REMARK  Name = 
REMARK  149 active torsions:
REMARK  status: ('A' for Active; 'I' for Inactive)
REMARK    1  A    between atoms: O_25  and  C_219
REMARK    2  A    between atoms: O_25  and  C_245
REMARK    3  A    between atoms: O_28  and  C_230
REMARK    4  A    between atoms: O_28  and  C_250
REMARK    5  A    between atoms: O_41  and  C_251
REMARK    6  A    between atoms: O_41  and  C_267
REMARK    7  A    between atoms: O_45  and  C_259
REMARK    8  A    between atoms: O_45  and  C_275
REMARK    9  A    between atoms: N_60  and  C_105
REMARK   10  A    between atoms: N_61  and  CA_108
REMARK   11  A    between atoms: N_62  and  C_111
REMARK   12  A    between atoms: N_63  and  CA_113
REMARK   13  A    between atoms: N_64  and  CA_137
REMARK   14  A    between atoms: N_65  and  CA_132
REMARK   15  A    between atoms: N_66  and  C_139
REMARK   16  A    between atoms: N_68  and  C_154
REMARK   17  A    between atoms: N_69  and  CA_172
REMARK   18  A    between atoms: N_70  and  C_173
REMARK   19  A    between atoms: NE_71  and  CD_158
REMARK   20  A    between atoms: N_72  and  C_162
REMARK   21  A    between atoms: N_73  and  CA_188
REMARK   22  A    between atoms: N_74  and  C_183
REMARK   23  A    between atoms: N_75  and  C_179
REMARK   24  A    between atoms: N_76  and  CA_182
REMARK   25  A    between atoms: N_77  and  CA_197
REMARK   26  A    between atoms: N_79  and  C_196
REMARK   27  A    between atoms: N_81  and  C_216
REMARK   28  A    between atoms: N_82  and  CA_224
REMARK   29  A    between atoms: N_83  and  CA_207
REMARK   30  A    between atoms: N_84  and  CA_223
REMARK   31  A    between atoms: NE_85  and  CD_206
REMARK   32  A    between atoms: N_86  and  C_212
REMARK   33  A    between atoms: N_87  and  CA_214
REMARK   34  A    between atoms: N_88  and  C_215
REMARK   35  A    between atoms: N_89  and  CA_222
REMARK   36  A    between atoms: N_90  and  C_236
REMARK   37  A    between atoms: N_92  and  C_247
REMARK   38  A    between atoms: N_93  and  C_249
REMARK   39  A    between atoms: N_96  and  C_252
REMARK   40  A    between atoms: N_97  and  C_260
REMARK   41  A    between atoms: N_98  and  C_266
REMARK   42  A    between atoms: N_99  and  C_261
REMARK   43  A    between atoms: N_100  and  CA_279
REMARK   44  A    between atoms: N_101  and  C_270
REMARK   45  A    between atoms: C_105  and  C_106
REMARK   46  A    between atoms: C_105  and  C_117
REMARK   47  A    between atoms: C_106  and  C_107
REMARK   48  A    between atoms: CA_108  and  CB_110
REMARK   49  A    between atoms: CA_108  and  C_126
REMARK   50  A    between atoms: C_109  and  C_111
REMARK   51  A    between atoms: C_109  and  C_124
REMARK   52  A    between atoms: C_111  and  C_130
REMARK   53  A    between atoms: C_112  and  C_114
REMARK   54  A    between atoms: C_112  and  C_115
REMARK   55  A    between atoms: CA_113  and  CB_121
REMARK   56  A    between atoms: CA_113  and  C_123
REMARK   57  A    between atoms: C_114  and  C_116
REMARK   58  A    between atoms: C_115  and  C_118
REMARK   59  A    between atoms: C_116  and  C_119
REMARK   60  A    between atoms: C_118  and  C_120
REMARK   61  A    between atoms: C_119  and  C_122
REMARK   62  A    between atoms: C_120  and  C_125
REMARK   63  A    between atoms: CB_121  and  CG_131
REMARK   64  A    between atoms: C_122  and  C_127
REMARK   65  A    between atoms: C_125  and  C_133
REMARK   66  A    between atoms: C_127  and  C_138
REMARK   67  A    between atoms: CA_132  and  C_140
REMARK   68  A    between atoms: C_133  and  C_142
REMARK   69  A    between atoms: CA_137  and  CB_141
REMARK   70  A    between atoms: CA_137  and  C_153
REMARK   71  A    between atoms: C_138  and  C_146
REMARK   72  A    between atoms: C_139  and  C_143
REMARK   73  A    between atoms: C_139  and  C_147
REMARK   74  A    between atoms: CB_141  and  CG_150
REMARK   75  A    between atoms: C_142  and  C_152
REMARK   76  A    between atoms: C_146  and  C_157
REMARK   77  A    between atoms: C_147  and  C_159
REMARK   78  A    between atoms: CG_150  and  CD_158
REMARK   79  A    between atoms: C_152  and  C_163
REMARK   80  A    between atoms: C_154  and  C_155
REMARK   81  A    between atoms: C_154  and  C_160
REMARK   82  A    between atoms: C_157  and  C_174
REMARK   83  A    between atoms: C_160  and  C_169
REMARK   84  A    between atoms: C_162  and  C_164
REMARK   85  A    between atoms: C_162  and  C_166
REMARK   86  A    between atoms: C_164  and  C_168
REMARK   87  A    between atoms: C_168  and  C_175
REMARK   88  A    between atoms: C_169  and  C_184
REMARK   89  A    between atoms: CA_172  and  C_180
REMARK   90  A    between atoms: C_173  and  C_176
REMARK   91  A    between atoms: C_173  and  C_191
REMARK   92  A    between atoms: C_175  and  C_179
REMARK   93  A    between atoms: C_176  and  C_187
REMARK   94  A    between atoms: C_181  and  CA_182
REMARK   95  A    between atoms: C_183  and  C_185
REMARK   96  A    between atoms: C_183  and  C_193
REMARK   97  A    between atoms: C_185  and  C_189
REMARK   98  A    between atoms: C_187  and  C_200
REMARK   99  A    between atoms: CA_188  and  CB_192
REMARK  100  A    between atoms: CA_188  and  C_202
REMARK  101  A    between atoms: CB_192  and  CG_194
REMARK  102  A    between atoms: CG_194  and  CD_206
REMARK  103  A    between atoms: C_196  and  C_201
REMARK  104  A    between atoms: C_196  and  C_203
REMARK  105  A    between atoms: CA_197  and  CB_204
REMARK  106  A    between atoms: CA_197  and  C_209
REMARK  107  A    between atoms: C_203  and  C_210
REMARK  108  A    between atoms: CB_204  and  CG_211
REMARK  109  A    between atoms: C_205  and  CA_207
REMARK  110  A    between atoms: C_208  and  C_219
REMARK  111  A    between atoms: CG_211  and  CD_234
REMARK  112  A    between atoms: C_212  and  C_213
REMARK  113  A    between atoms: C_212  and  C_225
REMARK  114  A    between atoms: CA_214  and  C_220
REMARK  115  A    between atoms: CA_214  and  CB_221
REMARK  116  A    between atoms: C_215  and  C_217
REMARK  117  A    between atoms: C_215  and  C_226
REMARK  118  A    between atoms: C_216  and  C_230
REMARK  119  A    between atoms: CB_221  and  CG_235
REMARK  120  A    between atoms: CA_222  and  C_229
REMARK  121  A    between atoms: CA_222  and  CB_237
REMARK  122  A    between atoms: CA_223  and  C_231
REMARK  123  A    between atoms: CA_224  and  C_243
REMARK  124  A    between atoms: CG_235  and  CD_246
REMARK  125  A    between atoms: C_236  and  C_238
REMARK  126  A    between atoms: C_236  and  C_244
REMARK  127  A    between atoms: C_244  and  C_256
REMARK  128  A    between atoms: C_245  and  C_251
REMARK  129  A    between atoms: C_247  and  C_248
REMARK  130  A    between atoms: C_247  and  C_255
REMARK  131  A    between atoms: C_249  and  C_253
REMARK  132  A    between atoms: C_249  and  C_254
REMARK  133  A    between atoms: C_250  and  C_259
REMARK  134  A    between atoms: C_252  and  C_257
REMARK  135  A    between atoms: C_252  and  C_258
REMARK  136  A    between atoms: C_258  and  C_265
REMARK  137  A    between atoms: C_260  and  C_263
REMARK  138  A    between atoms: C_260  and  C_264
REMARK  139  A    between atoms: C_261  and  C_268
REMARK  140  A    between atoms: C_266  and  C_269
REMARK  141  A    between atoms: C_266  and  C_273
REMARK  142  A    between atoms: C_267  and  C_270
REMARK  143  A    between atoms: C_269  and  C_282
REMARK  144  A    between atoms: C_275  and  C_283
REMARK  145  A    between atoms: C_276  and  CA_279
REMARK  146  A    between atoms: C_280  and  C_281
REMARK  147  A    between atoms: C_280  and  C_284
REMARK  148  A    between atoms: C_282  and  C_289
REMARK  149  A    between atoms: C_284  and  C_288
REMARK                            x       y       z     vdW  Elec       q    Type
REMARK                         _______ _______ _______ _____ _____    ______ ____
ROOT
ATOM      1  C   UNK A   1      -6.066   2.143   0.000  0.00  0.00    +0.000 C 
ENDROOT
BRANCH   1   4
ATOM      2  O   UNK A   1      -7.495   2.143   0.000  0.00  0.00    +0.000 OA
ATOM      3  N   UNK A   1      -6.780   3.380   0.000  0.00  0.00    +0.000 NA
ATOM      4  C   UNK A   1      -6.780   2.555   0.000  0.00  0.00    +0.000 C 
BRANCH   3   5
ATOM      5  C   UNK A   1      -7.495   3.793   0.000  0.00  0.00    +0.000 C 
BRANCH   5   8
ATOM      6  O   UNK A   1      -6.780   5.030   0.000  0.00  0.00    +0.000 OA
ATOM      7  N   UNK A   1      -8.210   5.030   0.000  0.00  0.00    +0.000 NA
ATOM      8  C   UNK A   1      -7.495   4.618   0.000  0.00  0.00    +0.000 C 
BRANCH   7   9
ATOM      9  C   UNK A   1      -8.210   5.855   0.000  0.00  0.00    +0.000 C 
BRANCH   9  12
ATOM     10  O   UNK A   1      -8.924   7.093   0.000  0.00  0.00    +0.000 OA
ATOM     11  N   UNK A   1      -9.638   5.855   0.000  0.00  0.00    +0.000 NA
ATOM     12  C   UNK A   1      -8.924   6.268   0.000  0.00  0.00    +0.000 C 
BRANCH  11  13
ATOM     13  C   UNK A   1     -10.353   6.268   0.000  0.00  0.00    +0.000 C 
BRANCH  13  16
ATOM     14  O   UNK A   1     -11.067   5.030   0.000  0.00  0.00    +0.000 OA
ATOM     15  N   GLY A   2     -11.782   6.268   0.000  0.00  0.00    +0.000 NA
ATOM     16  C   UNK A   1     -11.067   5.855   0.000  0.00  0.00    +0.000 C 
BRANCH  15  17
ATOM     17  CA  GLY A   2     -12.496   5.855   0.000  0.00  0.00    +0.000 C 
ATOM     18  CB  GLY A   2     -12.496   5.030   0.000  0.00  0.00    +0.000 C 
BRANCH  17  21
ATOM     19  O   GLY A   2     -13.211   7.093   0.000  0.00  0.00    +0.000 OA
ATOM     20  N   GLY A   3     -13.925   5.855   0.000  0.00  0.00    +0.000 NA
ATOM     21  C   GLY A   2     -13.211   6.268   0.000  0.00  0.00    +0.000 C 
BRANCH  20  22
ATOM     22  CA  GLY A   3     -14.640   6.268   0.000  0.00  0.00    +0.000 C 
BRANCH  22  25
ATOM     23  O   GLY A   3     -16.069   6.268   0.000  0.00  0.00    +0.000 OA
ATOM     24  N   UNK A   1     -15.354   5.030   0.000  0.00  0.00    +0.000 NA
ATOM     25  C   GLY A   3     -15.354   5.855   0.000  0.00  0.00    +0.000 C 
BRANCH  24  26
ATOM     26  C   UNK A   1     -16.069   4.618   0.000  0.00  0.00    +0.000 C 
BRANCH  26  29
ATOM     27  O   UNK A   1     -15.354   3.380   0.000  0.00  0.00    +0.000 OA
ATOM     28  N   GLY A   2     -16.783   3.380   0.000  0.00  0.00    +0.000 NA
ATOM     29  C   UNK A   1     -16.069   3.793   0.000  0.00  0.00    +0.000 C 
BRANCH  28  30
ATOM     30  CA  GLY A   2     -16.783   2.555   0.000  0.00  0.00    +0.000 C 
BRANCH  30  31
ATOM     31  CB  GLY A   2     -16.069   2.143   0.000  0.00  0.00    +0.000 C 
ATOM     32  CG1 GLY A   2     -16.069   1.318   0.000  0.00  0.00    +0.000 C 
ATOM     33  CG2 GLY A   2     -15.354   2.555   0.000  0.00  0.00    +0.000 C 
ENDBRANCH  30  31
BRANCH  30  36
ATOM     34  O   GLY A   2     -18.212   2.555   0.000  0.00  0.00    +0.000 OA
ATOM     35  N   GLY A   3     -17.497   1.318   0.000  0.00  0.00    +0.000 NA
ATOM     36  C   GLY A   2     -17.497   2.143   0.000  0.00  0.00    +0.000 C 
BRANCH  35  37
ATOM     37  CA  GLY A   3     -18.212   0.905   0.000  0.00  0.00    +0.000 C 
BRANCH  37  40
ATOM     38  O   GLY A   3     -17.497  -0.332   0.000  0.00  0.00    +0.000 OA
ATOM     39  N   GLN A   4     -18.926  -0.332   0.000  0.00  0.00    +0.000 NA
ATOM     40  C   GLY A   3     -18.212   0.080   0.000  0.00  0.00    +0.000 C 
BRANCH  39  41
ATOM     41  CA  GLN A   4     -18.926  -1.157   0.000  0.00  0.00    +0.000 C 
BRANCH  41  44
ATOM     42  O   GLN A   4     -20.356  -1.157   0.000  0.00  0.00    +0.000 OA
ATOM     43  N   ALA A   5     -19.641  -2.395   0.000  0.00  0.00    +0.000 NA
ATOM     44  C   GLN A   4     -19.641  -1.570   0.000  0.00  0.00    +0.000 C 
BRANCH  43  45
ATOM     45  CA  ALA A   5     -20.356  -2.807   0.000  0.00  0.00    +0.000 C 
BRANCH  45  48
ATOM     46  O   ALA A   5     -19.641  -4.045   0.000  0.00  0.00    +0.000 OA
ATOM     47  N   GLY A   6     -21.070  -4.045   0.000  0.00  0.00    +0.000 NA
ATOM     48  C   ALA A   5     -20.356  -3.632   0.000  0.00  0.00    +0.000 C 
BRANCH  47  49
ATOM     49  CA  GLY A   6     -21.070  -4.870   0.000  0.00  0.00    +0.000 C 
BRANCH  49  52
ATOM     50  O   GLY A   6     -21.785  -6.107   0.000  0.00  0.00    +0.000 OA
ATOM     51  OXT GLY A   6     -22.499  -4.870   0.000  0.00  0.00    +0.000 OA
ATOM     52  C   GLY A   6     -21.785  -5.282   0.000  0.00  0.00    +0.000 C 
ENDBRANCH  49  52
ENDBRANCH  47  49
ENDBRANCH  45  48
BRANCH  45  53
ATOM     53  CB  ALA A   5     -21.070  -2.395   0.000  0.00  0.00    +0.000 C 
BRANCH  53  54
ATOM     54  CG  ALA A   5     -21.785  -2.807   0.000  0.00  0.00    +0.000 C 
BRANCH  54  55
ATOM     55  CD  ALA A   5     -22.499  -2.395   0.000  0.00  0.00    +0.000 C 
BRANCH  55  56
ATOM     56  NE  ALA A   5     -23.213  -2.807   0.000  0.00  0.00    +0.000 NA
ATOM     57  NH1 ALA A   5     -24.642  -2.807   0.000  0.00  0.00    +0.000 NA
ATOM     58  NH2 ALA A   5     -23.928  -1.570   0.000  0.00  0.00    +0.000 NA
ATOM     59  CZ  ALA A   5     -23.928  -2.395   0.000  0.00  0.00    +0.000 C 
ENDBRANCH  55  56
ENDBRANCH  54  55
ENDBRANCH  53  54
ENDBRANCH  45  53
ENDBRANCH  43  45
ENDBRANCH  41  44
ENDBRANCH  39  41
ENDBRANCH  37  40
BRANCH  37  60
ATOM     60  CB  GLY A   3     -18.926   1.318   0.000  0.00  0.00    +0.000 C 
BRANCH  60  61
ATOM     61  CG  GLY A   3     -19.641   0.905   0.000  0.00  0.00    +0.000 C 
BRANCH  61  62
ATOM     62  CD  GLY A   3     -20.356   1.318   0.000  0.00  0.00    +0.000 C 
BRANCH  62  63
ATOM     63  NE  GLY A   3     -21.070   0.905   0.000  0.00  0.00    +0.000 NA
ATOM     64  NH1 GLY A   3     -22.499   0.905   0.000  0.00  0.00    +0.000 NA
ATOM     65  NH2 GLY A   3     -21.785   2.143   0.000  0.00  0.00    +0.000 NA
ATOM     66  CZ  GLY A   3     -21.785   1.318   0.000  0.00  0.00    +0.000 C 
ENDBRANCH  62  63
ENDBRANCH  61  62
ENDBRANCH  60  61
ENDBRANCH  37  60
ENDBRANCH  35  37
ENDBRANCH  30  36
ENDBRANCH  28  30
ENDBRANCH  26  29
BRANCH  26  67
ATOM     67  C   UNK A   1     -16.783   5.030   0.000  0.00  0.00    +0.000 C 
BRANCH  67  68
ATOM     68  C   UNK A   1     -17.608   5.030   0.000  0.00  0.00    +0.000 C 
ATOM     69  C   UNK A   1     -18.020   5.745   0.000  0.00  0.00    +0.000 C 
ATOM     70  C   UNK A   1     -18.021   4.316   0.000  0.00  0.00    +0.000 C 
ENDBRANCH  67  68
ENDBRANCH  26  67
ENDBRANCH  24  26
ENDBRANCH  22  25
BRANCH  22  71
ATOM     71  CB  GLY A   3     -14.640   7.093   0.000  0.00  0.00    +0.000 C 
BRANCH  71  73
ATOM     72  NE1 GLY A   3     -16.653   7.779   0.000  0.00  0.00    +0.000 NA
ATOM     73  CG  GLY A   3     -15.354   7.505   0.000  0.00  0.00    +0.000 A 
ATOM     74  CD2 GLY A   3     -15.439   8.321   0.000  0.00  0.00    +0.000 A 
ATOM     75  CD1 GLY A   3     -16.103   7.171   0.000  0.00  0.00    +0.000 A 
ATOM     76  CE2 GLY A   3     -16.247   8.491   0.000  0.00  0.00    +0.000 A 
ATOM     77  CE3 GLY A   3     -14.888   8.935   0.000  0.00  0.00    +0.000 A 
ATOM     78  CZ2 GLY A   3     -16.503   9.275   0.000  0.00  0.00    +0.000 A 
ATOM     79  CZ3 GLY A   3     -15.145   9.719   0.000  0.00  0.00    +0.000 A 
ATOM     80  CH2 GLY A   3     -15.952   9.889   0.000  0.00  0.00    +0.000 A 
ENDBRANCH  71  73
ENDBRANCH  22  71
ENDBRANCH  20  22
ENDBRANCH  17  21
ENDBRANCH  15  17
ENDBRANCH  13  16
BRANCH  13  81
ATOM     81  C   UNK A   1     -10.353   7.093   0.000  0.00  0.00    +0.000 C 
ATOM     82  C   UNK A   1      -9.638   7.505   0.000  0.00  0.00    +0.000 C 
BRANCH  81  83
ATOM     83  C   UNK A   1     -11.067   7.505   0.000  0.00  0.00    +0.000 C 
ATOM     84  C   UNK A   1     -11.067   8.330   0.000  0.00  0.00    +0.000 C 
ENDBRANCH  81  83
ENDBRANCH  13  81
ENDBRANCH  11  13
ENDBRANCH   9  12
BRANCH   9  85
ATOM     85  C   UNK A   1      -7.495   6.268   0.000  0.00  0.00    +0.000 C 
BRANCH  85  86
ATOM     86  C   UNK A   1      -7.495   7.093   0.000  0.00  0.00    +0.000 A 
ATOM     87  C   UNK A   1      -8.210   7.505   0.000  0.00  0.00    +0.000 A 
ATOM     88  C   UNK A   1      -6.780   7.505   0.000  0.00  0.00    +0.000 A 
ATOM     89  C   UNK A   1      -8.210   8.330   0.000  0.00  0.00    +0.000 A 
ATOM     90  C   UNK A   1      -6.780   8.330   0.000  0.00  0.00    +0.000 A 
ATOM     91  C   UNK A   1      -7.495   8.743   0.000  0.00  0.00    +0.000 A 
ENDBRANCH  85  86
ENDBRANCH   9  85
ENDBRANCH   7   9
ENDBRANCH   5   8
BRANCH   5  92
ATOM     92  C   UNK A   1      -8.210   3.380   0.000  0.00  0.00    +0.000 C 
BRANCH  92  93
ATOM     93  C   UNK A   1      -8.924   3.793   0.000  0.00  0.00    +0.000 C 
BRANCH  93  96
ATOM     94  O   UNK A   1     -10.353   3.793   0.000  0.00  0.00    +0.000 OA
ATOM     95  O   UNK A   1      -9.638   2.555   0.000  0.00  0.00    +0.000 OA
ATOM     96  C   UNK A   1      -9.638   3.380   0.000  0.00  0.00    +0.000 C 
ENDBRANCH  93  96
ENDBRANCH  92  93
ENDBRANCH   5  92
ENDBRANCH   3   5
ENDBRANCH   1   4
BRANCH   1  98
ATOM     97  O   GLY A   6      -4.637   1.318   0.000  0.00  0.00    +0.000 OA
ATOM     98  N   UNK A   1      -5.352   2.555   0.000  0.00  0.00    +0.000 NA
ATOM     99  C   GLY A   6      -4.637   2.143   0.000  0.00  0.00    +0.000 C 
BRANCH  99 100
ATOM    100  CA  GLY A   6      -3.923   2.555   0.000  0.00  0.00    +0.000 C 
ATOM    101  CB  GLY A   6      -3.923   3.380   0.000  0.00  0.00    +0.000 C 
BRANCH 100 103
ATOM    102  O   ALA A   5      -2.494   3.380   0.000  0.00  0.00    +0.000 OA
ATOM    103  N   GLY A   6      -3.208   2.143   0.000  0.00  0.00    +0.000 NA
ATOM    104  C   ALA A   5      -2.494   2.555   0.000  0.00  0.00    +0.000 C 
BRANCH 104 105
ATOM    105  CA  ALA A   5      -1.779   2.143   0.000  0.00  0.00    +0.000 C 
ATOM    106  CB  ALA A   5      -1.779   1.318   0.000  0.00  0.00    +0.000 C 
BRANCH 105 108
ATOM    107  O   GLN A   4      -0.350   1.318   0.000  0.00  0.00    +0.000 OA
ATOM    108  N   ALA A   5      -1.065   2.555   0.000  0.00  0.00    +0.000 NA
ATOM    109  C   GLN A   4      -0.350   2.143   0.000  0.00  0.00    +0.000 C 
BRANCH 109 110
ATOM    110  CA  GLN A   4       0.364   2.555   0.000  0.00  0.00    +0.000 C 
BRANCH 110 112
ATOM    111  O   GLY A   3       1.793   3.380   0.000  0.00  0.00    +0.000 OA
ATOM    112  N   GLN A   4       1.078   2.143   0.000  0.00  0.00    +0.000 NA
ATOM    113  C   GLY A   3       1.793   2.555   0.000  0.00  0.00    +0.000 C 
BRANCH 113 114
ATOM    114  CA  GLY A   3       2.507   2.143   0.000  0.00  0.00    +0.000 C 
BRANCH 114 116
ATOM    115  O   GLY A   2       3.936   1.318   0.000  0.00  0.00    +0.000 OA
ATOM    116  N   GLY A   3       3.222   2.555   0.000  0.00  0.00    +0.000 NA
ATOM    117  C   GLY A   2       3.936   2.143   0.000  0.00  0.00    +0.000 C 
BRANCH 117 118
ATOM    118  CA  GLY A   2       4.651   2.555   0.000  0.00  0.00    +0.000 C 
BRANCH 118 120
ATOM    119  O   UNK A   1       6.080   3.380   0.000  0.00  0.00    +0.000 OA
ATOM    120  N   GLY A   2       5.365   2.143   0.000  0.00  0.00    +0.000 NA
ATOM    121  C   UNK A   1       6.080   2.555   0.000  0.00  0.00    +0.000 C 
BRANCH 121 122
ATOM    122  C   UNK A   1       6.905   2.555   0.000  0.00  0.00    +0.000 C 
BRANCH 122 124
ATOM    123  O   UNK A   1       8.555   2.555   0.000  0.00  0.00    +0.000 OA
ATOM    124  N   UNK A   1       7.317   3.270   0.000  0.00  0.00    +0.000 NA
ATOM    125  C   UNK A   1       8.142   3.270   0.000  0.00  0.00    +0.000 C 
BRANCH 125 126
ATOM    126  C   UNK A   1       8.555   3.984   0.000  0.00  0.00    +0.000 C 
BRANCH 126 128
ATOM    127  O   UNK A   1       9.380   2.555   0.000  0.00  0.00    +0.000 OA
ATOM    128  N   UNK A   1       9.380   3.984   0.000  0.00  0.00    +0.000 NA
ATOM    129  C   UNK A   1       9.792   3.270   0.000  0.00  0.00    +0.000 C 
BRANCH 129 130
ATOM    130  C   UNK A   1      10.617   3.270   0.000  0.00  0.00    +0.000 C 
BRANCH 130 132
ATOM    131  O   GLY A   2      12.267   3.270   0.000  0.00  0.00    +0.000 OA
ATOM    132  N   UNK A   1      11.030   2.555   0.000  0.00  0.00    +0.000 NA
ATOM    133  C   GLY A   2      11.855   2.555   0.000  0.00  0.00    +0.000 C 
BRANCH 133 134
ATOM    134  CA  GLY A   2      12.267   1.841   0.000  0.00  0.00    +0.000 C 
BRANCH 134 136
ATOM    135  O   UNK A   1      13.092   0.412   0.000  0.00  0.00    +0.000 OA
ATOM    136  N   GLY A   2      13.092   1.841   0.000  0.00  0.00    +0.000 NA
ATOM    137  C   UNK A   1      13.505   1.126   0.000  0.00  0.00    +0.000 C 
BRANCH 137 138
ATOM    138  C   UNK A   1      14.330   1.126   0.000  0.00  0.00    +0.000 C 
BRANCH 138 140
ATOM    139  O   UNK A   1      15.980   1.126   0.000  0.00  0.00    +0.000 OA
ATOM    140  N   UNK A   1      14.742   0.412   0.000  0.00  0.00    +0.000 NA
ATOM    141  C   UNK A   1      15.567   0.412   0.000  0.00  0.00    +0.000 C 
BRANCH 141 142
ATOM    142  C   UNK A   1      15.980  -0.302   0.000  0.00  0.00    +0.000 C 
BRANCH 142 144
ATOM    143  O   UNK A   1      16.805   1.126   0.000  0.00  0.00    +0.000 OA
ATOM    144  N   UNK A   1      16.805  -0.302   0.000  0.00  0.00    +0.000 NA
ATOM    145  C   UNK A   1      17.217   0.412   0.000  0.00  0.00    +0.000 C 
BRANCH 145 146
ATOM    146  C   UNK A   1      18.042   0.412   0.000  0.00  0.00    +0.000 C 
BRANCH 146 148
ATOM    147  O   UNK A   1      19.692   0.412   0.000  0.00  0.00    +0.000 OA
ATOM    148  N   UNK A   1      18.455   1.126   0.000  0.00  0.00    +0.000 NA
ATOM    149  C   UNK A   1      19.280   1.126   0.000  0.00  0.00    +0.000 C 
BRANCH 149 150
ATOM    150  C   UNK A   1      19.692   1.841   0.000  0.00  0.00    +0.000 C 
BRANCH 150 152
ATOM    151  O   UNK A   1      19.692   3.270   0.000  0.00  0.00    +0.000 OA
ATOM    152  C   UNK A   1      19.280   2.555   0.000  0.00  0.00    +0.000 C 
ATOM    153  C   UNK A   1      18.455   2.555   0.000  0.00  0.00    +0.000 C 
ENDBRANCH 150 152
BRANCH 150 155
ATOM    154  O   UNK A   1      20.517   3.270   0.000  0.00  0.00    +0.000 OA
ATOM    155  N   UNK A   1      20.517   1.841   0.000  0.00  0.00    +0.000 NA
ATOM    156  C   UNK A   1      20.930   2.555   0.000  0.00  0.00    +0.000 C 
BRANCH 156 157
ATOM    157  C   UNK A   1      21.755   2.555   0.000  0.00  0.00    +0.000 C 
BRANCH 157 159
ATOM    158  O   UNK A   1      20.930   3.984   0.000  0.00  0.00    +0.000 OA
ATOM    159  N   UNK A   1      22.167   3.270   0.000  0.00  0.00    +0.000 NA
ATOM    160  C   UNK A   1      21.755   3.984   0.000  0.00  0.00    +0.000 C 
BRANCH 160 161
ATOM    161  C   UNK A   1      22.167   4.699   0.000  0.00  0.00    +0.000 C 
BRANCH 161 163
ATOM    162  O   UNK A   1      23.405   5.413   0.000  0.00  0.00    +0.000 OA
ATOM    163  C   UNK A   1      22.992   4.699   0.000  0.00  0.00    +0.000 C 
ATOM    164  C   UNK A   1      23.405   3.984   0.000  0.00  0.00    +0.000 C 
ENDBRANCH 161 163
BRANCH 161 166
ATOM    165  O   GLY A   2      22.992   6.128   0.000  0.00  0.00    +0.000 OA
ATOM    166  N   UNK A   1      21.755   5.413   0.000  0.00  0.00    +0.000 NA
ATOM    167  C   GLY A   2      22.167   6.128   0.000  0.00  0.00    +0.000 C 
BRANCH 167 168
ATOM    168  CA  GLY A   2      21.755   6.842   0.000  0.00  0.00    +0.000 C 
BRANCH 168 170
ATOM    169  O   UNK A   1      20.930   8.271   0.000  0.00  0.00    +0.000 OA
ATOM    170  N   GLY A   2      22.167   7.556   0.000  0.00  0.00    +0.000 NA
ATOM    171  C   UNK A   1      21.755   8.271   0.000  0.00  0.00    +0.000 C 
BRANCH 171 172
ATOM    172  C   UNK A   1      22.167   8.986   0.000  0.00  0.00    +0.000 C 
BRANCH 172 174
ATOM    173  O   UNK A   0      22.992  10.414   0.000  0.00  0.00    +0.000 OA
ATOM    174  N   UNK A   1      21.755   9.700   0.000  0.00  0.00    +0.000 NA
ATOM    175  C   UNK A   0      22.167  10.414   0.000  0.00  0.00    +0.000 C 
BRANCH 175 176
ATOM    176  C   UNK A   0      21.755  11.129   0.000  0.00  0.00    +0.000 C 
ATOM    177  C   UNK A   0      22.469  11.541   0.000  0.00  0.00    +0.000 C 
ATOM    178  C   UNK A   0      21.040  10.716   0.000  0.00  0.00    +0.000 C 
BRANCH 176 180
ATOM    179  O   UNK A   0      22.580  12.558   0.000  0.00  0.00    +0.000 OA
ATOM    180  N   UNK A   0      21.342  11.844   0.000  0.00  0.00    +0.000 NA
ATOM    181  C   UNK A   0      21.755  12.558   0.000  0.00  0.00    +0.000 C 
BRANCH 181 183
ATOM    182  N   UNK A   0      20.517  13.272   0.000  0.00  0.00    +0.000 NA
ATOM    183  C   UNK A   0      21.342  13.272   0.000  0.00  0.00    +0.000 C 
BRANCH 183 184
ATOM    184  C   UNK A   0      21.755  13.987   0.000  0.00  0.00    +0.000 C 
BRANCH 184 187
ATOM    185  N   UNK A   0      20.522  14.788   0.000  0.00  0.00    +0.000 NA
ATOM    186  N   UNK A   0      21.065  16.007   0.000  0.00  0.00    +0.000 NA
ATOM    187  C   UNK A   0      21.342  14.701   0.000  0.00  0.00    +0.000 A 
ATOM    188  C   UNK A   0      21.678  15.455   0.000  0.00  0.00    +0.000 A 
ATOM    189  C   UNK A   0      20.350  15.595   0.000  0.00  0.00    +0.000 A 
ENDBRANCH 184 187
ENDBRANCH 183 184
ENDBRANCH 181 183
ENDBRANCH 176 180
ENDBRANCH 175 176
ENDBRANCH 172 174
BRANCH 172 190
ATOM    190  C   UNK A   1      22.992   8.986   0.000  0.00  0.00    +0.000 C 
BRANCH 190 191
ATOM    191  C   UNK A   1      23.405   9.700   0.000  0.00  0.00    +0.000 C 
BRANCH 191 194
ATOM    192  O   UNK A   1      24.642  10.414   0.000  0.00  0.00    +0.000 OA
ATOM    193  O   UNK A   1      24.642   8.986   0.000  0.00  0.00    +0.000 OA
ATOM    194  C   UNK A   1      24.230   9.700   0.000  0.00  0.00    +0.000 C 
ENDBRANCH 191 194
ENDBRANCH 190 191
ENDBRANCH 172 190
ENDBRANCH 171 172
ENDBRANCH 168 170
ENDBRANCH 167 168
ENDBRANCH 161 166
ENDBRANCH 160 161
ENDBRANCH 157 159
BRANCH 157 195
ATOM    195  C   UNK A   1      22.167   1.841   0.000  0.00  0.00    +0.000 C 
BRANCH 195 196
ATOM    196  C   UNK A   1      22.992   1.841   0.000  0.00  0.00    +0.000 A 
ATOM    197  C   UNK A   1      23.405   2.555   0.000  0.00  0.00    +0.000 A 
ATOM    198  C   UNK A   1      23.405   1.126   0.000  0.00  0.00    +0.000 A 
ATOM    199  C   UNK A   1      24.230   2.555   0.000  0.00  0.00    +0.000 A 
ATOM    200  C   UNK A   1      24.230   1.126   0.000  0.00  0.00    +0.000 A 
ATOM    201  C   UNK A   1      24.642   1.841   0.000  0.00  0.00    +0.000 A 
ENDBRANCH 195 196
ENDBRANCH 157 195
ENDBRANCH 156 157
ENDBRANCH 150 155
ENDBRANCH 149 150
ENDBRANCH 146 148
BRANCH 146 203
ATOM    202  O   UNK A   1      19.280  -0.302   0.000  0.00  0.00    +0.000 OA
ATOM    203  C   UNK A   1      18.455  -0.302   0.000  0.00  0.00    +0.000 C 
ENDBRANCH 146 203
ENDBRANCH 145 146
ENDBRANCH 142 144
BRANCH 142 204
ATOM    204  C   UNK A   1      15.567  -1.017   0.000  0.00  0.00    +0.000 C 
BRANCH 204 207
ATOM    205  O   UNK A   1      15.567  -2.446   0.000  0.00  0.00    +0.000 OA
ATOM    206  O   UNK A   1      16.805  -1.731   0.000  0.00  0.00    +0.000 OA
ATOM    207  C   UNK A   1      15.980  -1.731   0.000  0.00  0.00    +0.000 C 
ENDBRANCH 204 207
ENDBRANCH 142 204
ENDBRANCH 141 142
ENDBRANCH 138 140
BRANCH 138 208
ATOM    208  C   UNK A   1      14.742   1.841   0.000  0.00  0.00    +0.000 C 
ATOM    209  C   UNK A   1      15.567   1.841   0.000  0.00  0.00    +0.000 C 
ATOM    210  C   UNK A   1      14.330   2.555   0.000  0.00  0.00    +0.000 C 
ENDBRANCH 138 208
ENDBRANCH 137 138
ENDBRANCH 134 136
BRANCH 134 212
ATOM    211  O   GLY A   2      12.267   0.412   0.000  0.00  0.00    +0.000 OA
ATOM    212  CB  GLY A   2      11.855   1.126   0.000  0.00  0.00    +0.000 C 
ENDBRANCH 134 212
ENDBRANCH 133 134
ENDBRANCH 130 132
BRANCH 130 214
ATOM    213  O   UNK A   1      11.855   3.984   0.000  0.00  0.00    +0.000 OA
ATOM    214  C   UNK A   1      11.030   3.984   0.000  0.00  0.00    +0.000 C 
ENDBRANCH 130 214
ENDBRANCH 129 130
ENDBRANCH 126 128
BRANCH 126 215
ATOM    215  C   UNK A   1       8.142   4.699   0.000  0.00  0.00    +0.000 C 
BRANCH 215 217
ATOM    216  O   UNK A   1       9.792   7.556   0.000  0.00  0.00    +0.000 OA
ATOM    217  C   UNK A   1       8.555   5.413   0.000  0.00  0.00    +0.000 A 
ATOM    218  C   UNK A   1       9.380   5.413   0.000  0.00  0.00    +0.000 A 
ATOM    219  C   UNK A   1       8.142   6.128   0.000  0.00  0.00    +0.000 A 
ATOM    220  C   UNK A   1       9.792   6.128   0.000  0.00  0.00    +0.000 A 
ATOM    221  C   UNK A   1       8.555   6.842   0.000  0.00  0.00    +0.000 A 
ATOM    222  C   UNK A   1       9.380   6.842   0.000  0.00  0.00    +0.000 A 
ENDBRANCH 215 217
ENDBRANCH 126 215
ENDBRANCH 125 126
ENDBRANCH 122 124
BRANCH 122 223
ATOM    223  C   UNK A   1       7.317   1.841   0.000  0.00  0.00    +0.000 C 
BRANCH 223 224
ATOM    224  C   UNK A   1       6.905   1.126   0.000  0.00  0.00    +0.000 C 
ATOM    225  C   UNK A   1       7.317   0.412   0.000  0.00  0.00    +0.000 C 
ATOM    226  C   UNK A   1       6.080   1.126   0.000  0.00  0.00    +0.000 C 
ENDBRANCH 223 224
ENDBRANCH 122 223
ENDBRANCH 121 122
ENDBRANCH 118 120
BRANCH 118 227
ATOM    227  CB  GLY A   2       4.651   3.380   0.000  0.00  0.00    +0.000 C 
BRANCH 227 228
ATOM    228  CG  GLY A   2       5.365   3.793   0.000  0.00  0.00    +0.000 C 
BRANCH 228 231
ATOM    229  OE1 GLY A   2       6.080   5.030   0.000  0.00  0.00    +0.000 OA
ATOM    230  OE2 GLY A   2       4.651   5.030   0.000  0.00  0.00    +0.000 OA
ATOM    231  CD  GLY A   2       5.365   4.618   0.000  0.00  0.00    +0.000 C 
ENDBRANCH 228 231
ENDBRANCH 227 228
ENDBRANCH 118 227
ENDBRANCH 117 118
ENDBRANCH 114 116
ENDBRANCH 113 114
ENDBRANCH 110 112
BRANCH 110 232
ATOM    232  CB  GLN A   4       0.364   3.380   0.000  0.00  0.00    +0.000 C 
BRANCH 232 233
ATOM    233  CG  GLN A   4       1.078   3.793   0.000  0.00  0.00    +0.000 C 
BRANCH 233 236
ATOM    234  OE1 GLN A   4       0.364   5.030   0.000  0.00  0.00    +0.000 OA
ATOM    235  NE2 GLN A   4       1.793   5.030   0.000  0.00  0.00    +0.000 NA
ATOM    236  CD  GLN A   4       1.078   4.618   0.000  0.00  0.00    +0.000 C 
ENDBRANCH 233 236
ENDBRANCH 232 233
ENDBRANCH 110 232
ENDBRANCH 109 110
ENDBRANCH 105 108
ENDBRANCH 104 105
ENDBRANCH 100 103
ENDBRANCH  99 100
ENDBRANCH   1  98
BRANCH   1 237
ATOM    237  C   UNK A   1      -6.066   1.318   0.000  0.00  0.00    +0.000 C 
BRANCH 237 238
ATOM    238  C   UNK A   1      -5.352   0.905   0.000  0.00  0.00    +0.000 C 
BRANCH 238 239
ATOM    239  C   UNK A   1      -5.352   0.080   0.000  0.00  0.00    +0.000 C 
BRANCH 239 240
ATOM    240  C   UNK A   1      -4.637  -0.332   0.000  0.00  0.00    +0.000 C 
BRANCH 240 242
ATOM    241  O   UNK A   1      -3.208  -1.157   0.000  0.00  0.00    +0.000 OA
ATOM    242  N   UNK A   1      -4.637  -1.157   0.000  0.00  0.00    +0.000 NA
ATOM    243  C   UNK A   1      -3.923  -1.570   0.000  0.00  0.00    +0.000 C 
BRANCH 243 244
ATOM    244  C   UNK A   1      -3.923  -2.395   0.000  0.00  0.00    +0.000 C 
BRANCH 244 245
ATOM    245  O   UNK A   1      -3.208  -2.807   0.000  0.00  0.00    +0.000 OA
BRANCH 245 246
ATOM    246  C   UNK A   1      -3.208  -3.632   0.000  0.00  0.00    +0.000 C 
BRANCH 246 247
ATOM    247  C   UNK A   1      -2.494  -4.045   0.000  0.00  0.00    +0.000 C 
BRANCH 247 248
ATOM    248  O   UNK A   1      -2.494  -4.870   0.000  0.00  0.00    +0.000 OA
BRANCH 248 249
ATOM    249  C   UNK A   1      -1.779  -5.282   0.000  0.00  0.00    +0.000 C 
BRANCH 249 250
ATOM    250  C   UNK A   1      -1.779  -6.107   0.000  0.00  0.00    +0.000 C 
BRANCH 250 252
ATOM    251  O   UNK A   1      -1.779  -7.757   0.000  0.00  0.00    +0.000 OA
ATOM    252  N   UNK A   1      -1.065  -6.520   0.000  0.00  0.00    +0.000 NA
ATOM    253  C   UNK A   1      -1.065  -7.345   0.000  0.00  0.00    +0.000 C 
BRANCH 253 254
ATOM    254  C   UNK A   1      -0.350  -7.757   0.000  0.00  0.00    +0.000 C 
BRANCH 254 255
ATOM    255  O   UNK A   1      -0.350  -8.582   0.000  0.00  0.00    +0.000 OA
BRANCH 255 256
ATOM    256  C   UNK A   1       0.364  -8.995   0.000  0.00  0.00    +0.000 C 
BRANCH 256 257
ATOM    257  C   UNK A   1       0.364  -9.820   0.000  0.00  0.00    +0.000 C 
BRANCH 257 258
ATOM    258  O   UNK A   1       1.079 -10.232   0.000  0.00  0.00    +0.000 OA
BRANCH 258 259
ATOM    259  C   UNK A   1       1.079 -11.057   0.000  0.00  0.00    +0.000 C 
BRANCH 259 260
ATOM    260  C   UNK A   1       1.793 -11.470   0.000  0.00  0.00    +0.000 C 
BRANCH 260 262
ATOM    261  O   UNK A   1       3.222 -12.295   0.000  0.00  0.00    +0.000 OA
ATOM    262  N   UNK A   1       1.793 -12.295   0.000  0.00  0.00    +0.000 NA
ATOM    263  C   UNK A   1       2.507 -12.707   0.000  0.00  0.00    +0.000 C 
BRANCH 263 264
ATOM    264  C   UNK A   1       2.507 -13.532   0.000  0.00  0.00    +0.000 C 
BRANCH 264 265
ATOM    265  C   UNK A   1       3.222 -13.945   0.000  0.00  0.00    +0.000 C 
BRANCH 265 266
ATOM    266  C   UNK A   1       3.222 -14.770   0.000  0.00  0.00    +0.000 C 
BRANCH 266 268
ATOM    267  O   UNK A   0       4.651 -13.945   0.000  0.00  0.00    +0.000 OA
ATOM    268  N   UNK A   1       3.936 -15.182   0.000  0.00  0.00    +0.000 NA
ATOM    269  C   UNK A   0       4.651 -14.770   0.000  0.00  0.00    +0.000 C 
BRANCH 269 270
ATOM    270  C   UNK A   0       5.365 -15.182   0.000  0.00  0.00    +0.000 C 
BRANCH 270 271
ATOM    271  C   UNK A   0       6.080 -14.770   0.000  0.00  0.00    +0.000 C 
BRANCH 271 272
ATOM    272  C   UNK A   0       6.794 -15.182   0.000  0.00  0.00    +0.000 C 
BRANCH 272 273
ATOM    273  C   UNK A   0       7.509 -14.770   0.000  0.00  0.00    +0.000 C 
BRANCH 273 274
ATOM    274  C   UNK A   0       8.223 -15.182   0.000  0.00  0.00    +0.000 C 
BRANCH 274 275
ATOM    275  C   UNK A   0       8.938 -14.770   0.000  0.00  0.00    +0.000 C 
BRANCH 275 276
ATOM    276  C   UNK A   0       9.652 -15.182   0.000  0.00  0.00    +0.000 C 
BRANCH 276 277
ATOM    277  C   UNK A   0      10.367 -14.770   0.000  0.00  0.00    +0.000 C 
BRANCH 277 278
ATOM    278  C   UNK A   0      11.081 -15.182   0.000  0.00  0.00    +0.000 C 
BRANCH 278 279
ATOM    279  C   UNK A   0      11.795 -14.770   0.000  0.00  0.00    +0.000 C 
BRANCH 279 280
ATOM    280  C   UNK A   0      12.510 -15.182   0.000  0.00  0.00    +0.000 C 
BRANCH 280 281
ATOM    281  C   UNK A   0      13.225 -14.770   0.000  0.00  0.00    +0.000 C 
BRANCH 281 282
ATOM    282  C   UNK A   0      13.939 -15.182   0.000  0.00  0.00    +0.000 C 
BRANCH 282 283
ATOM    283  C   UNK A   0      14.653 -14.770   0.000  0.00  0.00    +0.000 C 
BRANCH 283 284
ATOM    284  C   UNK A   0      15.368 -15.182   0.000  0.00  0.00    +0.000 C 
BRANCH 284 285
ATOM    285  C   UNK A   0      16.082 -14.770   0.000  0.00  0.00    +0.000 C 
BRANCH 285 288
ATOM    286  O   UNK A   0      17.511 -14.770   0.000  0.00  0.00    +0.000 OA
ATOM    287  O   UNK A   0      16.797 -16.007   0.000  0.00  0.00    +0.000 OA
ATOM    288  C   UNK A   0      16.797 -15.182   0.000  0.00  0.00    +0.000 C 
ENDBRANCH 285 288
ENDBRANCH 284 285
ENDBRANCH 283 284
ENDBRANCH 282 283
ENDBRANCH 281 282
ENDBRANCH 280 281
ENDBRANCH 279 280
ENDBRANCH 278 279
ENDBRANCH 277 278
ENDBRANCH 276 277
ENDBRANCH 275 276
ENDBRANCH 274 275
ENDBRANCH 273 274
ENDBRANCH 272 273
ENDBRANCH 271 272
ENDBRANCH 270 271
ENDBRANCH 269 270
ENDBRANCH 266 268
BRANCH 266 291
ATOM    289  O   UNK A   1       1.793 -14.770   0.000  0.00  0.00    +0.000 OA
ATOM    290  O   UNK A   1       2.507 -16.007   0.000  0.00  0.00    +0.000 OA
ATOM    291  C   UNK A   1       2.507 -15.182   0.000  0.00  0.00    +0.000 C 
ENDBRANCH 266 291
ENDBRANCH 265 266
ENDBRANCH 264 265
ENDBRANCH 263 264
ENDBRANCH 260 262
ENDBRANCH 259 260
ENDBRANCH 258 259
ENDBRANCH 257 258
ENDBRANCH 256 257
ENDBRANCH 255 256
ENDBRANCH 254 255
ENDBRANCH 253 254
ENDBRANCH 250 252
ENDBRANCH 249 250
ENDBRANCH 248 249
ENDBRANCH 247 248
ENDBRANCH 246 247
ENDBRANCH 245 246
ENDBRANCH 244 245
ENDBRANCH 243 244
ENDBRANCH 240 242
ENDBRANCH 239 240
ENDBRANCH 238 239
ENDBRANCH 237 238
ENDBRANCH   1 237
TORSDOF 149
