REMARK  Name = 
REMARK  14 active torsions:
REMARK  status: ('A' for Active; 'I' for Inactive)
REMARK    1  A    between atoms: C_2  and  C_3
REMARK    2  A    between atoms: C_3  and  C_4
REMARK    3  A    between atoms: C_4  and  C_5
REMARK    4  A    between atoms: C_7  and  C_24
REMARK    5  A    between atoms: N_9  and  C_10
REMARK    6  A    between atoms: C_13  and  O_16
REMARK    7  A    between atoms: O_16  and  C_17
REMARK    8  A    between atoms: C_27  and  O_30
REMARK    9  A    between atoms: O_30  and  C_31
REMARK   10  A    between atoms: C_31  and  C_32
REMARK   11  A    between atoms: C_32  and  C_33
REMARK   12  A    between atoms: C_33  and  N_34
REMARK   13  A    between atoms: N_34  and  C_35
REMARK   14  A    between atoms: N_34  and  C_37
REMARK                            x       y       z     vdW  Elec       q    Type
REMARK                         _______ _______ _______ _____ _____    ______ ____
ROOT
ATOM      1  C   UNL     1      -3.553   3.602   0.000  0.00  0.00    +0.000 A 
ATOM      2  N   UNL     1      -2.768   3.857   0.000  0.00  0.00    +0.000 NA
ATOM      3  C   UNL     1      -2.284   3.189   0.000  0.00  0.00    +0.000 A 
ATOM      4  C   UNL     1      -2.768   2.522   0.000  0.00  0.00    +0.000 A 
ATOM      5  N   UNL     1      -3.553   2.777   0.000  0.00  0.00    +0.000 N 
ENDROOT
BRANCH   3   6
ATOM      6  C   UNL     1      -1.459   3.189   0.000  0.00  0.00    +0.000 A 
ATOM      7  C   UNL     1      -1.046   3.904   0.000  0.00  0.00    +0.000 A 
ATOM      8  C   UNL     1      -0.221   3.904   0.000  0.00  0.00    +0.000 A 
ATOM      9  C   UNL     1       0.191   3.189   0.000  0.00  0.00    +0.000 A 
ATOM     10  C   UNL     1      -0.221   2.475   0.000  0.00  0.00    +0.000 A 
ATOM     11  C   UNL     1      -1.046   2.475   0.000  0.00  0.00    +0.000 A 
BRANCH   9  12
ATOM     12  O   UNL     1       1.016   3.189   0.000  0.00  0.00    +0.000 OA
BRANCH  12  13
ATOM     13  C   UNL     1       1.429   2.475   0.000  0.00  0.00    +0.000 C 
BRANCH  13  14
ATOM     14  C   UNL     1       2.254   2.475   0.000  0.00  0.00    +0.000 C 
BRANCH  14  15
ATOM     15  C   UNL     1       2.666   1.760   0.000  0.00  0.00    +0.000 C 
BRANCH  15  16
ATOM     16  N   UNL     1       3.491   1.760   0.000  0.00  0.00    +0.000 NA
BRANCH  16  17
ATOM     17  C   UNL     1       3.904   2.475   0.000  0.00  0.00    +0.000 C 
ATOM     18  C   UNL     1       4.729   2.475   0.000  0.00  0.00    +0.000 C 
ENDBRANCH  16  17
BRANCH  16  19
ATOM     19  C   UNL     1       3.904   1.046   0.000  0.00  0.00    +0.000 C 
ATOM     20  C   UNL     1       4.729   1.046   0.000  0.00  0.00    +0.000 C 
ENDBRANCH  16  19
ENDBRANCH  15  16
ENDBRANCH  14  15
ENDBRANCH  13  14
ENDBRANCH  12  13
ENDBRANCH   9  12
ENDBRANCH   3   6
BRANCH   5  21
ATOM     21  C   UNL     1      -4.221   2.292   0.000  0.00  0.00    +0.000 A 
ATOM     22  C   UNL     1      -4.134   1.472   0.000  0.00  0.00    +0.000 A 
ATOM     23  C   UNL     1      -4.802   0.987   0.000  0.00  0.00    +0.000 A 
ATOM     24  C   UNL     1      -5.555   1.322   0.000  0.00  0.00    +0.000 A 
ATOM     25  C   UNL     1      -5.642   2.143   0.000  0.00  0.00    +0.000 A 
ATOM     26  C   UNL     1      -4.974   2.628   0.000  0.00  0.00    +0.000 A 
BRANCH  24  27
ATOM     27  O   UNL     1      -6.223   0.837   0.000  0.00  0.00    +0.000 OA
BRANCH  27  28
ATOM     28  C   UNL     1      -6.976   1.173   0.000  0.00  0.00    +0.000 A 
ATOM     29  C   UNL     1      -7.644   0.688   0.000  0.00  0.00    +0.000 A 
ATOM     30  C   UNL     1      -8.398   1.024   0.000  0.00  0.00    +0.000 A 
ATOM     31  C   UNL     1      -8.484   1.844   0.000  0.00  0.00    +0.000 A 
ATOM     32  C   UNL     1      -7.816   2.329   0.000  0.00  0.00    +0.000 A 
ATOM     33  C   UNL     1      -7.063   1.993   0.000  0.00  0.00    +0.000 A 
ATOM     34 CL   UNL     1      -9.238   2.179   0.000  0.00  0.00    +0.000 Cl
ENDBRANCH  27  28
ENDBRANCH  24  27
ENDBRANCH   5  21
BRANCH   1  35
ATOM     35  C   UNL     1      -4.221   4.087   0.000  0.00  0.00    +0.000 C 
BRANCH  35  36
ATOM     36  C   UNL     1      -4.974   3.751   0.000  0.00  0.00    +0.000 C 
BRANCH  36  38
ATOM     37  C   UNL     1      -6.395   3.901   0.000  0.00  0.00    +0.000 C 
ATOM     38  C   UNL     1      -5.642   4.236   0.000  0.00  0.00    +0.000 C 
ENDBRANCH  36  38
ENDBRANCH  35  36
ENDBRANCH   1  35
TORSDOF 14
