REMARK  Name = 
REMARK  6 active torsions:
REMARK  status: ('A' for Active; 'I' for Inactive)
REMARK    1  A    between atoms: C_7  and  C_10
REMARK    2  A    between atoms: C_10  and  C_11
REMARK    3  A    between atoms: C_11  and  N_12
REMARK    4  A    between atoms: N_12  and  C_13
REMARK    5  A    between atoms: C_16  and  N_19
REMARK    6  A    between atoms: N_19  and  C_20
REMARK                            x       y       z     vdW  Elec       q    Type
REMARK                         _______ _______ _______ _____ _____    ______ ____
ROOT
ATOM      1  C   UNL     1       1.733   4.986   0.000  0.00  0.00    +0.000 A 
ATOM      2  C   UNL     1       1.478   5.770   0.000  0.00  0.00    +0.000 A 
ATOM      3  C   UNL     1       2.030   6.383   0.000  0.00  0.00    +0.000 A 
ATOM      4  C   UNL     1       2.837   6.212   0.000  0.00  0.00    +0.000 A 
ATOM      5  C   UNL     1       3.092   5.427   0.000  0.00  0.00    +0.000 A 
ATOM      6  C   UNL     1       2.540   4.814   0.000  0.00  0.00    +0.000 A 
ENDROOT
BRANCH   4   7
ATOM      7  N   UNL     1       3.389   6.825   0.000  0.00  0.00    +0.000 NA
BRANCH   7   8
ATOM      8  C   UNL     1       4.196   6.654   0.000  0.00  0.00    +0.000 A 
ATOM      9  C   UNL     1       4.748   7.267   0.000  0.00  0.00    +0.000 A 
ATOM     10  C   UNL     1       5.555   7.095   0.000  0.00  0.00    +0.000 A 
ATOM     11  N   UNL     1       5.810   6.311   0.000  0.00  0.00    +0.000 NA
ATOM     12  C   UNL     1       5.258   5.697   0.000  0.00  0.00    +0.000 A 
ATOM     13  C   UNL     1       4.451   5.869   0.000  0.00  0.00    +0.000 A 
ENDBRANCH   7   8
ENDBRANCH   4   7
BRANCH   1  14
ATOM     14  N   UNL     1       1.181   4.373   0.000  0.00  0.00    +0.000 NA
BRANCH  14  15
ATOM     15  C   UNL     1       1.436   3.588   0.000  0.00  0.00    +0.000 C 
BRANCH  15  16
ATOM     16  C   UNL     1       0.884   2.975   0.000  0.00  0.00    +0.000 C 
BRANCH  16  23
ATOM     17  C   UNL     1       3.352   1.935   0.000  0.00  0.00    +0.000 A 
ATOM     18  C   UNL     1       3.352   1.110   0.000  0.00  0.00    +0.000 A 
ATOM     19  C   UNL     1       2.638   0.698   0.000  0.00  0.00    +0.000 A 
ATOM     20  C   UNL     1       1.923   1.110   0.000  0.00  0.00    +0.000 A 
ATOM     21  C   UNL     1       1.923   1.935   0.000  0.00  0.00    +0.000 A 
ATOM     22  C   UNL     1       2.638   2.348   0.000  0.00  0.00    +0.000 A 
ATOM     23  C   UNL     1       1.139   2.190   0.000  0.00  0.00    +0.000 A 
ATOM     24  C   UNL     1       0.654   1.523   0.000  0.00  0.00    +0.000 A 
ATOM     25  N   UNL     1       1.139   0.856   0.000  0.00  0.00    +0.000 NA
ENDBRANCH  16  23
ENDBRANCH  15  16
ENDBRANCH  14  15
ENDBRANCH   1  14
TORSDOF 6
