REMARK  Name = 
REMARK  8 active torsions:
REMARK  status: ('A' for Active; 'I' for Inactive)
REMARK    1  A    between atoms: C_1  and  C_2
REMARK    2  A    between atoms: C_1  and  C_3
REMARK    3  A    between atoms: C_1  and  C_4
REMARK    4  A    between atoms: C_2  and  C_6
REMARK    5  A    between atoms: C_3  and  O_8
REMARK    6  A    between atoms: C_4  and  O_9
REMARK    7  A    between atoms: O_8  and  C_11
REMARK    8  A    between atoms: O_9  and  C_12
REMARK                            x       y       z     vdW  Elec       q    Type
REMARK                         _______ _______ _______ _____ _____    ______ ____
ROOT
ATOM      1  C   UNL     1      -0.001  -0.007   0.000  0.00  0.00    +0.000 C 
ATOM      2  C   UNL     1      -0.715  -0.419   0.000  0.00  0.00    +0.000 C 
ENDROOT
BRANCH   1   3
ATOM      3  C   UNL     1       0.713   0.406   0.000  0.00  0.00    +0.000 C 
ATOM      4  C   UNL     1       0.713   1.231   0.000  0.00  0.00    +0.000 C 
BRANCH   3   5
ATOM      5  C   UNL     1       1.428  -0.007   0.000  0.00  0.00    +0.000 C 
ATOM      6  C   UNL     1       2.142   0.406   0.000  0.00  0.00    +0.000 C 
ENDBRANCH   3   5
ENDBRANCH   1   3
BRANCH   1   7
ATOM      7  C   UNL     1      -0.001  -0.832   0.000  0.00  0.00    +0.000 C 
BRANCH   7   8
ATOM      8  O   UNL     1      -0.722  -1.231   0.000  0.00  0.00    +0.000 OA
BRANCH   8   9
ATOM      9  C   UNL     1      -0.722  -2.056   0.000  0.00  0.00    +0.000 C 
ATOM     10  N   UNL     1      -1.436  -2.468   0.000  0.00  0.00    +0.000 NA
ATOM     11  O   UNL     1      -0.007  -2.468   0.000  0.00  0.00    +0.000 OA
ENDBRANCH   8   9
ENDBRANCH   7   8
ENDBRANCH   1   7
BRANCH   1  12
ATOM     12  C   UNL     1      -0.715   0.406   0.000  0.00  0.00    +0.000 C 
BRANCH  12  13
ATOM     13  O   UNL     1      -0.715   1.231   0.000  0.00  0.00    +0.000 OA
BRANCH  13  14
ATOM     14  C   UNL     1      -1.430   1.643   0.000  0.00  0.00    +0.000 C 
ATOM     15  N   UNL     1      -2.142   1.231   0.000  0.00  0.00    +0.000 NA
ATOM     16  O   UNL     1      -1.430   2.468   0.000  0.00  0.00    +0.000 OA
ENDBRANCH  13  14
ENDBRANCH  12  13
ENDBRANCH   1  12
TORSDOF 8
