REMARK  Name = 
REMARK  4 active torsions:
REMARK  status: ('A' for Active; 'I' for Inactive)
REMARK    1  A    between atoms: N_4  and  S_17
REMARK    2  A    between atoms: C_8  and  C_10
REMARK    3  A    between atoms: S_17  and  C_20
REMARK    4  A    between atoms: C_23  and  C_26
REMARK                            x       y       z     vdW  Elec       q    Type
REMARK                         _______ _______ _______ _____ _____    ______ ____
ROOT
ATOM      1  C   UNL     1       0.715  -1.238   0.000  0.00  0.00    +0.000 C 
ATOM      2  C   UNL     1       0.715  -2.062   0.000  0.00  0.00    +0.000 C 
ATOM      3  C   UNL     1       1.429  -2.475   0.000  0.00  0.00    +0.000 C 
ATOM      4  N   UNL     1       1.429  -3.300   0.000  0.00  0.00    +0.000 NA
ATOM      5  C   UNL     1       0.715  -3.712   0.000  0.00  0.00    +0.000 C 
ATOM      6  C   UNL     1       0.000  -3.300   0.000  0.00  0.00    +0.000 C 
ATOM      7  N   UNL     1       0.000  -2.475   0.000  0.00  0.00    +0.000 N 
ATOM      8  C   UNL     1      -0.715  -2.062   0.000  0.00  0.00    +0.000 C 
ATOM      9  O   UNL     1      -1.429  -2.475   0.000  0.00  0.00    +0.000 OA
ENDROOT
BRANCH   8  10
ATOM     10  C   UNL     1      -0.715  -1.238   0.000  0.00  0.00    +0.000 A 
ATOM     11  C   UNL     1       0.000  -0.825   0.000  0.00  0.00    +0.000 A 
ATOM     12  C   UNL     1       0.000   0.000   0.000  0.00  0.00    +0.000 A 
ATOM     13  C   UNL     1      -0.715   0.412   0.000  0.00  0.00    +0.000 A 
ATOM     14  N   UNL     1      -1.429   0.000   0.000  0.00  0.00    +0.000 NA
ATOM     15  C   UNL     1      -1.429  -0.825   0.000  0.00  0.00    +0.000 A 
ATOM     16  C   UNL     1      -2.143  -1.238   0.000  0.00  0.00    +0.000 C 
ENDBRANCH   8  10
BRANCH   4  17
ATOM     17  S   UNL     1       2.143  -3.712   0.000  0.00  0.00    +0.000 S 
ATOM     18  O   UNL     1       1.731  -4.427   0.000  0.00  0.00    +0.000 OA
ATOM     19  O   UNL     1       2.556  -2.998   0.000  0.00  0.00    +0.000 OA
BRANCH  17  20
ATOM     20  C   UNL     1       2.858  -4.125   0.000  0.00  0.00    +0.000 A 
ATOM     21  C   UNL     1       3.572  -3.712   0.000  0.00  0.00    +0.000 A 
ATOM     22  C   UNL     1       4.287  -4.125   0.000  0.00  0.00    +0.000 A 
ATOM     23  C   UNL     1       4.287  -4.950   0.000  0.00  0.00    +0.000 A 
ATOM     24  C   UNL     1       3.572  -5.362   0.000  0.00  0.00    +0.000 A 
ATOM     25  C   UNL     1       2.858  -4.950   0.000  0.00  0.00    +0.000 A 
BRANCH  23  26
ATOM     26  C   UNL     1       5.001  -5.362   0.000  0.00  0.00    +0.000 C 
ATOM     27  F   UNL     1       5.716  -5.775   0.000  0.00  0.00    +0.000 F 
ATOM     28  F   UNL     1       4.589  -6.077   0.000  0.00  0.00    +0.000 F 
ATOM     29  F   UNL     1       5.414  -4.648   0.000  0.00  0.00    +0.000 F 
ENDBRANCH  23  26
ENDBRANCH  17  20
ENDBRANCH   4  17
TORSDOF 4
