REMARK  Name = 
REMARK  2 active torsions:
REMARK  status: ('A' for Active; 'I' for Inactive)
REMARK    1  A    between atoms: S_1  and  C_2
REMARK    2  A    between atoms: S_12  and  C_13
REMARK                            x       y       z     vdW  Elec       q    Type
REMARK                         _______ _______ _______ _____ _____    ______ ____
ROOT
ATOM      1  C   UNL     1      -0.427  -1.844   0.000  0.00  0.00    +0.000 A 
ATOM      2  C   UNL     1      -0.427  -1.015   0.000  0.00  0.00    +0.000 A 
ATOM      3  C   UNL     1      -1.132  -2.250   0.000  0.00  0.00    +0.000 A 
ATOM      4  C   UNL     1      -1.132  -0.609   0.000  0.00  0.00    +0.000 A 
ATOM      5  C   UNL     1      -1.834  -1.817   0.000  0.00  0.00    +0.000 A 
ATOM      6  C   UNL     1      -1.834  -1.032   0.000  0.00  0.00    +0.000 A 
ATOM      7  O   UNL     1      -2.567  -0.629   0.000  0.00  0.00    +0.000 OA
ENDROOT
BRANCH   1   8
ATOM      8  S   UNL     1       0.296  -2.250   0.000  0.00  0.00    +0.000 S 
ATOM      9  O   UNL     1      -0.127  -2.976   0.000  0.00  0.00    +0.000 OA
ATOM     10  O   UNL     1       0.702  -1.528   0.000  0.00  0.00    +0.000 OA
ATOM     11  O   UNL     1       1.025  -2.677   0.000  0.00  0.00    +0.000 OA
ENDBRANCH   1   8
TORSDOF 1
REMARK  Name = 
REMARK  2 active torsions:
REMARK  status: ('A' for Active; 'I' for Inactive)
REMARK    1  A    between atoms: S_1  and  C_2
REMARK    2  A    between atoms: S_12  and  C_13
REMARK                            x       y       z     vdW  Elec       q    Type
REMARK                         _______ _______ _______ _____ _____    ______ ____
ROOT
ATOM      1  C   UNL     1      -0.523   1.738   0.000  0.00  0.00    +0.000 A 
ATOM      2  C   UNL     1      -0.523   2.574   0.000  0.00  0.00    +0.000 A 
ATOM      3  C   UNL     1      -1.225   1.339   0.000  0.00  0.00    +0.000 A 
ATOM      4  C   UNL     1      -1.225   2.976   0.000  0.00  0.00    +0.000 A 
ATOM      5  C   UNL     1      -1.934   1.762   0.000  0.00  0.00    +0.000 A 
ATOM      6  C   UNL     1      -1.934   2.546   0.000  0.00  0.00    +0.000 A 
ATOM      7  O   UNL     1      -2.660   2.959   0.000  0.00  0.00    +0.000 OA
ENDROOT
BRANCH   1   8
ATOM      8  S   UNL     1       0.203   1.339   0.000  0.00  0.00    +0.000 S 
ATOM      9  O   UNL     1       0.612   2.061   0.000  0.00  0.00    +0.000 OA
ATOM     10  O   UNL     1      -0.224   0.602   0.000  0.00  0.00    +0.000 OA
ATOM     11  O   UNL     1       0.932   0.905   0.000  0.00  0.00    +0.000 OA
ENDBRANCH   1   8
TORSDOF 1
REMARK  Name = 
REMARK  2 active torsions:
REMARK  status: ('A' for Active; 'I' for Inactive)
REMARK    1  A    between atoms: S_1  and  C_2
REMARK    2  A    between atoms: S_12  and  C_13
REMARK                            x       y       z     vdW  Elec       q    Type
REMARK                         _______ _______ _______ _____ _____    ______ ____
ROOT
ATOM      1 ZN   UNL     1       2.660  -0.506   0.000  0.00  0.00    +0.000 Zn
ENDROOT
TORSDOF 0
