REMARK  Name = 
REMARK  1 active torsions:
REMARK  status: ('A' for Active; 'I' for Inactive)
REMARK    1  A    between atoms: N_3  and  N_6
REMARK                            x       y       z     vdW  Elec       q    Type
REMARK                         _______ _______ _______ _____ _____    ______ ____
ROOT
ATOM      1  C   UNL     1      -1.043   1.194   0.000  0.00  0.00    +0.000 A 
ATOM      2  C   UNL     1      -0.788   0.409   0.000  0.00  0.00    +0.000 A 
ATOM      3  N   UNL     1       0.037   0.409   0.000  0.00  0.00    +0.000 N 
ATOM      4  N   UNL     1       0.292   1.194   0.000  0.00  0.00    +0.000 NA
ATOM      5  O   UNL     1      -0.375   1.679   0.000  0.00  0.00    +0.000 OA
ATOM      6  N   UNL     1      -1.827   1.449   0.000  0.00  0.00    +0.000 NA
ENDROOT
BRANCH   3   7
ATOM      7  N   UNL     1       0.522  -0.258   0.000  0.00  0.00    +0.000 N 
ATOM      8  C   UNL     1       0.186  -1.012   0.000  0.00  0.00    +0.000 C 
ATOM      9  C   UNL     1       0.671  -1.679   0.000  0.00  0.00    +0.000 C 
ATOM     10  O   UNL     1       1.492  -1.593   0.000  0.00  0.00    +0.000 OA
ATOM     11  C   UNL     1       1.827  -0.839   0.000  0.00  0.00    +0.000 C 
ATOM     12  C   UNL     1       1.343  -0.172   0.000  0.00  0.00    +0.000 C 
ENDBRANCH   3   7
TORSDOF 1
