REMARK  Name = 
REMARK  2 active torsions:
REMARK  status: ('A' for Active; 'I' for Inactive)
REMARK    1  A    between atoms: C_2  and  C_3
REMARK    2  A    between atoms: C_10  and  C_11
REMARK                            x       y       z     vdW  Elec       q    Type
REMARK                         _______ _______ _______ _____ _____    ______ ____
ROOT
ATOM      1  C   UNL     1       0.000  -0.619   0.000  0.00  0.00    +0.000 A 
ATOM      2  N   UNL     1      -0.714  -1.031   0.000  0.00  0.00    +0.000 NA
ATOM      3  C   UNL     1      -1.429  -0.619   0.000  0.00  0.00    +0.000 A 
ATOM      4  N   UNL     1      -2.143  -1.031   0.000  0.00  0.00    +0.000 NA
ATOM      5  N   UNL     1      -1.429   0.206   0.000  0.00  0.00    +0.000 NA
ATOM      6  C   UNL     1      -0.714   0.619   0.000  0.00  0.00    +0.000 A 
ATOM      7  N   UNL     1      -0.715   1.444   0.000  0.00  0.00    +0.000 NA
ATOM      8  C   UNL     1       0.000   0.206   0.000  0.00  0.00    +0.000 A 
ENDROOT
BRANCH   8   9
ATOM      9  C   UNL     1       0.714   0.619   0.000  0.00  0.00    +0.000 A 
ATOM     10  C   UNL     1       0.714   1.444   0.000  0.00  0.00    +0.000 A 
ATOM     11  C   UNL     1       1.429   1.856   0.000  0.00  0.00    +0.000 A 
ATOM     12  C   UNL     1       2.143   1.444   0.000  0.00  0.00    +0.000 A 
ATOM     13  C   UNL     1       2.143   0.619   0.000  0.00  0.00    +0.000 A 
ATOM     14  C   UNL     1       1.429   0.206   0.000  0.00  0.00    +0.000 A 
ENDBRANCH   8   9
BRANCH   1  16
ATOM     15  C   UNL     1       0.715  -1.856   0.000  0.00  0.00    +0.000 C 
ATOM     16  C   UNL     1       0.715  -1.031   0.000  0.00  0.00    +0.000 C 
ENDBRANCH   1  16
TORSDOF 2
