REMARK  Name = 
REMARK  6 active torsions:
REMARK  status: ('A' for Active; 'I' for Inactive)
REMARK    1  A    between atoms: N_6  and  C_7
REMARK    2  A    between atoms: C_7  and  C_8
REMARK    3  A    between atoms: C_8  and  O_9
REMARK    4  A    between atoms: O_9  and  C_10
REMARK    5  A    between atoms: C_15  and  C_16
REMARK    6  A    between atoms: C_24  and  C_25
REMARK                            x       y       z     vdW  Elec       q    Type
REMARK                         _______ _______ _______ _____ _____    ______ ____
ROOT
ATOM      1  C   UNL     1       1.765  -0.273   0.000  0.00  0.00    +0.000 A 
ATOM      2  C   UNL     1       1.051  -0.686   0.000  0.00  0.00    +0.000 A 
ATOM      3  C   UNL     1       0.336  -0.273   0.000  0.00  0.00    +0.000 A 
ATOM      4  C   UNL     1       1.765   0.552   0.000  0.00  0.00    +0.000 A 
ATOM      5  C   UNL     1       1.051   0.964   0.000  0.00  0.00    +0.000 A 
ATOM      6  C   UNL     1       0.336   0.552   0.000  0.00  0.00    +0.000 A 
ENDROOT
BRANCH   6   7
ATOM      7  C   UNL     1      -0.378   0.964   0.000  0.00  0.00    +0.000 A 
ATOM      8  C   UNL     1      -1.093   0.552   0.000  0.00  0.00    +0.000 A 
ATOM      9  C   UNL     1      -0.378   1.789   0.000  0.00  0.00    +0.000 A 
ATOM     10  N   UNL     1      -1.093   2.202   0.000  0.00  0.00    +0.000 NA
ATOM     11  C   UNL     1      -1.807   1.789   0.000  0.00  0.00    +0.000 A 
ATOM     12  N   UNL     1      -1.807   0.964   0.000  0.00  0.00    +0.000 N 
ATOM     13  N   UNL     1      -2.592   0.709   0.000  0.00  0.00    +0.000 NA
ATOM     14  C   UNL     1      -3.077   1.377   0.000  0.00  0.00    +0.000 A 
ATOM     15  C   UNL     1      -2.592   2.044   0.000  0.00  0.00    +0.000 A 
BRANCH  15  16
ATOM     16  C   UNL     1      -2.847   2.829   0.000  0.00  0.00    +0.000 A 
ATOM     17  C   UNL     1      -3.654   3.000   0.000  0.00  0.00    +0.000 A 
ATOM     18  C   UNL     1      -3.909   3.785   0.000  0.00  0.00    +0.000 A 
ATOM     19  N   UNL     1      -3.357   4.398   0.000  0.00  0.00    +0.000 NA
ATOM     20  C   UNL     1      -2.550   4.226   0.000  0.00  0.00    +0.000 A 
ATOM     21  C   UNL     1      -2.295   3.442   0.000  0.00  0.00    +0.000 A 
ENDBRANCH  15  16
ENDBRANCH   6   7
BRANCH   1  22
ATOM     22  O   UNL     1       2.480  -0.686   0.000  0.00  0.00    +0.000 OA
BRANCH  22  23
ATOM     23  C   UNL     1       2.480  -1.511   0.000  0.00  0.00    +0.000 C 
BRANCH  23  24
ATOM     24  C   UNL     1       3.194  -1.923   0.000  0.00  0.00    +0.000 C 
BRANCH  24  30
ATOM     25  C   UNL     1       2.480  -3.161   0.000  0.00  0.00    +0.000 C 
ATOM     26  C   UNL     1       2.480  -3.986   0.000  0.00  0.00    +0.000 C 
ATOM     27  C   UNL     1       3.194  -4.398   0.000  0.00  0.00    +0.000 C 
ATOM     28  C   UNL     1       3.909  -3.986   0.000  0.00  0.00    +0.000 C 
ATOM     29  C   UNL     1       3.909  -3.161   0.000  0.00  0.00    +0.000 C 
ATOM     30  N   UNL     1       3.194  -2.748   0.000  0.00  0.00    +0.000 NA
ENDBRANCH  24  30
ENDBRANCH  23  24
ENDBRANCH  22  23
ENDBRANCH   1  22
TORSDOF 6
