REMARK  Name = 
REMARK  3 active torsions:
REMARK  status: ('A' for Active; 'I' for Inactive)
REMARK    1  A    between atoms: C_2  and  C_3
REMARK    2  A    between atoms: N_4  and  C_5
REMARK    3  A    between atoms: C_5  and  C_6
REMARK                            x       y       z     vdW  Elec       q    Type
REMARK                         _______ _______ _______ _____ _____    ______ ____
ROOT
ATOM      1  C   UNL     1      -0.714  -0.207   0.000  0.00  0.00    +0.000 C 
ATOM      2  N   UNL     1       0.000   0.207   0.000  0.00  0.00    +0.000 NA
ATOM      3  O   UNL     1      -0.714  -1.033   0.000  0.00  0.00    +0.000 OA
ENDROOT
BRANCH   1   5
ATOM      4  C   UNL     1      -2.142  -0.207   0.000  0.00  0.00    +0.000 C 
ATOM      5  C   UNL     1      -1.428   0.207   0.000  0.00  0.00    +0.000 C 
ATOM      6  S   UNL     1      -1.428   1.033   0.000  0.00  0.00    +0.000 S 
ENDBRANCH   1   5
BRANCH   2   7
ATOM      7  C   UNL     1       0.714  -0.207   0.000  0.00  0.00    +0.000 C 
BRANCH   7   8
ATOM      8  C   UNL     1       1.428   0.207   0.000  0.00  0.00    +0.000 C 
ATOM      9  O   UNL     1       2.142  -0.207   0.000  0.00  0.00    +0.000 OA
ATOM     10  O   UNL     1       1.428   1.033   0.000  0.00  0.00    +0.000 OA
ENDBRANCH   7   8
ENDBRANCH   2   7
TORSDOF 3
