REMARK  Name = 
REMARK  10 active torsions:
REMARK  status: ('A' for Active; 'I' for Inactive)
REMARK    1  A    between atoms: C_3  and  C_14
REMARK    2  A    between atoms: C_5  and  O_11
REMARK    3  A    between atoms: C_6  and  O_9
REMARK    4  A    between atoms: C_14  and  C_15
REMARK    5  A    between atoms: C_16  and  C_18
REMARK    6  A    between atoms: C_18  and  C_19
REMARK    7  A    between atoms: C_19  and  C_20
REMARK    8  A    between atoms: C_21  and  C_23
REMARK    9  A    between atoms: C_23  and  C_24
REMARK   10  A    between atoms: C_24  and  C_25
REMARK                            x       y       z     vdW  Elec       q    Type
REMARK                         _______ _______ _______ _____ _____    ______ ____
ROOT
ATOM      1  C   UNL     1       2.143   1.238   0.000  0.00  0.00    +0.000 C 
ENDROOT
BRANCH   1   4
ATOM      2  C   UNL     1       0.715   2.062   0.000  0.00  0.00    +0.000 C 
ATOM      3  C   UNL     1       0.715   1.238   0.000  0.00  0.00    +0.000 C 
ATOM      4  C   UNL     1       1.429   0.825   0.000  0.00  0.00    +0.000 C 
ATOM      5  C   UNL     1       1.429   0.000   0.000  0.00  0.00    +0.000 C 
ATOM      6  C   UNL     1       0.715  -0.412   0.000  0.00  0.00    +0.000 C 
ATOM      7  C   UNL     1       0.000   0.000   0.000  0.00  0.00    +0.000 C 
ATOM      8  C   UNL     1       0.000   0.825   0.000  0.00  0.00    +0.000 C 
ATOM      9  O   UNL     1      -0.715   1.238   0.000  0.00  0.00    +0.000 OA
ATOM     10  O   UNL     1       2.143  -0.412   0.000  0.00  0.00    +0.000 OA
BRANCH   6  11
ATOM     11  O   UNL     1       0.715  -1.238   0.000  0.00  0.00    +0.000 OA
ATOM     12  C   UNL     1       0.000  -1.650   0.000  0.00  0.00    +0.000 C 
ENDBRANCH   6  11
BRANCH   7  13
ATOM     13  O   UNL     1      -0.715  -0.412   0.000  0.00  0.00    +0.000 OA
ATOM     14  C   UNL     1      -1.429   0.000   0.000  0.00  0.00    +0.000 C 
ENDBRANCH   7  13
ENDBRANCH   1   4
BRANCH   1  15
ATOM     15  C   UNL     1       2.143   2.062   0.000  0.00  0.00    +0.000 C 
ATOM     16  C   UNL     1       2.858   2.475   0.000  0.00  0.00    +0.000 C 
ATOM     17  C   UNL     1       3.572   2.062   0.000  0.00  0.00    +0.000 C 
BRANCH  16  18
ATOM     18  C   UNL     1       2.858   3.300   0.000  0.00  0.00    +0.000 C 
BRANCH  18  19
ATOM     19  C   UNL     1       3.572   3.712   0.000  0.00  0.00    +0.000 C 
BRANCH  19  20
ATOM     20  C   UNL     1       3.572   4.537   0.000  0.00  0.00    +0.000 C 
ATOM     21  C   UNL     1       4.287   4.950   0.000  0.00  0.00    +0.000 C 
ATOM     22  C   UNL     1       5.001   4.537   0.000  0.00  0.00    +0.000 C 
BRANCH  21  23
ATOM     23  C   UNL     1       4.287   5.775   0.000  0.00  0.00    +0.000 C 
BRANCH  23  24
ATOM     24  C   UNL     1       5.001   6.188   0.000  0.00  0.00    +0.000 C 
BRANCH  24  25
ATOM     25  C   UNL     1       5.001   7.013   0.000  0.00  0.00    +0.000 C 
ATOM     26  C   UNL     1       5.716   7.425   0.000  0.00  0.00    +0.000 C 
ATOM     27  C   UNL     1       5.716   8.250   0.000  0.00  0.00    +0.000 C 
ATOM     28  C   UNL     1       6.430   7.013   0.000  0.00  0.00    +0.000 C 
ENDBRANCH  24  25
ENDBRANCH  23  24
ENDBRANCH  21  23
ENDBRANCH  19  20
ENDBRANCH  18  19
ENDBRANCH  16  18
ENDBRANCH   1  15
TORSDOF 10
