REMARK  Name = 
REMARK  4 active torsions:
REMARK  status: ('A' for Active; 'I' for Inactive)
REMARK    1  A    between atoms: P_2  and  O_5
REMARK    2  A    between atoms: O_5  and  C_6
REMARK    3  A    between atoms: C_6  and  C_7
REMARK    4  A    between atoms: C_12  and  N_13
REMARK                            x       y       z     vdW  Elec       q    Type
REMARK                         _______ _______ _______ _____ _____    ______ ____
ROOT
ATOM      1  C   UNL     1      -0.742   0.526   0.000  0.00  0.00    +0.000 C 
ATOM      2  O   UNL     1      -0.074   0.041   0.000  0.00  0.00    +0.000 OA
ATOM      3  C   UNL     1      -1.409   0.041   0.000  0.00  0.00    +0.000 C 
ATOM      4  O   UNL     1      -2.194   0.296   0.000  0.00  0.00    +0.000 OA
ATOM      5  C   UNL     1      -1.154  -0.744   0.000  0.00  0.00    +0.000 C 
ATOM      6  C   UNL     1      -0.329  -0.744   0.000  0.00  0.00    +0.000 C 
ENDROOT
BRANCH   6   7
ATOM      7  N   UNL     1       0.155  -1.411   0.000  0.00  0.00    +0.000 N 
ATOM      8  C   UNL     1      -0.180  -2.165   0.000  0.00  0.00    +0.000 A 
ATOM      9  O   UNL     1      -1.000  -2.251   0.000  0.00  0.00    +0.000 OA
ATOM     10  N   UNL     1       0.305  -2.832   0.000  0.00  0.00    +0.000 NA
ATOM     11  C   UNL     1       1.125  -2.746   0.000  0.00  0.00    +0.000 A 
ATOM     12  O   UNL     1       1.610  -3.413   0.000  0.00  0.00    +0.000 OA
ATOM     13  C   UNL     1       1.461  -1.992   0.000  0.00  0.00    +0.000 A 
ATOM     14  C   UNL     1       0.976  -1.325   0.000  0.00  0.00    +0.000 A 
ATOM     15 BR   UNL     1       2.281  -1.906   0.000  0.00  0.00    +0.000 Br
ENDBRANCH   6   7
BRANCH   1  16
ATOM     16  C   UNL     1      -0.742   1.351   0.000  0.00  0.00    +0.000 C 
BRANCH  16  17
ATOM     17  O   UNL     1      -1.456   1.763   0.000  0.00  0.00    +0.000 OA
BRANCH  17  19
ATOM     18  O   UNL     1      -1.456   3.413   0.000  0.00  0.00    +0.000 OA
ATOM     19  P   UNL     1      -1.456   2.588   0.000  0.00  0.00    +0.000 P 
ATOM     20  O   UNL     1      -2.281   2.588   0.000  0.00  0.00    +0.000 OA
ATOM     21  O   UNL     1      -0.631   2.588   0.000  0.00  0.00    +0.000 OA
ENDBRANCH  17  19
ENDBRANCH  16  17
ENDBRANCH   1  16
TORSDOF 4
