REMARK  Name = 
REMARK  6 active torsions:
REMARK  status: ('A' for Active; 'I' for Inactive)
REMARK    1  A    between atoms: C_2  and  C_3
REMARK    2  A    between atoms: C_3  and  N_4
REMARK    3  A    between atoms: C_5  and  C_7
REMARK    4  A    between atoms: C_13  and  C_17
REMARK    5  A    between atoms: C_19  and  O_25
REMARK    6  A    between atoms: C_22  and  O_23
REMARK                            x       y       z     vdW  Elec       q    Type
REMARK                         _______ _______ _______ _____ _____    ______ ____
ROOT
ATOM      1  C   UNL     1       4.287  -4.125   0.000  0.00  0.00    +0.000 A 
ATOM      2  C   UNL     1       5.001  -3.712   0.000  0.00  0.00    +0.000 A 
ATOM      3  C   UNL     1       5.716  -4.125   0.000  0.00  0.00    +0.000 A 
ATOM      4  C   UNL     1       6.430  -3.712   0.000  0.00  0.00    +0.000 A 
ATOM      5  C   UNL     1       7.145  -4.125   0.000  0.00  0.00    +0.000 A 
ATOM      6  C   UNL     1       7.145  -4.950   0.000  0.00  0.00    +0.000 A 
ATOM      7  C   UNL     1       6.430  -5.362   0.000  0.00  0.00    +0.000 A 
ATOM      8  C   UNL     1       5.716  -4.950   0.000  0.00  0.00    +0.000 A 
ATOM      9  N   UNL     1       5.001  -5.362   0.000  0.00  0.00    +0.000 NA
ATOM     10  N   UNL     1       4.287  -4.950   0.000  0.00  0.00    +0.000 NA
ATOM     11  N   UNL     1       5.001  -2.888   0.000  0.00  0.00    +0.000 NA
ENDROOT
BRANCH   7  12
ATOM     12  C   UNL     1       6.430  -6.188   0.000  0.00  0.00    +0.000 A 
ATOM     13  C   UNL     1       7.145  -6.600   0.000  0.00  0.00    +0.000 A 
ATOM     14  C   UNL     1       7.145  -7.425   0.000  0.00  0.00    +0.000 A 
ATOM     15  C   UNL     1       6.430  -7.838   0.000  0.00  0.00    +0.000 A 
ATOM     16  C   UNL     1       5.716  -7.425   0.000  0.00  0.00    +0.000 A 
ATOM     17  C   UNL     1       5.716  -6.600   0.000  0.00  0.00    +0.000 A 
BRANCH  17  18
ATOM     18  O   UNL     1       5.001  -6.188   0.000  0.00  0.00    +0.000 OA
ATOM     19  C   UNL     1       4.287  -6.600   0.000  0.00  0.00    +0.000 C 
ENDBRANCH  17  18
BRANCH  14  20
ATOM     20  O   UNL     1       7.859  -7.838   0.000  0.00  0.00    +0.000 OA
ATOM     21  C   UNL     1       8.574  -7.425   0.000  0.00  0.00    +0.000 C 
ENDBRANCH  14  20
ENDBRANCH   7  12
BRANCH   1  23
ATOM     22  N   UNL     1       2.858  -4.125   0.000  0.00  0.00    +0.000 NA
ATOM     23  C   UNL     1       3.572  -3.712   0.000  0.00  0.00    +0.000 C 
ATOM     24  O   UNL     1       3.572  -2.888   0.000  0.00  0.00    +0.000 OA
BRANCH  22  25
ATOM     25  C   UNL     1       2.143  -3.712   0.000  0.00  0.00    +0.000 C 
BRANCH  25  27
ATOM     26  C   UNL     1       0.715  -3.712   0.000  0.00  0.00    +0.000 C 
ATOM     27  C   UNL     1       1.429  -4.125   0.000  0.00  0.00    +0.000 C 
ENDBRANCH  25  27
ENDBRANCH  22  25
ENDBRANCH   1  23
TORSDOF 6
