REMARK  Name = 
REMARK  37 active torsions:
REMARK  status: ('A' for Active; 'I' for Inactive)
REMARK    1  A    between atoms: C_1  and  O_9
REMARK    2  A    between atoms: C_1  and  C_13
REMARK    3  A    between atoms: C_2  and  C_3
REMARK    4  A    between atoms: C_2  and  O_9
REMARK    5  A    between atoms: C_3  and  O_10
REMARK    6  A    between atoms: C_4  and  O_12
REMARK    7  A    between atoms: C_4  and  C_14
REMARK    8  A    between atoms: C_5  and  C_6
REMARK    9  A    between atoms: C_5  and  O_11
REMARK   10  A    between atoms: C_6  and  O_10
REMARK   11  A    between atoms: C_7  and  C_8
REMARK   12  A    between atoms: C_7  and  O_12
REMARK   13  A    between atoms: C_8  and  O_11
REMARK   14  A    between atoms: C_13  and  O_17
REMARK   15  A    between atoms: C_14  and  O_19
REMARK   16  A    between atoms: C_15  and  C_18
REMARK   17  A    between atoms: C_15  and  C_37
REMARK   18  A    between atoms: C_16  and  C_20
REMARK   19  A    between atoms: C_16  and  O_21
REMARK   20  A    between atoms: O_17  and  C_18
REMARK   21  A    between atoms: O_19  and  C_20
REMARK   22  A    between atoms: O_21  and  C_22
REMARK   23  A    between atoms: C_22  and  C_23
REMARK   24  A    between atoms: C_23  and  O_28
REMARK   25  A    between atoms: C_24  and  C_25
REMARK   26  A    between atoms: C_24  and  C_37
REMARK   27  A    between atoms: C_25  and  C_38
REMARK   28  A    between atoms: C_26  and  C_27
REMARK   29  A    between atoms: C_26  and  C_39
REMARK   30  A    between atoms: C_27  and  C_38
REMARK   31  A    between atoms: O_28  and  C_30
REMARK   32  A    between atoms: C_29  and  C_30
REMARK   33  A    between atoms: C_29  and  O_33
REMARK   34  A    between atoms: C_31  and  C_32
REMARK   35  A    between atoms: C_32  and  C_39
REMARK   36  A    between atoms: O_33  and  C_35
REMARK   37  A    between atoms: C_34  and  C_35
REMARK                            x       y       z     vdW  Elec       q    Type
REMARK                         _______ _______ _______ _____ _____    ______ ____
ROOT
ATOM      1  C   UNL     1      -6.430  -0.412   0.000  0.00  0.00    +0.000 C 
ENDROOT
BRANCH   1   2
ATOM      2  C   UNL     1      -6.430   0.412   0.000  0.00  0.00    +0.000 C 
BRANCH   2   3
ATOM      3  O   UNL     1      -5.716   0.825   0.000  0.00  0.00    +0.000 OA
BRANCH   3   4
ATOM      4  C   UNL     1      -5.716   1.650   0.000  0.00  0.00    +0.000 C 
BRANCH   4   5
ATOM      5  C   UNL     1      -5.001   2.062   0.000  0.00  0.00    +0.000 C 
BRANCH   5   6
ATOM      6  O   UNL     1      -4.287   1.650   0.000  0.00  0.00    +0.000 OA
BRANCH   6   7
ATOM      7  C   UNL     1      -3.572   2.062   0.000  0.00  0.00    +0.000 C 
BRANCH   7   8
ATOM      8  C   UNL     1      -2.858   1.650   0.000  0.00  0.00    +0.000 C 
BRANCH   8   9
ATOM      9  O   UNL     1      -2.143   2.062   0.000  0.00  0.00    +0.000 OA
BRANCH   9  10
ATOM     10  C   UNL     1      -1.429   1.650   0.000  0.00  0.00    +0.000 C 
BRANCH  10  11
ATOM     11  C   UNL     1      -0.714   2.062   0.000  0.00  0.00    +0.000 C 
BRANCH  11  12
ATOM     12  C   UNL     1       0.000   1.650   0.000  0.00  0.00    +0.000 C 
BRANCH  12  13
ATOM     13  C   UNL     1       0.714   2.062   0.000  0.00  0.00    +0.000 C 
BRANCH  13  14
ATOM     14  C   UNL     1       1.429   1.650   0.000  0.00  0.00    +0.000 C 
BRANCH  14  15
ATOM     15  C   UNL     1       2.143   2.062   0.000  0.00  0.00    +0.000 C 
BRANCH  15  16
ATOM     16  C   UNL     1       2.858   1.650   0.000  0.00  0.00    +0.000 C 
BRANCH  16  17
ATOM     17  C   UNL     1       3.572   2.062   0.000  0.00  0.00    +0.000 C 
BRANCH  17  18
ATOM     18  C   UNL     1       4.287   1.650   0.000  0.00  0.00    +0.000 C 
BRANCH  18  19
ATOM     19  C   UNL     1       5.001   2.062   0.000  0.00  0.00    +0.000 C 
BRANCH  19  20
ATOM     20  C   UNL     1       5.716   1.650   0.000  0.00  0.00    +0.000 C 
ATOM     21  C   UNL     1       6.430   2.062   0.000  0.00  0.00    +0.000 C 
ENDBRANCH  19  20
ENDBRANCH  18  19
ENDBRANCH  17  18
ENDBRANCH  16  17
ENDBRANCH  15  16
ENDBRANCH  14  15
ENDBRANCH  13  14
ENDBRANCH  12  13
ENDBRANCH  11  12
ENDBRANCH  10  11
ENDBRANCH   9  10
ENDBRANCH   8   9
ENDBRANCH   7   8
ENDBRANCH   6   7
ENDBRANCH   5   6
ENDBRANCH   4   5
ENDBRANCH   3   4
ENDBRANCH   2   3
ENDBRANCH   1   2
BRANCH   1  22
ATOM     22  O   UNL     1      -5.716  -0.825   0.000  0.00  0.00    +0.000 OA
BRANCH  22  23
ATOM     23  C   UNL     1      -5.716  -1.650   0.000  0.00  0.00    +0.000 C 
BRANCH  23  24
ATOM     24  C   UNL     1      -5.001  -2.062   0.000  0.00  0.00    +0.000 C 
BRANCH  24  25
ATOM     25  O   UNL     1      -4.287  -1.650   0.000  0.00  0.00    +0.000 OA
BRANCH  25  26
ATOM     26  C   UNL     1      -3.572  -2.062   0.000  0.00  0.00    +0.000 C 
BRANCH  26  27
ATOM     27  C   UNL     1      -2.858  -1.650   0.000  0.00  0.00    +0.000 C 
BRANCH  27  28
ATOM     28  O   UNL     1      -2.143  -2.062   0.000  0.00  0.00    +0.000 OA
BRANCH  28  29
ATOM     29  C   UNL     1      -1.429  -1.650   0.000  0.00  0.00    +0.000 C 
BRANCH  29  30
ATOM     30  C   UNL     1      -0.714  -2.062   0.000  0.00  0.00    +0.000 C 
BRANCH  30  31
ATOM     31  O   UNL     1       0.000  -1.650   0.000  0.00  0.00    +0.000 OA
BRANCH  31  32
ATOM     32  C   UNL     1       0.714  -2.062   0.000  0.00  0.00    +0.000 C 
BRANCH  32  33
ATOM     33  C   UNL     1       1.429  -1.650   0.000  0.00  0.00    +0.000 C 
BRANCH  33  34
ATOM     34  O   UNL     1       2.143  -2.062   0.000  0.00  0.00    +0.000 OA
BRANCH  34  35
ATOM     35  C   UNL     1       2.858  -1.650   0.000  0.00  0.00    +0.000 C 
BRANCH  35  36
ATOM     36  C   UNL     1       3.572  -2.062   0.000  0.00  0.00    +0.000 C 
BRANCH  36  37
ATOM     37  O   UNL     1       4.287  -1.650   0.000  0.00  0.00    +0.000 OA
BRANCH  37  38
ATOM     38  C   UNL     1       5.001  -2.062   0.000  0.00  0.00    +0.000 C 
BRANCH  38  39
ATOM     39  C   UNL     1       5.716  -1.650   0.000  0.00  0.00    +0.000 C 
ATOM     40  O   UNL     1       6.430  -2.062   0.000  0.00  0.00    +0.000 OA
ENDBRANCH  38  39
ENDBRANCH  37  38
ENDBRANCH  36  37
ENDBRANCH  35  36
ENDBRANCH  34  35
ENDBRANCH  33  34
ENDBRANCH  32  33
ENDBRANCH  31  32
ENDBRANCH  30  31
ENDBRANCH  29  30
ENDBRANCH  28  29
ENDBRANCH  27  28
ENDBRANCH  26  27
ENDBRANCH  25  26
ENDBRANCH  24  25
ENDBRANCH  23  24
ENDBRANCH  22  23
ENDBRANCH   1  22
TORSDOF 37
