REMARK  Name = 
REMARK  9 active torsions:
REMARK  status: ('A' for Active; 'I' for Inactive)
REMARK    1  A    between atoms: C_4  and  C_7
REMARK    2  A    between atoms: C_9  and  C_38
REMARK    3  A    between atoms: C_10  and  S_13
REMARK    4  A    between atoms: S_13  and  C_16
REMARK    5  A    between atoms: C_18  and  C_30
REMARK    6  A    between atoms: C_21  and  C_23
REMARK    7  A    between atoms: C_23  and  C_26
REMARK    8  A    between atoms: N_32  and  C_33
REMARK    9  A    between atoms: C_33  and  C_36
REMARK                            x       y       z     vdW  Elec       q    Type
REMARK                         _______ _______ _______ _____ _____    ______ ____
ROOT
ATOM      1  C   UNL     1       0.240   4.246   0.000  0.00  0.00    +0.000 C 
ATOM      2  C   UNL     1      -0.043   5.021   0.000  0.00  0.00    +0.000 C 
ATOM      3  C   UNL     1       0.608   5.529   0.000  0.00  0.00    +0.000 C 
ATOM      4  N   UNL     1       1.292   5.068   0.000  0.00  0.00    +0.000 N 
ATOM      5  C   UNL     1       1.064   4.275   0.000  0.00  0.00    +0.000 C 
ATOM      6  C   UNL     1       2.067   5.350   0.000  0.00  0.00    +0.000 C 
ATOM      7  O   UNL     1       2.210   6.162   0.000  0.00  0.00    +0.000 OA
ENDROOT
BRANCH   6   8
ATOM      8  C   UNL     1       2.699   4.820   0.000  0.00  0.00    +0.000 C 
ATOM      9  C   UNL     1       3.111   4.105   0.000  0.00  0.00    +0.000 C 
ATOM     10  C   UNL     1       2.286   4.105   0.000  0.00  0.00    +0.000 C 
BRANCH   8  11
ATOM     11  C   UNL     1       3.331   5.350   0.000  0.00  0.00    +0.000 C 
ATOM     12  F   UNL     1       3.963   5.880   0.000  0.00  0.00    +0.000 F 
ATOM     13  F   UNL     1       3.861   4.718   0.000  0.00  0.00    +0.000 F 
ATOM     14  F   UNL     1       2.800   5.982   0.000  0.00  0.00    +0.000 F 
ENDBRANCH   8  11
ENDBRANCH   6   8
BRANCH   1  15
ATOM     15  S   UNL     1      -0.222   3.562   0.000  0.00  0.00    +0.000 S 
ATOM     16  O   UNL     1       0.462   3.101   0.000  0.00  0.00    +0.000 OA
ATOM     17  O   UNL     1      -0.906   4.023   0.000  0.00  0.00    +0.000 OA
BRANCH  15  21
ATOM     18  C   UNL     1      -1.606   1.510   0.000  0.00  0.00    +0.000 A 
ATOM     19  C   UNL     1      -1.967   2.252   0.000  0.00  0.00    +0.000 A 
ATOM     20  C   UNL     1      -1.506   2.936   0.000  0.00  0.00    +0.000 A 
ATOM     21  C   UNL     1      -0.683   2.878   0.000  0.00  0.00    +0.000 A 
ATOM     22  C   UNL     1      -0.321   2.137   0.000  0.00  0.00    +0.000 A 
ATOM     23  C   UNL     1      -0.783   1.453   0.000  0.00  0.00    +0.000 A 
BRANCH  18  27
ATOM     24  C   UNL     1      -3.894  -0.278   0.000  0.00  0.00    +0.000 C 
ATOM     25  N   UNL     1      -3.119   0.004   0.000  0.00  0.00    +0.000 N 
ATOM     26  C   UNL     1      -2.892   0.797   0.000  0.00  0.00    +0.000 A 
ATOM     27  C   UNL     1      -2.067   0.826   0.000  0.00  0.00    +0.000 A 
ATOM     28  C   UNL     1      -1.785   0.051   0.000  0.00  0.00    +0.000 A 
ATOM     29  N   UNL     1      -2.435  -0.457   0.000  0.00  0.00    +0.000 NA
ENDBRANCH  18  27
BRANCH  20  30
ATOM     30  C   UNL     1      -1.868   3.677   0.000  0.00  0.00    +0.000 C 
ATOM     31  F   UNL     1      -2.229   4.419   0.000  0.00  0.00    +0.000 F 
ATOM     32  F   UNL     1      -1.274   4.250   0.000  0.00  0.00    +0.000 F 
ATOM     33  F   UNL     1      -2.609   3.316   0.000  0.00  0.00    +0.000 F 
ENDBRANCH  20  30
ENDBRANCH  15  21
ENDBRANCH   1  15
BRANCH   3  34
ATOM     34  C   UNL     1       0.579   6.354   0.000  0.00  0.00    +0.000 C 
ATOM     35  O   UNL     1       1.278   6.791   0.000  0.00  0.00    +0.000 OA
ATOM     36  N   UNL     1      -0.150   6.741   0.000  0.00  0.00    +0.000 NA
BRANCH  36  37
ATOM     37  C   UNL     1      -0.849   6.304   0.000  0.00  0.00    +0.000 C 
ATOM     38  C   UNL     1      -1.357   5.654   0.000  0.00  0.00    +0.000 C 
ATOM     39  C   UNL     1      -0.540   5.539   0.000  0.00  0.00    +0.000 C 
BRANCH  37  40
ATOM     40  C   UNL     1      -1.401   6.917   0.000  0.00  0.00    +0.000 C 
ATOM     41  N   UNL     1      -1.953   7.530   0.000  0.00  0.00    +0.000 NA
ENDBRANCH  37  40
ENDBRANCH  36  37
ENDBRANCH   3  34
TORSDOF 9
