REMARK  Name = 
REMARK  1 active torsions:
REMARK  status: ('A' for Active; 'I' for Inactive)
REMARK    1  A    between atoms: C_2  and  C_7
REMARK                            x       y       z     vdW  Elec       q    Type
REMARK                         _______ _______ _______ _____ _____    ______ ____
ROOT
ATOM      1  C   UNL     1      -0.920  -0.302   0.000  0.00  0.00    +0.000 C 
ATOM      2  C   UNL     1      -0.336   0.282   0.000  0.00  0.00    +0.000 C 
ATOM      3  C   UNL     1       0.247  -0.302   0.000  0.00  0.00    +0.000 C 
ATOM      4  C   UNL     1      -0.336  -0.885   0.000  0.00  0.00    +0.000 C 
ATOM      5  F   UNL     1      -0.336  -1.710   0.000  0.00  0.00    +0.000 F 
ATOM      6  N   UNL     1      -0.767   0.985   0.000  0.00  0.00    +0.000 NA
ENDROOT
BRANCH   2   7
ATOM      7  C   UNL     1       0.095   0.985   0.000  0.00  0.00    +0.000 C 
ATOM      8  O   UNL     1      -0.299   1.710   0.000  0.00  0.00    +0.000 OA
ATOM      9  O   UNL     1       0.920   0.964   0.000  0.00  0.00    +0.000 OA
ENDBRANCH   2   7
TORSDOF 1
