REMARK  Name = 
REMARK  0 active torsions:
REMARK  status: ('A' for Active; 'I' for Inactive)
REMARK                            x       y       z     vdW  Elec       q    Type
REMARK                         _______ _______ _______ _____ _____    ______ ____
ROOT
ATOM      1  N   UNL     1      -0.355  -0.825   0.000  0.00  0.00    +0.000 N 
ATOM      2  C   UNL     1       0.355  -0.412   0.000  0.00  0.00    +0.000 A 
ATOM      3  N   UNL     1       0.355   0.412   0.000  0.00  0.00    +0.000 NA
ATOM      4  C   UNL     1      -0.371   0.825   0.000  0.00  0.00    +0.000 A 
ATOM      5  C   UNL     1      -1.081   0.412   0.000  0.00  0.00    +0.000 A 
ATOM      6  C   UNL     1      -1.081  -0.429   0.000  0.00  0.00    +0.000 A 
ATOM      7  O   UNL     1       1.081  -0.808   0.000  0.00  0.00    +0.000 OA
ATOM      8  N   UNL     1      -0.371   1.650   0.000  0.00  0.00    +0.000 NA
ATOM      9  C   UNL     1      -0.338  -1.650   0.000  0.00  0.00    +0.000 C 
ENDROOT
TORSDOF 0
