REMARK  Name = 
REMARK  5 active torsions:
REMARK  status: ('A' for Active; 'I' for Inactive)
REMARK    1  A    between atoms: C_4  and  C_6
REMARK    2  A    between atoms: C_10  and  C_12
REMARK    3  A    between atoms: N_17  and  C_18
REMARK    4  A    between atoms: N_21  and  C_22
REMARK    5  A    between atoms: C_22  and  C_23
REMARK                            x       y       z     vdW  Elec       q    Type
REMARK                         _______ _______ _______ _____ _____    ______ ____
ROOT
ATOM      1  C   UNL     1      -2.751  -2.537   0.000  0.00  0.00    +0.000 C 
ATOM      2  C   UNL     1      -2.084  -3.022   0.000  0.00  0.00    +0.000 C 
ATOM      3  C   UNL     1      -2.339  -3.806   0.000  0.00  0.00    +0.000 C 
ATOM      4  C   UNL     1      -3.164  -3.806   0.000  0.00  0.00    +0.000 C 
ATOM      5  O   UNL     1      -3.649  -4.474   0.000  0.00  0.00    +0.000 OA
ATOM      6  N   UNL     1      -3.419  -3.022   0.000  0.00  0.00    +0.000 N 
ENDROOT
BRANCH   1  11
ATOM      7  C   UNL     1      -1.322   0.763   0.000  0.00  0.00    +0.000 A 
ATOM      8  C   UNL     1      -1.322  -0.062   0.000  0.00  0.00    +0.000 A 
ATOM      9  C   UNL     1      -2.037  -0.474   0.000  0.00  0.00    +0.000 A 
ATOM     10  N   UNL     1      -2.037  -1.299   0.000  0.00  0.00    +0.000 NA
ATOM     11  C   UNL     1      -2.751  -1.712   0.000  0.00  0.00    +0.000 C 
ATOM     12  O   UNL     1      -3.466  -1.299   0.000  0.00  0.00    +0.000 OA
ATOM     13  N   UNL     1      -2.751  -0.062   0.000  0.00  0.00    +0.000 NA
ATOM     14  C   UNL     1      -2.751   0.763   0.000  0.00  0.00    +0.000 A 
ATOM     15  C   UNL     1      -3.466   1.176   0.000  0.00  0.00    +0.000 C 
ATOM     16  C   UNL     1      -2.037   1.176   0.000  0.00  0.00    +0.000 A 
BRANCH   7  20
ATOM     17  C   UNL     1       0.107   2.413   0.000  0.00  0.00    +0.000 C 
ATOM     18  N   UNL     1      -0.608   2.001   0.000  0.00  0.00    +0.000 N 
ATOM     19  C   UNL     1      -1.322   2.413   0.000  0.00  0.00    +0.000 C 
ATOM     20  C   UNL     1      -0.608   1.176   0.000  0.00  0.00    +0.000 C 
ATOM     21  O   UNL     1       0.107   0.763   0.000  0.00  0.00    +0.000 OA
ENDBRANCH   7  20
ENDBRANCH   1  11
BRANCH   6  22
ATOM     22  C   UNL     1      -4.203  -2.767   0.000  0.00  0.00    +0.000 C 
ATOM     23  C   UNL     1      -4.816  -3.319   0.000  0.00  0.00    +0.000 C 
ATOM     24  C   UNL     1      -5.601  -3.064   0.000  0.00  0.00    +0.000 C 
ATOM     25  N   UNL     1      -5.772  -2.257   0.000  0.00  0.00    +0.000 NA
ATOM     26  C   UNL     1      -5.159  -1.705   0.000  0.00  0.00    +0.000 C 
ATOM     27  C   UNL     1      -4.375  -1.960   0.000  0.00  0.00    +0.000 C 
BRANCH  25  28
ATOM     28  C   UNL     1      -6.557  -2.002   0.000  0.00  0.00    +0.000 C 
BRANCH  28  29
ATOM     29  C   UNL     1      -7.170  -2.554   0.000  0.00  0.00    +0.000 A 
ATOM     30  C   UNL     1      -6.999  -3.361   0.000  0.00  0.00    +0.000 A 
ATOM     31  C   UNL     1      -7.612  -3.913   0.000  0.00  0.00    +0.000 A 
ATOM     32  C   UNL     1      -8.396  -3.658   0.000  0.00  0.00    +0.000 A 
ATOM     33 CL   UNL     1      -9.009  -4.210   0.000  0.00  0.00    +0.000 Cl
ATOM     34  C   UNL     1      -8.568  -2.851   0.000  0.00  0.00    +0.000 A 
ATOM     35  C   UNL     1      -9.352  -2.596   0.000  0.00  0.00    +0.000 C 
ATOM     36  C   UNL     1      -7.955  -2.299   0.000  0.00  0.00    +0.000 A 
ENDBRANCH  28  29
ENDBRANCH  25  28
ENDBRANCH   6  22
TORSDOF 5
