REMARK  Name = 
REMARK  3 active torsions:
REMARK  status: ('A' for Active; 'I' for Inactive)
REMARK    1  A    between atoms: C_4  and  C_17
REMARK    2  A    between atoms: C_17  and  C_18
REMARK    3  A    between atoms: C_18  and  C_19
REMARK                            x       y       z     vdW  Elec       q    Type
REMARK                         _______ _______ _______ _____ _____    ______ ____
ROOT
ATOM      1  C   UNL     1       0.715   1.238   0.000  0.00  0.00    +0.000 A 
ATOM      2  C   UNL     1       0.715   0.412   0.000  0.00  0.00    +0.000 A 
ATOM      3  C   UNL     1       0.000   1.650   0.000  0.00  0.00    +0.000 C 
ATOM      4  C   UNL     1       0.000   0.000   0.000  0.00  0.00    +0.000 C 
ATOM      5  C   UNL     1      -0.714   1.238   0.000  0.00  0.00    +0.000 A 
ATOM      6  C   UNL     1      -0.714   0.412   0.000  0.00  0.00    +0.000 A 
ATOM      7  C   UNL     1       1.429   1.650   0.000  0.00  0.00    +0.000 A 
ATOM      8  C   UNL     1       2.143   1.238   0.000  0.00  0.00    +0.000 A 
ATOM      9  C   UNL     1       1.429   0.000   0.000  0.00  0.00    +0.000 A 
ATOM     10  C   UNL     1       2.143   0.412   0.000  0.00  0.00    +0.000 A 
ATOM     11  C   UNL     1      -1.429   1.650   0.000  0.00  0.00    +0.000 A 
ATOM     12  C   UNL     1      -2.143   1.238   0.000  0.00  0.00    +0.000 A 
ATOM     13  C   UNL     1      -1.429   0.000   0.000  0.00  0.00    +0.000 A 
ATOM     14  C   UNL     1      -2.143   0.412   0.000  0.00  0.00    +0.000 A 
ATOM     15  O   UNL     1       0.308   1.113   0.000  0.00  0.00    +0.000 OA
ATOM     16  O   UNL     1       0.308   0.587   0.000  0.00  0.00    +0.000 OA
ATOM     17  C   UNL     1       0.000   2.475   0.000  0.00  0.00    +0.000 C 
ENDROOT
BRANCH   4  18
ATOM     18  C   UNL     1       0.000  -0.825   0.000  0.00  0.00    +0.000 C 
BRANCH  18  19
ATOM     19  C   UNL     1      -0.715  -1.238   0.000  0.00  0.00    +0.000 C 
BRANCH  19  20
ATOM     20  C   UNL     1      -0.715  -2.062   0.000  0.00  0.00    +0.000 C 
ATOM     21  O   UNL     1      -1.429  -2.475   0.000  0.00  0.00    +0.000 OA
ATOM     22  O   UNL     1       0.000  -2.475   0.000  0.00  0.00    +0.000 OA
ENDBRANCH  19  20
ENDBRANCH  18  19
ENDBRANCH   4  18
TORSDOF 3
