REMARK  Name = 
REMARK  6 active torsions:
REMARK  status: ('A' for Active; 'I' for Inactive)
REMARK    1  A    between atoms: C_1  and  C_7
REMARK    2  A    between atoms: C_7  and  N_8
REMARK    3  A    between atoms: N_8  and  C_9
REMARK    4  A    between atoms: N_8  and  C_10
REMARK    5  A    between atoms: C_10  and  C_11
REMARK    6  A    between atoms: C_11  and  N_12
REMARK                            x       y       z     vdW  Elec       q    Type
REMARK                         _______ _______ _______ _____ _____    ______ ____
ROOT
ATOM      1  N   UNL     1      -2.522   0.009   0.000  0.00  0.00    +0.000 N 
ENDROOT
BRANCH   1   2
ATOM      2  C   UNL     1      -2.522   0.834   0.000  0.00  0.00    +0.000 A 
ATOM      3  C   UNL     1      -1.808   1.246   0.000  0.00  0.00    +0.000 A 
ATOM      4  C   UNL     1      -1.808   2.071   0.000  0.00  0.00    +0.000 A 
ATOM      5  C   UNL     1      -2.522   2.484   0.000  0.00  0.00    +0.000 A 
ATOM      6  C   UNL     1      -3.237   2.072   0.000  0.00  0.00    +0.000 A 
ATOM      7  C   UNL     1      -3.237   1.246   0.000  0.00  0.00    +0.000 A 
ENDBRANCH   1   2
BRANCH   1   8
ATOM      8  C   UNL     1      -3.237  -0.404   0.000  0.00  0.00    +0.000 C 
BRANCH   8   9
ATOM      9  C   UNL     1      -3.237  -1.228   0.000  0.00  0.00    +0.000 A 
ATOM     10  C   UNL     1      -3.951  -1.641   0.000  0.00  0.00    +0.000 A 
ATOM     11  C   UNL     1      -3.951  -2.466   0.000  0.00  0.00    +0.000 A 
ATOM     12  C   UNL     1      -3.237  -2.879   0.000  0.00  0.00    +0.000 A 
ATOM     13  C   UNL     1      -2.522  -2.466   0.000  0.00  0.00    +0.000 A 
ATOM     14  C   UNL     1      -2.522  -1.641   0.000  0.00  0.00    +0.000 A 
ENDBRANCH   8   9
ENDBRANCH   1   8
BRANCH   1  15
ATOM     15  C   UNL     1      -1.808  -0.403   0.000  0.00  0.00    +0.000 C 
BRANCH  15  16
ATOM     16  C   UNL     1      -1.093   0.009   0.000  0.00  0.00    +0.000 C 
BRANCH  16  17
ATOM     17  N   UNL     1      -0.379  -0.403   0.000  0.00  0.00    +0.000 NA
ATOM     18  C   UNL     1      -0.292  -1.224   0.000  0.00  0.00    +0.000 C 
ATOM     19  C   UNL     1       0.514  -1.395   0.000  0.00  0.00    +0.000 C 
ATOM     20  C   UNL     1       0.927  -0.681   0.000  0.00  0.00    +0.000 C 
ATOM     21  C   UNL     1       0.375  -0.068   0.000  0.00  0.00    +0.000 C 
ENDBRANCH  16  17
ENDBRANCH  15  16
ENDBRANCH   1  15
TORSDOF 6
