REMARK  Name = 
REMARK  0 active torsions:
REMARK  status: ('A' for Active; 'I' for Inactive)
REMARK                            x       y       z     vdW  Elec       q    Type
REMARK                         _______ _______ _______ _____ _____    ______ ____
ROOT
ATOM      1  C   UNL     1      -2.318   0.263   0.000  0.00  0.00    +0.000 A 
ATOM      2  C   UNL     1      -2.158  -0.543   0.000  0.00  0.00    +0.000 A 
ATOM      3  C   UNL     1      -1.381  -0.807   0.000  0.00  0.00    +0.000 A 
ATOM      4  C   UNL     1      -1.704   0.804   0.000  0.00  0.00    +0.000 A 
ATOM      5  C   UNL     1      -0.767  -0.265   0.000  0.00  0.00    +0.000 A 
ATOM      6  C   UNL     1      -0.927   0.544   0.000  0.00  0.00    +0.000 A 
ATOM      7  C   UNL     1      -0.393   1.180   0.000  0.00  0.00    +0.000 C 
ATOM      8  N   UNL     1      -0.028  -0.645   0.000  0.00  0.00    +0.000 N 
ATOM      9  C   UNL     1       0.434   1.163   0.000  0.00  0.00    +0.000 C 
ATOM     10  C   UNL     1       0.932   0.501   0.000  0.00  0.00    +0.000 A 
ATOM     11  C   UNL     1       0.729  -0.302   0.000  0.00  0.00    +0.000 A 
ATOM     12  C   UNL     1       1.323  -0.876   0.000  0.00  0.00    +0.000 A 
ATOM     13  C   UNL     1       2.118  -0.649   0.000  0.00  0.00    +0.000 A 
ATOM     14  C   UNL     1       2.318   0.157   0.000  0.00  0.00    +0.000 A 
ATOM     15  C   UNL     1       1.723   0.728   0.000  0.00  0.00    +0.000 A 
ATOM     16  C   UNL     1      -0.048  -1.465   0.000  0.00  0.00    +0.000 C 
ATOM     17  N   UNL     1      -0.768  -1.857   0.000  0.00  0.00    +0.000 NA
ATOM     18  O   UNL     1       0.651  -1.892   0.000  0.00  0.00    +0.000 OA
ATOM     19  O   UNL     1       0.808   1.892   0.000  0.00  0.00    +0.000 OA
ENDROOT
TORSDOF 0
