REMARK  Name = 
REMARK  11 active torsions:
REMARK  status: ('A' for Active; 'I' for Inactive)
REMARK    1  A    between atoms: C_5  and  C_6
REMARK    2  A    between atoms: C_6  and  S_7
REMARK    3  A    between atoms: S_7  and  C_8
REMARK    4  A    between atoms: C_8  and  C_9
REMARK    5  A    between atoms: N_10  and  C_11
REMARK    6  A    between atoms: C_11  and  C_14
REMARK    7  A    between atoms: C_15  and  C_16
REMARK    8  A    between atoms: C_16  and  O_17
REMARK    9  A    between atoms: O_17  and  C_18
REMARK   10  A    between atoms: C_22  and  C_24
REMARK   11  A    between atoms: C_24  and  N_25
REMARK                            x       y       z     vdW  Elec       q    Type
REMARK                         _______ _______ _______ _____ _____    ______ ____
ROOT
ATOM      1  C   UNL     1      -0.451   0.796   0.000  0.00  0.00    +0.000 C 
ATOM      2  C   UNL     1       0.375   0.796   0.000  0.00  0.00    +0.000 C 
ENDROOT
BRANCH   1   3
ATOM      3  C   UNL     1      -1.164   0.379   0.000  0.00  0.00    +0.000 C 
BRANCH   3   5
ATOM      4  C   UNL     1      -2.591   0.375   0.000  0.00  0.00    +0.000 C 
ATOM      5  N   UNL     1      -1.878   0.788   0.000  0.00  0.00    +0.000 NA
ATOM      6  O   UNL     1      -2.595  -0.451   0.000  0.00  0.00    +0.000 OA
BRANCH   4   7
ATOM      7  C   UNL     1      -3.304   0.784   0.000  0.00  0.00    +0.000 C 
BRANCH   7   8
ATOM      8  S   UNL     1      -4.018   0.371   0.000  0.00  0.00    +0.000 S 
ATOM      9  O   UNL     1      -4.022  -0.455   0.000  0.00  0.00    +0.000 OA
BRANCH   8  10
ATOM     10  C   UNL     1      -4.731   0.780   0.000  0.00  0.00    +0.000 C 
BRANCH  10  15
ATOM     11  O   UNL     1      -6.112   0.851   0.000  0.00  0.00    +0.000 OA
ATOM     12  C   UNL     1      -6.786   0.363   0.000  0.00  0.00    +0.000 A 
ATOM     13  C   UNL     1      -6.529  -0.426   0.000  0.00  0.00    +0.000 A 
ATOM     14  C   UNL     1      -5.699  -0.426   0.000  0.00  0.00    +0.000 A 
ATOM     15  C   UNL     1      -5.442   0.363   0.000  0.00  0.00    +0.000 A 
ENDBRANCH  10  15
ENDBRANCH   8  10
ENDBRANCH   7   8
ENDBRANCH   4   7
ENDBRANCH   3   5
ENDBRANCH   1   3
BRANCH   2  16
ATOM     16  C   UNL     1       1.088   0.383   0.000  0.00  0.00    +0.000 C 
BRANCH  16  17
ATOM     17  O   UNL     1       1.802   0.801   0.000  0.00  0.00    +0.000 OA
BRANCH  17  18
ATOM     18  C   UNL     1       2.515   0.388   0.000  0.00  0.00    +0.000 A 
ATOM     19  N   UNL     1       2.511  -0.438   0.000  0.00  0.00    +0.000 NA
ATOM     20  C   UNL     1       3.224  -0.851   0.000  0.00  0.00    +0.000 A 
ATOM     21  C   UNL     1       3.939  -0.439   0.000  0.00  0.00    +0.000 A 
ATOM     22  C   UNL     1       3.938   0.389   0.000  0.00  0.00    +0.000 A 
ATOM     23  C   UNL     1       3.224   0.798   0.000  0.00  0.00    +0.000 A 
BRANCH  22  24
ATOM     24  C   UNL     1       4.647   0.809   0.000  0.00  0.00    +0.000 C 
BRANCH  24  25
ATOM     25  N   UNL     1       5.360   0.396   0.000  0.00  0.00    +0.000 NA
ATOM     26  C   UNL     1       5.357  -0.429   0.000  0.00  0.00    +0.000 C 
ATOM     27  C   UNL     1       6.066  -0.842   0.000  0.00  0.00    +0.000 C 
ATOM     28  C   UNL     1       6.783  -0.434   0.000  0.00  0.00    +0.000 C 
ATOM     29  C   UNL     1       6.786   0.391   0.000  0.00  0.00    +0.000 C 
ATOM     30  C   UNL     1       6.072   0.808   0.000  0.00  0.00    +0.000 C 
ENDBRANCH  24  25
ENDBRANCH  22  24
ENDBRANCH  17  18
ENDBRANCH  16  17
ENDBRANCH   2  16
TORSDOF 11
