REMARK  Name = 
REMARK  7 active torsions:
REMARK  status: ('A' for Active; 'I' for Inactive)
REMARK    1  A    between atoms: C_1  and  C_7
REMARK    2  A    between atoms: C_2  and  N_4
REMARK    3  A    between atoms: C_6  and  C_11
REMARK    4  A    between atoms: C_7  and  O_12
REMARK    5  A    between atoms: C_11  and  N_13
REMARK    6  A    between atoms: N_13  and  C_15
REMARK    7  A    between atoms: C_15  and  C_18
REMARK                            x       y       z     vdW  Elec       q    Type
REMARK                         _______ _______ _______ _____ _____    ______ ____
ROOT
ATOM      1  C   UNL     1      -1.111   1.009   0.000  0.00  0.00    +0.000 A 
ATOM      2  C   UNL     1      -1.368   0.223   0.000  0.00  0.00    +0.000 A 
ATOM      3  S   UNL     1      -1.776   1.495   0.000  0.00  0.00    +0.000 S 
ATOM      4  C   UNL     1      -2.193   0.223   0.000  0.00  0.00    +0.000 A 
ATOM      5  C   UNL     1      -2.446   1.009   0.000  0.00  0.00    +0.000 A 
ATOM      6  C   UNL     1      -2.912  -0.184   0.000  0.00  0.00    +0.000 C 
ENDROOT
BRANCH   2   7
ATOM      7  N   UNL     1      -0.655  -0.184   0.000  0.00  0.00    +0.000 NA
ATOM      8  C   UNL     1      -0.660  -1.014   0.000  0.00  0.00    +0.000 C 
ATOM      9  O   UNL     1      -1.378  -1.422   0.000  0.00  0.00    +0.000 OA
BRANCH   8  10
ATOM     10  C   UNL     1       0.053  -1.427   0.000  0.00  0.00    +0.000 C 
ATOM     11  C   UNL     1       0.049  -2.252   0.000  0.00  0.00    +0.000 C 
BRANCH  10  12
ATOM     12  N   UNL     1       0.767  -1.019   0.000  0.00  0.00    +0.000 NA
BRANCH  12  13
ATOM     13  C   UNL     1       1.480  -1.431   0.000  0.00  0.00    +0.000 C 
BRANCH  13  14
ATOM     14  C   UNL     1       2.198  -1.024   0.000  0.00  0.00    +0.000 C 
ATOM     15  C   UNL     1       2.912  -1.436   0.000  0.00  0.00    +0.000 C 
ENDBRANCH  13  14
ENDBRANCH  12  13
ENDBRANCH  10  12
ENDBRANCH   8  10
ENDBRANCH   2   7
BRANCH   1  16
ATOM     16  C   UNL     1      -0.403   1.431   0.000  0.00  0.00    +0.000 C 
ATOM     17  O   UNL     1      -0.407   2.252   0.000  0.00  0.00    +0.000 OA
BRANCH  16  18
ATOM     18  O   UNL     1       0.320   1.024   0.000  0.00  0.00    +0.000 OA
ATOM     19  C   UNL     1       1.029   1.446   0.000  0.00  0.00    +0.000 C 
ENDBRANCH  16  18
ENDBRANCH   1  16
TORSDOF 7
