REMARK  Name = 
REMARK  3 active torsions:
REMARK  status: ('A' for Active; 'I' for Inactive)
REMARK    1  A    between atoms: C_9  and  O_11
REMARK    2  A    between atoms: O_11  and  C_21
REMARK    3  A    between atoms: N_14  and  C_15
REMARK                            x       y       z     vdW  Elec       q    Type
REMARK                         _______ _______ _______ _____ _____    ______ ____
ROOT
ATOM      1  N   UNL     1      -2.484   1.251   0.000  0.00  0.00    +0.000 NA
ATOM      2  C   UNL     1      -2.484   0.426   0.000  0.00  0.00    +0.000 A 
ATOM      3  N   UNL     1      -1.772   0.018   0.000  0.00  0.00    +0.000 NA
ATOM      4  C   UNL     1      -1.772   1.668   0.000  0.00  0.00    +0.000 A 
ATOM      5  C   UNL     1      -1.060   1.251   0.000  0.00  0.00    +0.000 A 
ATOM      6  C   UNL     1      -1.064   0.426   0.000  0.00  0.00    +0.000 A 
ATOM      7  N   UNL     1      -0.261  -0.050   0.000  0.00  0.00    +0.000 N 
ATOM      8  C   UNL     1       0.362   0.420   0.000  0.00  0.00    +0.000 A 
ATOM      9  C   UNL     1       0.365   1.245   0.000  0.00  0.00    +0.000 A 
ATOM     10  C   UNL     1      -0.348   1.663   0.000  0.00  0.00    +0.000 A 
ATOM     11  O   UNL     1       1.074   0.003   0.000  0.00  0.00    +0.000 OA
ATOM     12  C   UNL     1      -0.297  -0.812   0.000  0.00  0.00    +0.000 C 
ATOM     13  N   UNL     1      -3.198   0.013   0.000  0.00  0.00    +0.000 NA
ENDROOT
BRANCH  13  14
ATOM     14  C   UNL     1      -3.197  -0.813   0.000  0.00  0.00    +0.000 C 
ATOM     15  C   UNL     1      -3.918  -1.223   0.000  0.00  0.00    +0.000 C 
ATOM     16  C   UNL     1      -3.919  -2.044   0.000  0.00  0.00    +0.000 C 
ATOM     17  O   UNL     1      -3.205  -2.460   0.000  0.00  0.00    +0.000 OA
ATOM     18  C   UNL     1      -2.490  -2.047   0.000  0.00  0.00    +0.000 C 
ATOM     19  C   UNL     1      -2.487  -1.220   0.000  0.00  0.00    +0.000 C 
ENDBRANCH  13  14
BRANCH   9  20
ATOM     20  O   UNL     1       1.083   1.649   0.000  0.00  0.00    +0.000 OA
BRANCH  20  21
ATOM     21  C   UNL     1       1.792   1.228   0.000  0.00  0.00    +0.000 A 
ATOM     22  C   UNL     1       1.779   0.404   0.000  0.00  0.00    +0.000 A 
ATOM     23  C   UNL     1       2.488  -0.016   0.000  0.00  0.00    +0.000 A 
ATOM     24  C   UNL     1       3.208   0.389   0.000  0.00  0.00    +0.000 A 
ATOM     25  C   UNL     1       3.215   1.218   0.000  0.00  0.00    +0.000 A 
ATOM     26  C   UNL     1       2.505   1.635   0.000  0.00  0.00    +0.000 A 
ATOM     27  F   UNL     1       2.510   2.460   0.000  0.00  0.00    +0.000 F 
ATOM     28  F   UNL     1       3.919  -0.030   0.000  0.00  0.00    +0.000 F 
ENDBRANCH  20  21
ENDBRANCH   9  20
TORSDOF 3
