REMARK  Name = 
REMARK  31 active torsions:
REMARK  status: ('A' for Active; 'I' for Inactive)
REMARK    1  A    between atoms: S_1  and  C_48
REMARK    2  A    between atoms: S_1  and  C_58
REMARK    3  A    between atoms: S_2  and  C_61
REMARK    4  A    between atoms: S_2  and  C_63
REMARK    5  A    between atoms: P_3  and  O_7
REMARK    6  A    between atoms: P_4  and  O_9
REMARK    7  A    between atoms: P_4  and  O_13
REMARK    8  A    between atoms: P_5  and  O_13
REMARK    9  A    between atoms: P_5  and  O_16
REMARK   10  A    between atoms: O_7  and  C_31
REMARK   11  A    between atoms: O_9  and  C_35
REMARK   12  A    between atoms: O_16  and  C_42
REMARK   13  A    between atoms: N_24  and  C_33
REMARK   14  A    between atoms: N_29  and  C_46
REMARK   15  A    between atoms: N_29  and  C_51
REMARK   16  A    between atoms: N_30  and  C_60
REMARK   17  A    between atoms: C_34  and  C_35
REMARK   18  A    between atoms: C_41  and  C_42
REMARK   19  A    between atoms: C_41  and  C_43
REMARK   20  A    between atoms: C_43  and  C_46
REMARK   21  A    between atoms: C_47  and  C_48
REMARK   22  A    between atoms: C_47  and  C_49
REMARK   23  A    between atoms: C_48  and  C_52
REMARK   24  A    between atoms: C_49  and  C_50
REMARK   25  A    between atoms: C_50  and  C_53
REMARK   26  A    between atoms: C_51  and  C_54
REMARK   27  A    between atoms: C_52  and  C_55
REMARK   28  A    between atoms: C_54  and  C_57
REMARK   29  A    between atoms: C_58  and  C_62
REMARK   30  A    between atoms: C_59  and  C_63
REMARK   31  A    between atoms: C_60  and  C_61
REMARK                            x       y       z     vdW  Elec       q    Type
REMARK                         _______ _______ _______ _____ _____    ______ ____
ROOT
ATOM      1  C   UNL     1       3.337   0.426   0.000  0.00  0.00    +0.000 C 
ENDROOT
BRANCH   1   2
ATOM      2  C   UNL     1       2.531   0.253   0.000  0.00  0.00    +0.000 C 
ATOM      3  C   UNL     1       2.704  -0.553   0.000  0.00  0.00    +0.000 C 
ATOM      4  C   UNL     1       2.358   1.060   0.000  0.00  0.00    +0.000 C 
BRANCH   2   6
ATOM      5  O   UNL     1       1.171   0.692   0.000  0.00  0.00    +0.000 OA
ATOM      6  C   UNL     1       1.724   0.080   0.000  0.00  0.00    +0.000 C 
BRANCH   6   8
ATOM      7  O   UNL     1       2.023  -1.317   0.000  0.00  0.00    +0.000 OA
ATOM      8  C   UNL     1       1.470  -0.705   0.000  0.00  0.00    +0.000 C 
BRANCH   8   9
ATOM      9  N   UNL     1       0.664  -0.878   0.000  0.00  0.00    +0.000 NA
BRANCH   9  10
ATOM     10  C   UNL     1       0.410  -1.663   0.000  0.00  0.00    +0.000 C 
BRANCH  10  11
ATOM     11  C   UNL     1      -0.397  -1.836   0.000  0.00  0.00    +0.000 C 
BRANCH  11  14
ATOM     12  O   UNL     1      -0.097  -3.233   0.000  0.00  0.00    +0.000 OA
ATOM     13  N   UNL     1      -1.457  -2.794   0.000  0.00  0.00    +0.000 NA
ATOM     14  C   UNL     1      -0.650  -2.621   0.000  0.00  0.00    +0.000 C 
BRANCH  13  15
ATOM     15  C   UNL     1      -1.710  -3.579   0.000  0.00  0.00    +0.000 C 
BRANCH  15  16
ATOM     16  C   UNL     1      -2.517  -3.752   0.000  0.00  0.00    +0.000 C 
BRANCH  16  17
ATOM     17  S   UNL     1      -2.771  -4.537   0.000  0.00  0.00    +0.000 S 
BRANCH  17  19
ATOM     18  O   UNL     1      -4.131  -4.098   0.000  0.00  0.00    +0.000 OA
ATOM     19  C   UNL     1      -3.577  -4.710   0.000  0.00  0.00    +0.000 C 
BRANCH  19  21
ATOM     20  C   UNL     1      -4.638  -5.668   0.000  0.00  0.00    +0.000 C 
ATOM     21  C   UNL     1      -3.831  -5.495   0.000  0.00  0.00    +0.000 C 
BRANCH  20  22
ATOM     22  C   UNL     1      -4.891  -6.453   0.000  0.00  0.00    +0.000 C 
BRANCH  22  23
ATOM     23  C   UNL     1      -5.698  -6.626   0.000  0.00  0.00    +0.000 C 
BRANCH  23  24
ATOM     24  C   UNL     1      -6.251  -6.014   0.000  0.00  0.00    +0.000 C 
BRANCH  24  25
ATOM     25  C   UNL     1      -7.058  -6.186   0.000  0.00  0.00    +0.000 C 
BRANCH  25  26
ATOM     26  C   UNL     1      -7.611  -5.574   0.000  0.00  0.00    +0.000 C 
BRANCH  26  27
ATOM     27  C   UNL     1      -8.418  -5.747   0.000  0.00  0.00    +0.000 C 
ATOM     28  C   UNL     1      -8.971  -5.135   0.000  0.00  0.00    +0.000 C 
ENDBRANCH  26  27
ENDBRANCH  25  26
ENDBRANCH  24  25
ENDBRANCH  23  24
BRANCH  23  29
ATOM     29  S   UNL     1      -5.952  -7.411   0.000  0.00  0.00    +0.000 S 
BRANCH  29  30
ATOM     30  C   UNL     1      -6.758  -7.584   0.000  0.00  0.00    +0.000 C 
BRANCH  30  32
ATOM     31  O   UNL     1      -7.819  -8.542   0.000  0.00  0.00    +0.000 OA
ATOM     32  C   UNL     1      -7.012  -8.369   0.000  0.00  0.00    +0.000 C 
ENDBRANCH  30  32
ENDBRANCH  29  30
ENDBRANCH  23  29
ENDBRANCH  22  23
ENDBRANCH  20  22
ENDBRANCH  19  21
ENDBRANCH  17  19
ENDBRANCH  16  17
ENDBRANCH  15  16
ENDBRANCH  13  15
ENDBRANCH  11  14
ENDBRANCH  10  11
ENDBRANCH   9  10
ENDBRANCH   8   9
ENDBRANCH   6   8
ENDBRANCH   2   6
ENDBRANCH   1   2
BRANCH   1  33
ATOM     33  O   UNL     1       3.591   1.211   0.000  0.00  0.00    +0.000 OA
BRANCH  33  34
ATOM     34  P   UNL     1       4.398   1.384   0.000  0.00  0.00    +0.000 P 
ATOM     35  O   UNL     1       4.571   0.578   0.000  0.00  0.00    +0.000 OA
ATOM     36  O   UNL     1       4.225   2.191   0.000  0.00  0.00    +0.000 OA
BRANCH  34  37
ATOM     37  O   UNL     1       5.204   1.557   0.000  0.00  0.00    +0.000 OA
BRANCH  37  38
ATOM     38  P   UNL     1       5.458   2.342   0.000  0.00  0.00    +0.000 P 
ATOM     39  O   UNL     1       4.673   2.596   0.000  0.00  0.00    +0.000 OA
ATOM     40  O   UNL     1       6.243   2.089   0.000  0.00  0.00    +0.000 OA
BRANCH  38  41
ATOM     41  O   UNL     1       5.712   3.127   0.000  0.00  0.00    +0.000 OA
BRANCH  41  42
ATOM     42  C   UNL     1       6.518   3.300   0.000  0.00  0.00    +0.000 C 
BRANCH  42  48
ATOM     43  O   UNL     1       6.286   4.752   0.000  0.00  0.00    +0.000 OA
ATOM     44  O   UNL     1       8.221   5.653   0.000  0.00  0.00    +0.000 OA
ATOM     45  C   UNL     1       7.556   4.342   0.000  0.00  0.00    +0.000 C 
ATOM     46  C   UNL     1       7.555   5.167   0.000  0.00  0.00    +0.000 C 
ATOM     47  C   UNL     1       6.770   5.420   0.000  0.00  0.00    +0.000 C 
ATOM     48  C   UNL     1       6.772   4.085   0.000  0.00  0.00    +0.000 C 
BRANCH  47  49
ATOM     49  N   UNL     1       6.513   6.205   0.000  0.00  0.00    +0.000 N 
ATOM     50  N   UNL     1       6.513   7.532   0.000  0.00  0.00    +0.000 NA
ATOM     51  N   UNL     1       5.018   6.043   0.000  0.00  0.00    +0.000 NA
ATOM     52  N   UNL     1       4.304   7.281   0.000  0.00  0.00    +0.000 NA
ATOM     53  N   UNL     1       5.018   8.518   0.000  0.00  0.00    +0.000 NA
ATOM     54  C   UNL     1       5.733   6.456   0.000  0.00  0.00    +0.000 A 
ATOM     55  C   UNL     1       6.995   6.868   0.000  0.00  0.00    +0.000 A 
ATOM     56  C   UNL     1       5.733   7.281   0.000  0.00  0.00    +0.000 A 
ATOM     57  C   UNL     1       5.018   7.694   0.000  0.00  0.00    +0.000 A 
ATOM     58  C   UNL     1       4.304   6.456   0.000  0.00  0.00    +0.000 A 
ENDBRANCH  47  49
BRANCH  45  59
ATOM     59  O   UNL     1       8.224   3.858   0.000  0.00  0.00    +0.000 OA
BRANCH  59  60
ATOM     60  P   UNL     1       8.140   3.037   0.000  0.00  0.00    +0.000 P 
ATOM     61  O   UNL     1       8.055   2.216   0.000  0.00  0.00    +0.000 OA
ATOM     62  O   UNL     1       8.960   2.952   0.000  0.00  0.00    +0.000 OA
ATOM     63  O   UNL     1       7.319   3.122   0.000  0.00  0.00    +0.000 OA
ENDBRANCH  59  60
ENDBRANCH  45  59
ENDBRANCH  42  48
ENDBRANCH  41  42
ENDBRANCH  38  41
ENDBRANCH  37  38
ENDBRANCH  34  37
ENDBRANCH  33  34
ENDBRANCH   1  33
TORSDOF 31
