REMARK  Name = 
REMARK  4 active torsions:
REMARK  status: ('A' for Active; 'I' for Inactive)
REMARK    1  A    between atoms: C_10  and  C_11
REMARK    2  A    between atoms: C_12  and  C_13
REMARK    3  A    between atoms: C_14  and  C_15
REMARK    4  A    between atoms: C_16  and  C_17
REMARK                            x       y       z     vdW  Elec       q    Type
REMARK                         _______ _______ _______ _____ _____    ______ ____
ROOT
ATOM      1  C   UNL     1      -2.461  -2.093   0.000  0.00  0.00    +0.000 C 
ATOM      2  C   UNL     1      -2.461  -2.886   0.000  0.00  0.00    +0.000 C 
ATOM      3  C   UNL     1      -1.778  -3.280   0.000  0.00  0.00    +0.000 C 
ATOM      4  C   UNL     1      -1.091  -2.886   0.000  0.00  0.00    +0.000 C 
ATOM      5  C   UNL     1      -1.091  -2.093   0.000  0.00  0.00    +0.000 C 
ATOM      6  C   UNL     1      -1.778  -1.695   0.000  0.00  0.00    +0.000 C 
ATOM      7  C   UNL     1      -1.371  -0.977   0.000  0.00  0.00    +0.000 C 
ATOM      8  C   UNL     1      -2.199  -0.977   0.000  0.00  0.00    +0.000 C 
ATOM      9  C   UNL     1      -0.381  -3.298   0.000  0.00  0.00    +0.000 C 
ATOM     10  C   UNL     1      -0.381  -1.677   0.000  0.00  0.00    +0.000 C 
ENDROOT
BRANCH  10  11
ATOM     11  C   UNL     1      -0.385  -0.850   0.000  0.00  0.00    +0.000 C 
ATOM     12  C   UNL     1       0.328  -0.434   0.000  0.00  0.00    +0.000 C 
ATOM     13  C   UNL     1       1.042  -0.845   0.000  0.00  0.00    +0.000 C 
BRANCH  12  14
ATOM     14  C   UNL     1       0.324   0.394   0.000  0.00  0.00    +0.000 C 
ATOM     15  C   UNL     1       1.038   0.810   0.000  0.00  0.00    +0.000 C 
BRANCH  15  16
ATOM     16  C   UNL     1       1.034   1.638   0.000  0.00  0.00    +0.000 C 
ATOM     17  C   UNL     1       1.747   2.054   0.000  0.00  0.00    +0.000 C 
ATOM     18  C   UNL     1       2.461   1.642   0.000  0.00  0.00    +0.000 C 
BRANCH  17  19
ATOM     19  C   UNL     1       1.743   2.882   0.000  0.00  0.00    +0.000 C 
ATOM     20  C   UNL     1       2.457   3.298   0.000  0.00  0.00    +0.000 C 
ENDBRANCH  17  19
ENDBRANCH  15  16
ENDBRANCH  12  14
ENDBRANCH  10  11
TORSDOF 4
