REMARK  Name = 
REMARK  0 active torsions:
REMARK  status: ('A' for Active; 'I' for Inactive)
REMARK                            x       y       z     vdW  Elec       q    Type
REMARK                         _______ _______ _______ _____ _____    ______ ____
ROOT
ATOM      1  O   UNL     1      -0.243  -0.703   0.000  0.00  0.00    +0.000 OA
ATOM      2  P   UNL     1      -0.243   0.122   0.000  0.00  0.00    +0.000 P 
ATOM      3  O   UNL     1       0.581   0.122   0.000  0.00  0.00    +0.000 OA
ATOM      4  O   UNL     1      -0.243   0.947   0.000  0.00  0.00    +0.000 OA
ATOM      5  O   UNL     1      -1.069   0.122   0.000  0.00  0.00    +0.000 OA
ENDROOT
TORSDOF 0
REMARK  Name = 
REMARK  0 active torsions:
REMARK  status: ('A' for Active; 'I' for Inactive)
REMARK                            x       y       z     vdW  Elec       q    Type
REMARK                         _______ _______ _______ _____ _____    ______ ____
ROOT
ATOM      1 NA   UNL     1      -1.224  -0.947   0.000  0.00  0.00    +0.000 Na
ENDROOT
TORSDOF 0
REMARK  Name = 
REMARK  0 active torsions:
REMARK  status: ('A' for Active; 'I' for Inactive)
REMARK                            x       y       z     vdW  Elec       q    Type
REMARK                         _______ _______ _______ _____ _____    ______ ____
ROOT
ATOM      1 NA   UNL     1       1.224  -0.797   0.000  0.00  0.00    +0.000 Na
ENDROOT
TORSDOF 0
