REMARK  Name = 
REMARK  5 active torsions:
REMARK  status: ('A' for Active; 'I' for Inactive)
REMARK    1  A    between atoms: C_3  and  C_5
REMARK    2  A    between atoms: C_4  and  C_7
REMARK    3  A    between atoms: C_5  and  C_8
REMARK    4  A    between atoms: C_6  and  C_7
REMARK    5  A    between atoms: C_7  and  C_8
REMARK                            x       y       z     vdW  Elec       q    Type
REMARK                         _______ _______ _______ _____ _____    ______ ____
ROOT
ATOM      1  C   UNL     1       0.825   0.000   0.000  0.00  0.00    +0.000 C 
ENDROOT
BRANCH   1   3
ATOM      2  C   UNL     1       2.062  -0.715   0.000  0.00  0.00    +0.000 C 
ATOM      3  C   UNL     1       1.238  -0.715   0.000  0.00  0.00    +0.000 C 
ENDBRANCH   1   3
BRANCH   1   4
ATOM      4  C   UNL     1       1.238   0.715   0.000  0.00  0.00    +0.000 C 
ATOM      5  O   UNL     1       2.062   0.715   0.000  0.00  0.00    +0.000 OA
ENDBRANCH   1   4
BRANCH   1   6
ATOM      6  C   UNL     1       0.000   0.000   0.000  0.00  0.00    +0.000 C 
ATOM      7  O   UNL     1      -0.412  -0.715   0.000  0.00  0.00    +0.000 OA
BRANCH   6   8
ATOM      8  C   UNL     1      -0.412   0.715   0.000  0.00  0.00    +0.000 C 
BRANCH   8  10
ATOM      9  C   UNL     1      -1.650   1.429   0.000  0.00  0.00    +0.000 C 
ATOM     10  C   UNL     1      -1.238   0.715   0.000  0.00  0.00    +0.000 C 
ENDBRANCH   8  10
ENDBRANCH   6   8
ENDBRANCH   1   6
TORSDOF 5
