REMARK  Name = 
REMARK  5 active torsions:
REMARK  status: ('A' for Active; 'I' for Inactive)
REMARK    1  A    between atoms: C_18  and  C_20
REMARK    2  A    between atoms: C_18  and  C_26
REMARK    3  A    between atoms: C_19  and  C_21
REMARK    4  A    between atoms: C_19  and  C_26
REMARK    5  A    between atoms: C_22  and  N_29
REMARK                            x       y       z     vdW  Elec       q    Type
REMARK                         _______ _______ _______ _____ _____    ______ ____
ROOT
ATOM      1  C   UNL     1       3.490   1.281   0.000  0.00  0.00    +0.000 A 
ATOM      2  C   UNL     1       3.490   2.106   0.000  0.00  0.00    +0.000 A 
ATOM      3  C   UNL     1       2.776   0.869   0.000  0.00  0.00    +0.000 A 
ATOM      4  C   UNL     1       2.776   2.519   0.000  0.00  0.00    +0.000 A 
ATOM      5  C   UNL     1       2.062   1.281   0.000  0.00  0.00    +0.000 A 
ATOM      6  C   UNL     1       2.062   2.106   0.000  0.00  0.00    +0.000 A 
ATOM      7  C   UNL     1       0.792   1.694   0.000  0.00  0.00    +0.000 C 
ATOM      8  C   UNL     1       1.277   1.026   0.000  0.00  0.00    +0.000 C 
ATOM      9  N   UNL     1       1.277   2.361   0.000  0.00  0.00    +0.000 N 
ATOM     10  O   UNL     1      -0.033   1.694   0.000  0.00  0.00    +0.000 OA
ENDROOT
BRANCH   9  16
ATOM     11  C   UNL     1       0.512   4.715   0.000  0.00  0.00    +0.000 A 
ATOM     12  C   UNL     1      -0.040   4.102   0.000  0.00  0.00    +0.000 A 
ATOM     13  C   UNL     1       1.319   4.543   0.000  0.00  0.00    +0.000 A 
ATOM     14  C   UNL     1       0.215   3.317   0.000  0.00  0.00    +0.000 A 
ATOM     15  C   UNL     1       1.574   3.759   0.000  0.00  0.00    +0.000 A 
ATOM     16  C   UNL     1       1.022   3.146   0.000  0.00  0.00    +0.000 A 
ENDBRANCH   9  16
BRANCH   8  17
ATOM     17  C   UNL     1       1.363   0.206   0.000  0.00  0.00    +0.000 C 
BRANCH  17  22
ATOM     18  C   UNL     1       2.203  -0.950   0.000  0.00  0.00    +0.000 A 
ATOM     19  C   UNL     1       2.784   0.355   0.000  0.00  0.00    +0.000 A 
ATOM     20  C   UNL     1       2.957  -1.286   0.000  0.00  0.00    +0.000 A 
ATOM     21  C   UNL     1       3.538   0.019   0.000  0.00  0.00    +0.000 A 
ATOM     22  C   UNL     1       2.117  -0.130   0.000  0.00  0.00    +0.000 A 
ATOM     23  N   UNL     1       3.624  -0.801   0.000  0.00  0.00    +0.000 NA
ENDBRANCH  17  22
ENDBRANCH   8  17
BRANCH   8  24
ATOM     24  C   UNL     1       0.470   0.855   0.000  0.00  0.00    +0.000 C 
BRANCH  24  29
ATOM     25  C   UNL     1      -0.592  -0.102   0.000  0.00  0.00    +0.000 A 
ATOM     26  C   UNL     1       0.767  -0.543   0.000  0.00  0.00    +0.000 A 
ATOM     27  C   UNL     1      -0.847  -0.886   0.000  0.00  0.00    +0.000 A 
ATOM     28  C   UNL     1       0.512  -1.328   0.000  0.00  0.00    +0.000 A 
ATOM     29  C   UNL     1       0.215   0.070   0.000  0.00  0.00    +0.000 A 
ATOM     30  N   UNL     1      -0.295  -1.499   0.000  0.00  0.00    +0.000 NA
ENDBRANCH  24  29
ENDBRANCH   8  24
TORSDOF 5
