REMARK  Name = 
REMARK  0 active torsions:
REMARK  status: ('A' for Active; 'I' for Inactive)
REMARK                            x       y       z     vdW  Elec       q    Type
REMARK                         _______ _______ _______ _____ _____    ______ ____
ROOT
ATOM      1  C   UNL     1       4.316  -0.111   0.000  0.00  0.00    +0.000 A 
ATOM      2  C   UNL     1       1.016  -0.111   0.000  0.00  0.00    +0.000 A 
ATOM      3  C   UNL     1       3.491  -0.111   0.000  0.00  0.00    +0.000 A 
ATOM      4  C   UNL     1       1.841  -0.111   0.000  0.00  0.00    +0.000 A 
ATOM      5  C   UNL     1       4.729  -0.825   0.000  0.00  0.00    +0.000 A 
ATOM      6  C   UNL     1       0.604  -0.825   0.000  0.00  0.00    +0.000 A 
ATOM      7  C   UNL     1       3.079  -0.825   0.000  0.00  0.00    +0.000 A 
ATOM      8  C   UNL     1       2.254  -0.825   0.000  0.00  0.00    +0.000 A 
ATOM      9  C   UNL     1       3.491  -1.540   0.000  0.00  0.00    +0.000 A 
ATOM     10  C   UNL     1       1.841  -1.540   0.000  0.00  0.00    +0.000 A 
ATOM     11  C   UNL     1       3.079  -2.254   0.000  0.00  0.00    +0.000 C 
ATOM     12  C   UNL     1       2.254  -2.254   0.000  0.00  0.00    +0.000 C 
ATOM     13  N   UNL     1       4.316  -1.540   0.000  0.00  0.00    +0.000 NA
ATOM     14  N   UNL     1       1.016  -1.540   0.000  0.00  0.00    +0.000 NA
ATOM     15  O   UNL     1       3.491  -2.968   0.000  0.00  0.00    +0.000 OA
ATOM     16  O   UNL     1       1.841  -2.968   0.000  0.00  0.00    +0.000 OA
ENDROOT
TORSDOF 0
