REMARK  Name = 
REMARK  6 active torsions:
REMARK  status: ('A' for Active; 'I' for Inactive)
REMARK    1  A    between atoms: C_2  and  C_3
REMARK    2  A    between atoms: C_3  and  C_5
REMARK    3  A    between atoms: C_5  and  N_6
REMARK    4  A    between atoms: C_7  and  C_9
REMARK    5  A    between atoms: C_10  and  N_11
REMARK    6  A    between atoms: N_11  and  C_12
REMARK                            x       y       z     vdW  Elec       q    Type
REMARK                         _______ _______ _______ _____ _____    ______ ____
ROOT
ATOM      1  C   UNL     1       2.858  -5.775   0.000  0.00  0.00    +0.000 A 
ATOM      2  C   UNL     1       3.572  -5.362   0.000  0.00  0.00    +0.000 A 
ATOM      3  C   UNL     1       4.287  -5.775   0.000  0.00  0.00    +0.000 A 
ATOM      4  N   UNL     1       4.287  -6.600   0.000  0.00  0.00    +0.000 NA
ATOM      5  C   UNL     1       3.572  -7.013   0.000  0.00  0.00    +0.000 A 
ATOM      6  C   UNL     1       2.858  -6.600   0.000  0.00  0.00    +0.000 A 
ENDROOT
BRANCH   1   8
ATOM      7  N   UNL     1       1.429  -5.775   0.000  0.00  0.00    +0.000 NA
ATOM      8  C   UNL     1       2.143  -5.362   0.000  0.00  0.00    +0.000 C 
ATOM      9  O   UNL     1       2.143  -4.537   0.000  0.00  0.00    +0.000 OA
BRANCH   7  10
ATOM     10  C   UNL     1       0.715  -5.362   0.000  0.00  0.00    +0.000 C 
BRANCH  10  11
ATOM     11  C   UNL     1       0.000  -5.775   0.000  0.00  0.00    +0.000 C 
ATOM     12  O   UNL     1       0.000  -6.600   0.000  0.00  0.00    +0.000 OA
BRANCH  11  14
ATOM     13  O   UNL     1      -1.429  -5.775   0.000  0.00  0.00    +0.000 OA
ATOM     14  C   UNL     1      -0.715  -5.362   0.000  0.00  0.00    +0.000 C 
ENDBRANCH  11  14
ENDBRANCH  10  11
ENDBRANCH   7  10
ENDBRANCH   1   8
BRANCH   2  15
ATOM     15  N   UNL     1       3.572  -4.537   0.000  0.00  0.00    +0.000 NA
BRANCH  15  16
ATOM     16  C   UNL     1       4.287  -4.125   0.000  0.00  0.00    +0.000 A 
ATOM     17  C   UNL     1       4.287  -3.300   0.000  0.00  0.00    +0.000 A 
ATOM     18  F   UNL     1       3.572  -2.888   0.000  0.00  0.00    +0.000 F 
ATOM     19  C   UNL     1       5.001  -2.888   0.000  0.00  0.00    +0.000 A 
ATOM     20  C   UNL     1       5.716  -3.300   0.000  0.00  0.00    +0.000 A 
ATOM     21  I   UNL     1       6.430  -2.888   0.000  0.00  0.00    +0.000 I 
ATOM     22  C   UNL     1       5.716  -4.125   0.000  0.00  0.00    +0.000 A 
ATOM     23  C   UNL     1       5.001  -4.537   0.000  0.00  0.00    +0.000 A 
ENDBRANCH  15  16
ENDBRANCH   2  15
TORSDOF 6
