REMARK  Name = 
REMARK  8 active torsions:
REMARK  status: ('A' for Active; 'I' for Inactive)
REMARK    1  A    between atoms: C_2  and  C_23
REMARK    2  A    between atoms: C_5  and  O_7
REMARK    3  A    between atoms: O_7  and  C_8
REMARK    4  A    between atoms: C_8  and  C_9
REMARK    5  A    between atoms: C_9  and  C_10
REMARK    6  A    between atoms: N_13  and  C_16
REMARK    7  A    between atoms: C_23  and  O_24
REMARK    8  A    between atoms: O_24  and  C_25
REMARK                            x       y       z     vdW  Elec       q    Type
REMARK                         _______ _______ _______ _____ _____    ______ ____
ROOT
ATOM      1  C   UNL     1       0.716   1.440   0.000  0.00  0.00    +0.000 C 
ENDROOT
BRANCH   1   2
ATOM      2  C   UNL     1       1.430   1.031   0.000  0.00  0.00    +0.000 C 
ATOM      3  C   UNL     1       1.430   0.207   0.000  0.00  0.00    +0.000 C 
ATOM      4  C   UNL     1       2.140  -0.202   0.000  0.00  0.00    +0.000 C 
ATOM      5  N   UNL     1       2.853   0.208   0.000  0.00  0.00    +0.000 N 
ATOM      6  C   UNL     1       2.853   1.032   0.000  0.00  0.00    +0.000 C 
ATOM      7  C   UNL     1       2.139   1.445   0.000  0.00  0.00    +0.000 C 
BRANCH   5   8
ATOM      8  C   UNL     1       3.568  -0.205   0.000  0.00  0.00    +0.000 A 
ATOM      9  C   UNL     1       3.563  -1.032   0.000  0.00  0.00    +0.000 A 
ATOM     10  C   UNL     1       4.277  -1.445   0.000  0.00  0.00    +0.000 A 
ATOM     11  C   UNL     1       4.994  -1.032   0.000  0.00  0.00    +0.000 A 
ATOM     12  N   UNL     1       4.992  -0.202   0.000  0.00  0.00    +0.000 NA
ATOM     13  N   UNL     1       4.277   0.208   0.000  0.00  0.00    +0.000 NA
ATOM     14  C   UNL     1       5.710  -1.445   0.000  0.00  0.00    +0.000 C 
ENDBRANCH   5   8
ENDBRANCH   1   2
BRANCH   1  15
ATOM     15  C   UNL     1       0.003   1.026   0.000  0.00  0.00    +0.000 C 
BRANCH  15  16
ATOM     16  O   UNL     1      -0.711   1.435   0.000  0.00  0.00    +0.000 OA
BRANCH  16  21
ATOM     17  C   UNL     1      -2.853   1.018   0.000  0.00  0.00    +0.000 A 
ATOM     18  C   UNL     1      -2.854   0.190   0.000  0.00  0.00    +0.000 A 
ATOM     19  C   UNL     1      -2.138  -0.224   0.000  0.00  0.00    +0.000 A 
ATOM     20  C   UNL     1      -1.421   0.190   0.000  0.00  0.00    +0.000 A 
ATOM     21  C   UNL     1      -1.424   1.022   0.000  0.00  0.00    +0.000 A 
ATOM     22  C   UNL     1      -2.140   1.431   0.000  0.00  0.00    +0.000 A 
BRANCH  18  23
ATOM     23  C   UNL     1      -3.569  -0.221   0.000  0.00  0.00    +0.000 C 
ATOM     24  O   UNL     1      -3.571  -1.047   0.000  0.00  0.00    +0.000 OA
BRANCH  23  25
ATOM     25  O   UNL     1      -4.283   0.192   0.000  0.00  0.00    +0.000 OA
BRANCH  25  26
ATOM     26  C   UNL     1      -4.997  -0.221   0.000  0.00  0.00    +0.000 C 
ATOM     27  C   UNL     1      -5.710   0.192   0.000  0.00  0.00    +0.000 C 
ENDBRANCH  25  26
ENDBRANCH  23  25
ENDBRANCH  18  23
ENDBRANCH  16  21
ENDBRANCH  15  16
ENDBRANCH   1  15
TORSDOF 8
