REMARK  Name = 
REMARK  8 active torsions:
REMARK  status: ('A' for Active; 'I' for Inactive)
REMARK    1  A    between atoms: C_2  and  C_3
REMARK    2  A    between atoms: C_4  and  O_32
REMARK    3  A    between atoms: C_7  and  C_9
REMARK    4  A    between atoms: N_12  and  C_13
REMARK    5  A    between atoms: C_16  and  N_19
REMARK    6  A    between atoms: C_22  and  N_25
REMARK    7  A    between atoms: O_32  and  C_33
REMARK    8  A    between atoms: C_38  and  C_40
REMARK                            x       y       z     vdW  Elec       q    Type
REMARK                         _______ _______ _______ _____ _____    ______ ____
ROOT
ATOM      1  C   UNL     1       3.466  -5.424   0.000  0.00  0.00    +0.000 A 
ATOM      2  C   UNL     1       4.180  -5.012   0.000  0.00  0.00    +0.000 A 
ATOM      3  N   UNL     1       4.180  -4.187   0.000  0.00  0.00    +0.000 NA
ATOM      4  C   UNL     1       3.466  -3.774   0.000  0.00  0.00    +0.000 A 
ATOM      5  C   UNL     1       2.751  -4.187   0.000  0.00  0.00    +0.000 A 
ATOM      6  N   UNL     1       2.751  -5.012   0.000  0.00  0.00    +0.000 NA
ATOM      7  N   UNL     1       3.466  -2.949   0.000  0.00  0.00    +0.000 NA
ENDROOT
BRANCH   7   8
ATOM      8  C   UNL     1       4.180  -2.537   0.000  0.00  0.00    +0.000 A 
ATOM      9  C   UNL     1       4.180  -1.712   0.000  0.00  0.00    +0.000 A 
ATOM     10  C   UNL     1       4.895  -1.299   0.000  0.00  0.00    +0.000 A 
ATOM     11  C   UNL     1       5.609  -1.712   0.000  0.00  0.00    +0.000 A 
ATOM     12  C   UNL     1       5.609  -2.537   0.000  0.00  0.00    +0.000 A 
ATOM     13  C   UNL     1       4.895  -2.949   0.000  0.00  0.00    +0.000 A 
BRANCH  11  14
ATOM     14  N   UNL     1       6.324  -1.299   0.000  0.00  0.00    +0.000 N 
ATOM     15  C   UNL     1       6.324  -0.474   0.000  0.00  0.00    +0.000 C 
ATOM     16  C   UNL     1       7.038  -0.062   0.000  0.00  0.00    +0.000 C 
ATOM     17  C   UNL     1       7.753  -0.474   0.000  0.00  0.00    +0.000 C 
ATOM     18  C   UNL     1       7.753  -1.299   0.000  0.00  0.00    +0.000 C 
ATOM     19  C   UNL     1       7.038  -1.712   0.000  0.00  0.00    +0.000 C 
BRANCH  17  20
ATOM     20  N   UNL     1       8.467  -0.062   0.000  0.00  0.00    +0.000 NA
ATOM     21  C   UNL     1       8.467   0.763   0.000  0.00  0.00    +0.000 C 
ATOM     22  C   UNL     1       9.181   1.176   0.000  0.00  0.00    +0.000 C 
ATOM     23  N   UNL     1       9.896   0.763   0.000  0.00  0.00    +0.000 NA
ATOM     24  C   UNL     1       9.896  -0.062   0.000  0.00  0.00    +0.000 C 
ATOM     25  C   UNL     1       9.181  -0.474   0.000  0.00  0.00    +0.000 C 
ATOM     26  C   UNL     1      10.610   1.176   0.000  0.00  0.00    +0.000 C 
ENDBRANCH  17  20
ENDBRANCH  11  14
ENDBRANCH   7   8
BRANCH   5  27
ATOM     27  C   UNL     1       2.037  -3.774   0.000  0.00  0.00    +0.000 C 
ATOM     28  O   UNL     1       2.037  -2.949   0.000  0.00  0.00    +0.000 OA
ATOM     29  N   UNL     1       1.322  -4.187   0.000  0.00  0.00    +0.000 NA
ENDBRANCH   5  27
BRANCH   1  31
ATOM     30  C   UNL     1       2.751  -6.662   0.000  0.00  0.00    +0.000 C 
ATOM     31  C   UNL     1       3.466  -6.249   0.000  0.00  0.00    +0.000 C 
ENDBRANCH   1  31
BRANCH   2  32
ATOM     32  O   UNL     1       4.895  -5.424   0.000  0.00  0.00    +0.000 OA
BRANCH  32  33
ATOM     33  C   UNL     1       4.895  -6.249   0.000  0.00  0.00    +0.000 C 
ATOM     34  C   UNL     1       5.562  -6.734   0.000  0.00  0.00    +0.000 C 
ATOM     35  C   UNL     1       5.307  -7.519   0.000  0.00  0.00    +0.000 C 
ATOM     36  N   UNL     1       4.482  -7.519   0.000  0.00  0.00    +0.000 N 
ATOM     37  C   UNL     1       4.227  -6.734   0.000  0.00  0.00    +0.000 C 
ATOM     38  C   UNL     1       3.997  -8.186   0.000  0.00  0.00    +0.000 C 
ATOM     39  O   UNL     1       4.333  -8.940   0.000  0.00  0.00    +0.000 OA
BRANCH  38  40
ATOM     40  C   UNL     1       3.177  -8.100   0.000  0.00  0.00    +0.000 C 
ATOM     41  C   UNL     1       2.692  -8.767   0.000  0.00  0.00    +0.000 C 
ENDBRANCH  38  40
ENDBRANCH  32  33
ENDBRANCH   2  32
TORSDOF 8
