REMARK  Name = 
REMARK  20 active torsions:
REMARK  status: ('A' for Active; 'I' for Inactive)
REMARK    1  A    between atoms: C_2  and  C_3
REMARK    2  A    between atoms: C_3  and  C_4
REMARK    3  A    between atoms: C_4  and  C_5
REMARK    4  A    between atoms: C_5  and  C_6
REMARK    5  A    between atoms: C_7  and  C_8
REMARK    6  A    between atoms: C_8  and  C_9
REMARK    7  A    between atoms: C_10  and  C_11
REMARK    8  A    between atoms: C_12  and  C_13
REMARK    9  A    between atoms: C_14  and  C_15
REMARK   10  A    between atoms: C_15  and  C_16
REMARK   11  A    between atoms: C_15  and  S_24
REMARK   12  A    between atoms: C_16  and  C_17
REMARK   13  A    between atoms: C_17  and  C_18
REMARK   14  A    between atoms: C_18  and  C_19
REMARK   15  A    between atoms: C_19  and  C_20
REMARK   16  A    between atoms: S_24  and  C_25
REMARK   17  A    between atoms: C_25  and  C_26
REMARK   18  A    between atoms: C_26  and  C_27
REMARK   19  A    between atoms: N_29  and  CA_30
REMARK   20  A    between atoms: CA_30  and  C_31
REMARK                            x       y       z     vdW  Elec       q    Type
REMARK                         _______ _______ _______ _____ _____    ______ ____
ROOT
ATOM      1  C   UNK A   1       6.337  -4.747   0.000  0.00  0.00    +0.000 C 
ENDROOT
BRANCH   1   3
ATOM      2  C   UNK A   1       5.346  -5.776   0.000  0.00  0.00    +0.000 C 
ATOM      3  C   UNK A   1       6.139  -5.548   0.000  0.00  0.00    +0.000 C 
BRANCH   2   5
ATOM      4  C   UNK A   1       4.356  -6.806   0.000  0.00  0.00    +0.000 C 
ATOM      5  C   UNK A   1       5.148  -6.577   0.000  0.00  0.00    +0.000 C 
BRANCH   4   7
ATOM      6  C   UNK A   1       3.365  -7.836   0.000  0.00  0.00    +0.000 C 
ATOM      7  C   UNK A   1       4.157  -7.607   0.000  0.00  0.00    +0.000 C 
BRANCH   6   8
ATOM      8  C   UNK A   1       2.770  -7.264   0.000  0.00  0.00    +0.000 C 
BRANCH   8  10
ATOM      9  C   UNK A   1       1.383  -6.920   0.000  0.00  0.00    +0.000 C 
ATOM     10  C   UNK A   1       1.978  -7.492   0.000  0.00  0.00    +0.000 C 
BRANCH   9  11
ATOM     11  C   UNK A   1       1.581  -6.120   0.000  0.00  0.00    +0.000 C 
BRANCH  11  12
ATOM     12  C   UNK A   1       0.987  -5.548   0.000  0.00  0.00    +0.000 C 
BRANCH  12  13
ATOM     13  C   UNK A   1       1.185  -4.747   0.000  0.00  0.00    +0.000 C 
BRANCH  13  15
ATOM     14  C   UNK A   1       0.789  -3.374   0.000  0.00  0.00    +0.000 C 
ATOM     15  C   UNK A   1       0.591  -4.175   0.000  0.00  0.00    +0.000 C 
ENDBRANCH  13  15
ENDBRANCH  12  13
ENDBRANCH  11  12
ENDBRANCH   9  11
ENDBRANCH   8  10
ENDBRANCH   6   8
ENDBRANCH   4   7
ENDBRANCH   2   5
ENDBRANCH   1   3
BRANCH   1  16
ATOM     16  C   UNK A   1       5.743  -4.175   0.000  0.00  0.00    +0.000 C 
ATOM     17  O   UNK A   1       4.950  -4.404   0.000  0.00  0.00    +0.000 OA
BRANCH  16  18
ATOM     18  C   UNK A   1       5.941  -3.374   0.000  0.00  0.00    +0.000 C 
BRANCH  18  19
ATOM     19  C   UNK A   1       5.346  -2.802   0.000  0.00  0.00    +0.000 C 
BRANCH  19  20
ATOM     20  C   UNK A   1       5.545  -2.001   0.000  0.00  0.00    +0.000 C 
BRANCH  20  21
ATOM     21  C   UNK A   1       4.950  -1.429   0.000  0.00  0.00    +0.000 C 
ATOM     22  O   UNK A   1       4.157  -1.658   0.000  0.00  0.00    +0.000 OA
ATOM     23  O   UNK A   1       5.148  -0.628   0.000  0.00  0.00    +0.000 OA
ENDBRANCH  20  21
ENDBRANCH  19  20
ENDBRANCH  18  19
ENDBRANCH  16  18
ENDBRANCH   1  16
BRANCH   1  24
ATOM     24  S   UNK A   1       7.130  -4.518   0.000  0.00  0.00    +0.000 S 
BRANCH  24  25
ATOM     25  C   UNK A   1       7.328  -3.717   0.000  0.00  0.00    +0.000 C 
BRANCH  25  26
ATOM     26  C   UNK A   1       8.120  -3.488   0.000  0.00  0.00    +0.000 C 
ATOM     27  N   UNK A   1       8.715  -4.060   0.000  0.00  0.00    +0.000 NA
BRANCH  26  28
ATOM     28  C   UNK A   1       8.319  -2.687   0.000  0.00  0.00    +0.000 C 
ATOM     29  O   UNK A   1       7.724  -2.115   0.000  0.00  0.00    +0.000 OA
ATOM     30  N   GLY A   2       9.111  -2.459   0.000  0.00  0.00    +0.000 NA
BRANCH  30  31
ATOM     31  CA  GLY A   2       9.309  -1.658   0.000  0.00  0.00    +0.000 C 
BRANCH  31  32
ATOM     32  C   GLY A   2      10.102  -1.429   0.000  0.00  0.00    +0.000 C 
ATOM     33  O   GLY A   2      10.300  -0.628   0.000  0.00  0.00    +0.000 OA
ATOM     34  OXT GLY A   2      10.697  -2.001   0.000  0.00  0.00    +0.000 OA
ENDBRANCH  31  32
ENDBRANCH  30  31
ENDBRANCH  26  28
ENDBRANCH  25  26
ENDBRANCH  24  25
ENDBRANCH   1  24
TORSDOF 20
