REMARK  Name = 
REMARK  3 active torsions:
REMARK  status: ('A' for Active; 'I' for Inactive)
REMARK    1  A    between atoms: C_2  and  C_3
REMARK    2  A    between atoms: C_3  and  N_4
REMARK    3  A    between atoms: N_4  and  C_6
REMARK                            x       y       z     vdW  Elec       q    Type
REMARK                         _______ _______ _______ _____ _____    ______ ____
ROOT
ATOM      1  C   UNL     1       0.866  -0.741   0.000  0.00  0.00    +0.000 C 
ATOM      2  C   UNL     1       1.348  -1.406   0.000  0.00  0.00    +0.000 C 
ATOM      3  C   UNL     1       0.866  -2.076   0.000  0.00  0.00    +0.000 C 
ATOM      4  C   UNL     1       0.080  -1.821   0.000  0.00  0.00    +0.000 A 
ATOM      5  C   UNL     1       0.080  -0.996   0.000  0.00  0.00    +0.000 A 
ATOM      6  C   UNL     1      -0.634  -0.585   0.000  0.00  0.00    +0.000 A 
ATOM      7  C   UNL     1      -1.348  -0.996   0.000  0.00  0.00    +0.000 A 
ATOM      8  C   UNL     1      -1.348  -1.821   0.000  0.00  0.00    +0.000 A 
ATOM      9  C   UNL     1      -0.634  -2.232   0.000  0.00  0.00    +0.000 A 
ENDROOT
BRANCH   1  10
ATOM     10  N   UNL     1       0.692   0.067   0.000  0.00  0.00    +0.000 NA
ATOM     11  C   UNL     1      -0.089   0.321   0.000  0.00  0.00    +0.000 C 
BRANCH  10  12
ATOM     12  C   UNL     1       1.308   0.620   0.000  0.00  0.00    +0.000 C 
BRANCH  12  14
ATOM     13  C   UNL     1       0.964   2.232   0.000  0.00  0.00    +0.000 C 
ATOM     14  C   UNL     1       1.134   1.424   0.000  0.00  0.00    +0.000 C 
ENDBRANCH  12  14
ENDBRANCH  10  12
ENDBRANCH   1  10
TORSDOF 3
