REMARK  Name = 
REMARK  8 active torsions:
REMARK  status: ('A' for Active; 'I' for Inactive)
REMARK    1  A    between atoms: C_2  and  N_4
REMARK    2  A    between atoms: N_4  and  C_5
REMARK    3  A    between atoms: C_5  and  C_6
REMARK    4  A    between atoms: C_12  and  C_14
REMARK    5  A    between atoms: C_14  and  N_15
REMARK    6  A    between atoms: C_23  and  C_40
REMARK    7  A    between atoms: C_27  and  C_30
REMARK    8  A    between atoms: C_30  and  C_31
REMARK                            x       y       z     vdW  Elec       q    Type
REMARK                         _______ _______ _______ _____ _____    ______ ____
ROOT
ATOM      1  N   UNL     1       1.173  -1.037   0.000  0.00  0.00    +0.000 N 
ATOM      2  C   UNL     1       0.435  -0.668   0.000  0.00  0.00    +0.000 A 
ATOM      3  C   UNL     1      -0.178  -1.220   0.000  0.00  0.00    +0.000 A 
ATOM      4  C   UNL     1      -0.963  -0.965   0.000  0.00  0.00    +0.000 A 
ATOM      5  C   UNL     1      -1.134  -0.158   0.000  0.00  0.00    +0.000 A 
ATOM      6  C   UNL     1      -0.521   0.394   0.000  0.00  0.00    +0.000 A 
ATOM      7  C   UNL     1       0.263   0.139   0.000  0.00  0.00    +0.000 A 
ATOM      8  N   UNL     1       0.787   0.776   0.000  0.00  0.00    +0.000 N 
ATOM      9  C   UNL     1       0.544   1.565   0.000  0.00  0.00    +0.000 A 
ATOM     10  N   UNL     1       1.219   2.039   0.000  0.00  0.00    +0.000 NA
ATOM     11  N   UNL     1       1.879   1.544   0.000  0.00  0.00    +0.000 NA
ATOM     12  C   UNL     1       1.612   0.764   0.000  0.00  0.00    +0.000 A 
ATOM     13  C   UNL     1       2.117   0.111   0.000  0.00  0.00    +0.000 C 
ATOM     14  C   UNL     1       1.921  -0.690   0.000  0.00  0.00    +0.000 C 
ATOM     15  O   UNL     1       2.559  -1.214   0.000  0.00  0.00    +0.000 OA
ENDROOT
BRANCH   9  16
ATOM     16  C   UNL     1      -0.237   1.831   0.000  0.00  0.00    +0.000 A 
ATOM     17  C   UNL     1      -0.858   1.288   0.000  0.00  0.00    +0.000 A 
ATOM     18  C   UNL     1      -1.639   1.555   0.000  0.00  0.00    +0.000 A 
ATOM     19  C   UNL     1      -1.798   2.364   0.000  0.00  0.00    +0.000 A 
ATOM     20  C   UNL     1      -1.177   2.907   0.000  0.00  0.00    +0.000 A 
ATOM     21  C   UNL     1      -0.396   2.641   0.000  0.00  0.00    +0.000 A 
ENDBRANCH   9  16
BRANCH  13  22
ATOM     22  C   UNL     1       2.924   0.283   0.000  0.00  0.00    +0.000 C 
BRANCH  22  23
ATOM     23  C   UNL     1       3.179   1.067   0.000  0.00  0.00    +0.000 A 
ATOM     24  C   UNL     1       2.694   1.735   0.000  0.00  0.00    +0.000 A 
ATOM     25  N   UNL     1       3.179   2.402   0.000  0.00  0.00    +0.000 NA
ATOM     26  C   UNL     1       3.963   2.147   0.000  0.00  0.00    +0.000 A 
ATOM     27  C   UNL     1       3.963   1.322   0.000  0.00  0.00    +0.000 A 
ATOM     28  C   UNL     1       4.678   0.910   0.000  0.00  0.00    +0.000 A 
ATOM     29  C   UNL     1       5.392   1.322   0.000  0.00  0.00    +0.000 A 
ATOM     30  C   UNL     1       5.392   2.147   0.000  0.00  0.00    +0.000 A 
ATOM     31  C   UNL     1       4.678   2.560   0.000  0.00  0.00    +0.000 A 
ENDBRANCH  22  23
ENDBRANCH  13  22
BRANCH   1  32
ATOM     32  C   UNL     1       1.160  -1.862   0.000  0.00  0.00    +0.000 C 
BRANCH  32  34
ATOM     33  N   UNL     1       0.427  -3.089   0.000  0.00  0.00    +0.000 N 
ATOM     34  C   UNL     1       0.440  -2.264   0.000  0.00  0.00    +0.000 C 
ATOM     35  O   UNL     1      -0.268  -1.841   0.000  0.00  0.00    +0.000 OA
BRANCH  33  37
ATOM     36  C   UNL     1       1.856  -3.110   0.000  0.00  0.00    +0.000 C 
ATOM     37  C   UNL     1       1.136  -3.512   0.000  0.00  0.00    +0.000 C 
ATOM     38  C   UNL     1       1.123  -4.337   0.000  0.00  0.00    +0.000 C 
ENDBRANCH  33  37
BRANCH  33  39
ATOM     39  C   UNL     1      -0.293  -3.490   0.000  0.00  0.00    +0.000 C 
BRANCH  39  40
ATOM     40  C   UNL     1      -0.305  -4.315   0.000  0.00  0.00    +0.000 A 
ATOM     41  C   UNL     1       0.403  -4.739   0.000  0.00  0.00    +0.000 A 
ATOM     42  C   UNL     1       0.391  -5.563   0.000  0.00  0.00    +0.000 A 
ATOM     43  C   UNL     1      -0.330  -5.965   0.000  0.00  0.00    +0.000 A 
ATOM     44  C   UNL     1      -1.038  -5.542   0.000  0.00  0.00    +0.000 A 
ATOM     45  C   UNL     1      -1.026  -4.717   0.000  0.00  0.00    +0.000 A 
ENDBRANCH  39  40
ENDBRANCH  33  39
ENDBRANCH  32  34
ENDBRANCH   1  32
TORSDOF 8
