REMARK  Name = 
REMARK  2 active torsions:
REMARK  status: ('A' for Active; 'I' for Inactive)
REMARK    1  A    between atoms: C_2  and  P_3
REMARK    2  A    between atoms: C_2  and  P_7
REMARK                            x       y       z     vdW  Elec       q    Type
REMARK                         _______ _______ _______ _____ _____    ______ ____
ROOT
ATOM      1  O   UNL     1       1.016  -0.674   0.000  0.00  0.00    +0.000 OA
ATOM      2  C   UNL     1       0.302  -0.262   0.000  0.00  0.00    +0.000 C 
ENDROOT
BRANCH   2   3
ATOM      3  P   UNL     1      -0.412  -0.674   0.000  0.00  0.00    +0.000 P 
ATOM      4  O   UNL     1      -1.127  -1.087   0.000  0.00  0.00    +0.000 OA
ATOM      5  O   UNL     1       0.000  -1.389   0.000  0.00  0.00    +0.000 OA
ATOM      6  O   UNL     1      -0.825   0.040   0.000  0.00  0.00    +0.000 OA
ENDBRANCH   2   3
BRANCH   2   7
ATOM      7  P   UNL     1       0.302   0.563   0.000  0.00  0.00    +0.000 P 
ATOM      8  O   UNL     1       0.302   1.389   0.000  0.00  0.00    +0.000 OA
ATOM      9  O   UNL     1       1.127   0.563   0.000  0.00  0.00    +0.000 OA
ATOM     10  O   UNL     1      -0.523   0.563   0.000  0.00  0.00    +0.000 OA
ENDBRANCH   2   7
TORSDOF 2
