REMARK  Name = 
REMARK  4 active torsions:
REMARK  status: ('A' for Active; 'I' for Inactive)
REMARK    1  A    between atoms: C_12  and  O_17
REMARK    2  A    between atoms: C_13  and  O_16
REMARK    3  A    between atoms: O_16  and  C_23
REMARK    4  A    between atoms: O_17  and  C_26
REMARK                            x       y       z     vdW  Elec       q    Type
REMARK                         _______ _______ _______ _____ _____    ______ ____
ROOT
ATOM      1  C   UNL     1       0.085  -0.412   0.000  0.00  0.00    +0.000 C 
ATOM      2  C   UNL     1       0.085   0.412   0.000  0.00  0.00    +0.000 A 
ATOM      3  C   UNL     1      -0.645   0.837   0.000  0.00  0.00    +0.000 A 
ATOM      4  C   UNL     1      -0.598  -0.837   0.000  0.00  0.00    +0.000 C 
ATOM      5  C   UNL     1       0.792  -0.813   0.000  0.00  0.00    +0.000 C 
ATOM      6  O   UNL     1      -1.117   0.035   0.000  0.00  0.00    +0.000 OA
ATOM      7  C   UNL     1       1.523  -0.412   0.000  0.00  0.00    +0.000 C 
ATOM      8  C   UNL     1       0.792   0.837   0.000  0.00  0.00    +0.000 A 
ATOM      9  C   UNL     1       0.792  -1.638   0.000  0.00  0.00    +0.000 C 
ATOM     10  C   UNL     1       1.523   0.436   0.000  0.00  0.00    +0.000 C 
ATOM     11  N   UNL     1       2.410  -0.734   0.000  0.00  0.00    +0.000 NA
ATOM     12  C   UNL     1      -0.598  -1.662   0.000  0.00  0.00    +0.000 C 
ATOM     13  C   UNL     1      -0.645   1.662   0.000  0.00  0.00    +0.000 A 
ATOM     14  C   UNL     1       0.109  -2.062   0.000  0.00  0.00    +0.000 C 
ATOM     15  C   UNL     1       0.611   0.237   0.000  0.00  0.00    +0.000 C 
ATOM     16  C   UNL     1       2.413   0.229   0.000  0.00  0.00    +0.000 C 
ATOM     17  C   UNL     1       0.792   1.662   0.000  0.00  0.00    +0.000 A 
ATOM     18  C   UNL     1       0.109   2.062   0.000  0.00  0.00    +0.000 A 
ATOM     19  C   UNL     1       2.781  -1.491   0.000  0.00  0.00    +0.000 C 
ENDROOT
BRANCH  13  20
ATOM     20  O   UNL     1      -1.352   2.086   0.000  0.00  0.00    +0.000 OA
BRANCH  20  21
ATOM     21  C   UNL     1      -2.067   1.673   0.000  0.00  0.00    +0.000 C 
ATOM     22  C   UNL     1      -2.781   2.086   0.000  0.00  0.00    +0.000 C 
ATOM     23  O   UNL     1      -2.067   0.849   0.000  0.00  0.00    +0.000 OA
ENDBRANCH  20  21
ENDBRANCH  13  20
BRANCH  12  24
ATOM     24  O   UNL     1      -1.305  -2.086   0.000  0.00  0.00    +0.000 OA
BRANCH  24  25
ATOM     25  C   UNL     1      -2.020  -1.673   0.000  0.00  0.00    +0.000 C 
ATOM     26  C   UNL     1      -2.734  -2.086   0.000  0.00  0.00    +0.000 C 
ATOM     27  O   UNL     1      -2.020  -0.849   0.000  0.00  0.00    +0.000 OA
ENDBRANCH  24  25
ENDBRANCH  12  24
TORSDOF 4
