REMARK  Name = 
REMARK  9 active torsions:
REMARK  status: ('A' for Active; 'I' for Inactive)
REMARK    1  A    between atoms: C_2  and  O_8
REMARK    2  A    between atoms: C_3  and  O_7
REMARK    3  A    between atoms: O_7  and  C_20
REMARK    4  A    between atoms: O_8  and  C_9
REMARK    5  A    between atoms: C_9  and  C_10
REMARK    6  A    between atoms: C_10  and  C_11
REMARK    7  A    between atoms: C_13  and  C_20
REMARK    8  A    between atoms: C_13  and  C_21
REMARK    9  A    between atoms: N_19  and  C_21
REMARK                            x       y       z     vdW  Elec       q    Type
REMARK                         _______ _______ _______ _____ _____    ______ ____
ROOT
ATOM      1  C   UNL     1      -0.714  -1.444   0.000  0.00  0.00    +0.000 A 
ATOM      2  C   UNL     1      -1.429  -1.031   0.000  0.00  0.00    +0.000 A 
ATOM      3  C   UNL     1       0.000  -0.206   0.000  0.00  0.00    +0.000 A 
ATOM      4  C   UNL     1      -0.714   0.206   0.000  0.00  0.00    +0.000 A 
ATOM      5  C   UNL     1       0.000  -1.031   0.000  0.00  0.00    +0.000 A 
ATOM      6  C   UNL     1      -1.429  -0.206   0.000  0.00  0.00    +0.000 A 
ENDROOT
BRANCH   2   7
ATOM      7  O   UNL     1      -2.143  -1.444   0.000  0.00  0.00    +0.000 OA
BRANCH   7   8
ATOM      8  C   UNL     1      -2.858  -1.031   0.000  0.00  0.00    +0.000 C 
BRANCH   8   9
ATOM      9  C   UNL     1      -3.572  -1.444   0.000  0.00  0.00    +0.000 C 
BRANCH   9  10
ATOM     10  C   UNL     1      -4.287  -1.031   0.000  0.00  0.00    +0.000 C 
ATOM     11  C   UNL     1      -5.001  -1.444   0.000  0.00  0.00    +0.000 C 
ENDBRANCH   9  10
ENDBRANCH   8   9
ENDBRANCH   7   8
ENDBRANCH   2   7
BRANCH   3  12
ATOM     12  O   UNL     1       0.714   0.206   0.000  0.00  0.00    +0.000 OA
BRANCH  12  13
ATOM     13  C   UNL     1       1.429  -0.206   0.000  0.00  0.00    +0.000 C 
BRANCH  13  14
ATOM     14  C   UNL     1       2.143   0.206   0.000  0.00  0.00    +0.000 C 
BRANCH  14  15
ATOM     15  C   UNL     1       2.858  -0.206   0.000  0.00  0.00    +0.000 C 
BRANCH  15  21
ATOM     16  C   UNL     1       4.287  -0.206   0.000  0.00  0.00    +0.000 C 
ATOM     17  C   UNL     1       5.001   0.206   0.000  0.00  0.00    +0.000 C 
ATOM     18  C   UNL     1       4.287   1.444   0.000  0.00  0.00    +0.000 C 
ATOM     19  C   UNL     1       3.572   1.031   0.000  0.00  0.00    +0.000 C 
ATOM     20  O   UNL     1       5.001   1.031   0.000  0.00  0.00    +0.000 OA
ATOM     21  N   UNL     1       3.572   0.206   0.000  0.00  0.00    +0.000 NA
ENDBRANCH  15  21
ENDBRANCH  14  15
ENDBRANCH  13  14
ENDBRANCH  12  13
ENDBRANCH   3  12
TORSDOF 9
