REMARK  Name = 
REMARK  3 active torsions:
REMARK  status: ('A' for Active; 'I' for Inactive)
REMARK    1  A    between atoms: C_2  and  C_27
REMARK    2  A    between atoms: C_27  and  C_29
REMARK    3  A    between atoms: C_29  and  C_30
REMARK                            x       y       z     vdW  Elec       q    Type
REMARK                         _______ _______ _______ _____ _____    ______ ____
ROOT
ATOM      1  C   UNL     1       3.068  -2.490   0.000  0.00  0.00    +0.000 C 
ATOM      2  C   UNL     1       2.839  -1.697   0.000  0.00  0.00    +0.000 C 
ATOM      3  C   UNL     1       3.522  -1.234   0.000  0.00  0.00    +0.000 C 
ATOM      4  C   UNL     1       4.173  -1.740   0.000  0.00  0.00    +0.000 C 
ATOM      5  C   UNL     1       4.985  -1.595   0.000  0.00  0.00    +0.000 C 
ATOM      6  C   UNL     1       5.266  -0.819   0.000  0.00  0.00    +0.000 C 
ATOM      7  O   UNL     1       4.734  -0.189   0.000  0.00  0.00    +0.000 OA
ATOM      8  C   UNL     1       6.078  -0.674   0.000  0.00  0.00    +0.000 C 
ATOM      9  C   UNL     1       6.609  -1.305   0.000  0.00  0.00    +0.000 C 
ATOM     10  C   UNL     1       7.422  -1.159   0.000  0.00  0.00    +0.000 C 
ATOM     11  C   UNL     1       7.953  -1.790   0.000  0.00  0.00    +0.000 C 
ATOM     12  O   UNL     1       8.765  -1.645   0.000  0.00  0.00    +0.000 OA
ATOM     13  C   UNL     1       7.673  -2.566   0.000  0.00  0.00    +0.000 C 
ATOM     14  C   UNL     1       6.861  -2.711   0.000  0.00  0.00    +0.000 C 
ATOM     15  C   UNL     1       6.329  -2.081   0.000  0.00  0.00    +0.000 C 
ATOM     16  C   UNL     1       6.049  -2.857   0.000  0.00  0.00    +0.000 C 
ATOM     17  C   UNL     1       5.517  -2.226   0.000  0.00  0.00    +0.000 C 
ATOM     18  C   UNL     1       5.237  -3.002   0.000  0.00  0.00    +0.000 C 
ATOM     19  C   UNL     1       4.425  -3.147   0.000  0.00  0.00    +0.000 C 
ATOM     20  C   UNL     1       3.893  -2.516   0.000  0.00  0.00    +0.000 C 
ATOM     21  C   UNL     1       3.533  -3.259   0.000  0.00  0.00    +0.000 C 
ENDROOT
BRANCH   1  22
ATOM     22  C   UNL     1       2.562  -3.141   0.000  0.00  0.00    +0.000 C 
ATOM     23  C   UNL     1       1.745  -3.028   0.000  0.00  0.00    +0.000 C 
BRANCH  22  24
ATOM     24  C   UNL     1       2.873  -3.905   0.000  0.00  0.00    +0.000 C 
BRANCH  24  25
ATOM     25  C   UNL     1       2.366  -4.556   0.000  0.00  0.00    +0.000 C 
ATOM     26  O   UNL     1       2.677  -5.321   0.000  0.00  0.00    +0.000 OA
ATOM     27  O   UNL     1       1.549  -4.444   0.000  0.00  0.00    +0.000 OA
ENDBRANCH  24  25
ENDBRANCH  22  24
ENDBRANCH   1  22
TORSDOF 3
