REMARK  Name = 
REMARK  0 active torsions:
REMARK  status: ('A' for Active; 'I' for Inactive)
REMARK                            x       y       z     vdW  Elec       q    Type
REMARK                         _______ _______ _______ _____ _____    ______ ____
ROOT
ATOM      1  C   UNL     1       3.572  -4.123   0.000  0.00  0.00    +0.000 C 
ATOM      2  C   UNL     1       5.846   0.046   0.000  0.00  0.00    +0.000 A 
ATOM      3  C   UNL     1       5.671  -0.760   0.000  0.00  0.00    +0.000 A 
ATOM      4  C   UNL     1       5.235   0.601   0.000  0.00  0.00    +0.000 A 
ATOM      5  C   UNL     1       4.886  -1.012   0.000  0.00  0.00    +0.000 A 
ATOM      6  C   UNL     1       3.928   0.988   0.000  0.00  0.00    +0.000 C 
ATOM      7  C   UNL     1       3.103   0.979   0.000  0.00  0.00    +0.000 C 
ATOM      8  C   UNL     1       2.835  -2.069   0.000  0.00  0.00    +0.000 C 
ATOM      9  C   UNL     1       4.264  -2.053   0.000  0.00  0.00    +0.000 C 
ATOM     10  C   UNL     1       2.085  -0.905   0.000  0.00  0.00    +0.000 A 
ATOM     11  C   UNL     1       2.844  -2.894   0.000  0.00  0.00    +0.000 C 
ATOM     12  C   UNL     1       4.273  -2.878   0.000  0.00  0.00    +0.000 C 
ATOM     13  C   UNL     1       1.457  -0.369   0.000  0.00  0.00    +0.000 A 
ATOM     14  C   UNL     1       4.449   0.349   0.000  0.00  0.00    +0.000 A 
ATOM     15  C   UNL     1       3.545  -1.649   0.000  0.00  0.00    +0.000 C 
ATOM     16  C   UNL     1       4.275  -0.458   0.000  0.00  0.00    +0.000 A 
ATOM     17  C   UNL     1       2.788  -0.474   0.000  0.00  0.00    +0.000 A 
ATOM     18  C   UNL     1       2.596   0.328   0.000  0.00  0.00    +0.000 A 
ATOM     19  C   UNL     1       3.535  -0.824   0.000  0.00  0.00    +0.000 C 
ATOM     20  N   UNL     1       3.563  -3.299   0.000  0.00  0.00    +0.000 NA
ATOM     21  S   UNL     1       1.773   0.393   0.000  0.00  0.00    +0.000 S 
ENDROOT
TORSDOF 0
