REMARK  Name = 
REMARK  6 active torsions:
REMARK  status: ('A' for Active; 'I' for Inactive)
REMARK    1  A    between atoms: C_2  and  N_3
REMARK    2  A    between atoms: C_2  and  C_26
REMARK    3  A    between atoms: N_3  and  C_4
REMARK    4  A    between atoms: C_4  and  C_5
REMARK    5  A    between atoms: C_7  and  C_11
REMARK    6  A    between atoms: C_14  and  C_16
REMARK                            x       y       z     vdW  Elec       q    Type
REMARK                         _______ _______ _______ _____ _____    ______ ____
ROOT
ATOM      1  N   UNL     1      -2.143  -1.238   0.000  0.00  0.00    +0.000 N 
ATOM      2  C   UNL     1      -1.429  -1.650   0.000  0.00  0.00    +0.000 C 
ATOM      3  O   UNL     1      -1.429  -2.475   0.000  0.00  0.00    +0.000 OA
ENDROOT
BRANCH   2   4
ATOM      4  C   UNL     1      -0.715  -1.238   0.000  0.00  0.00    +0.000 A 
ATOM      5  C   UNL     1       0.000  -1.650   0.000  0.00  0.00    +0.000 A 
ATOM      6  C   UNL     1       0.715  -1.238   0.000  0.00  0.00    +0.000 A 
ATOM      7  C   UNL     1       0.715  -0.412   0.000  0.00  0.00    +0.000 A 
ATOM      8  C   UNL     1       1.429   0.000   0.000  0.00  0.00    +0.000 A 
ATOM      9  C   UNL     1       2.143  -0.412   0.000  0.00  0.00    +0.000 A 
ATOM     10  C   UNL     1       2.143  -1.238   0.000  0.00  0.00    +0.000 A 
ATOM     11  C   UNL     1       1.429  -1.650   0.000  0.00  0.00    +0.000 A 
ATOM     12  N   UNL     1       0.000   0.000   0.000  0.00  0.00    +0.000 NA
ATOM     13  C   UNL     1      -0.715  -0.412   0.000  0.00  0.00    +0.000 A 
ENDBRANCH   2   4
BRANCH   1  15
ATOM     14  C   UNL     1      -1.429   0.000   0.000  0.00  0.00    +0.000 C 
ATOM     15  C   UNL     1      -2.143  -0.412   0.000  0.00  0.00    +0.000 C 
BRANCH  15  16
ATOM     16  C   UNL     1      -2.858   0.000   0.000  0.00  0.00    +0.000 A 
ATOM     17  C   UNL     1      -3.572  -0.412   0.000  0.00  0.00    +0.000 A 
ATOM     18  C   UNL     1      -4.287   0.000   0.000  0.00  0.00    +0.000 A 
ATOM     19  C   UNL     1      -4.287   0.825   0.000  0.00  0.00    +0.000 A 
ATOM     20  F   UNL     1      -5.001   1.238   0.000  0.00  0.00    +0.000 F 
ATOM     21  C   UNL     1      -3.572   1.238   0.000  0.00  0.00    +0.000 A 
ATOM     22  C   UNL     1      -2.858   0.825   0.000  0.00  0.00    +0.000 A 
ENDBRANCH  15  16
ENDBRANCH   1  15
BRANCH   1  23
ATOM     23  C   UNL     1      -2.858  -1.650   0.000  0.00  0.00    +0.000 C 
BRANCH  23  24
ATOM     24  C   UNL     1      -2.858  -2.475   0.000  0.00  0.00    +0.000 A 
ATOM     25  C   UNL     1      -3.572  -2.888   0.000  0.00  0.00    +0.000 A 
ATOM     26  C   UNL     1      -3.572  -3.712   0.000  0.00  0.00    +0.000 A 
ATOM     27  C   UNL     1      -2.858  -4.125   0.000  0.00  0.00    +0.000 A 
ATOM     28  C   UNL     1      -2.143  -3.712   0.000  0.00  0.00    +0.000 A 
ATOM     29  C   UNL     1      -2.143  -2.888   0.000  0.00  0.00    +0.000 A 
BRANCH  26  30
ATOM     30  C   UNL     1      -4.287  -4.125   0.000  0.00  0.00    +0.000 C 
ATOM     31  O   UNL     1      -5.001  -3.712   0.000  0.00  0.00    +0.000 OA
ATOM     32  O   UNL     1      -4.287  -4.950   0.000  0.00  0.00    +0.000 OA
ENDBRANCH  26  30
ENDBRANCH  23  24
ENDBRANCH   1  23
TORSDOF 6
