REMARK  Name = 
REMARK  5 active torsions:
REMARK  status: ('A' for Active; 'I' for Inactive)
REMARK    1  A    between atoms: C_1  and  C_3
REMARK    2  A    between atoms: C_3  and  N_4
REMARK    3  A    between atoms: C_10  and  N_22
REMARK    4  A    between atoms: C_23  and  O_25
REMARK    5  A    between atoms: O_25  and  C_26
REMARK                            x       y       z     vdW  Elec       q    Type
REMARK                         _______ _______ _______ _____ _____    ______ ____
ROOT
ATOM      1  C   UNL     1      -0.907  -0.491   0.000  0.00  0.00    +0.000 C 
ATOM      2  O   UNL     1      -0.193  -0.904   0.000  0.00  0.00    +0.000 OA
ATOM      3  C   UNL     1       0.020   1.496   0.000  0.00  0.00    +0.000 A 
ATOM      4  C   UNL     1      -0.164   0.692   0.000  0.00  0.00    +0.000 A 
ATOM      5  C   UNL     1       0.441   0.131   0.000  0.00  0.00    +0.000 A 
ATOM      6  C   UNL     1       1.229   0.374   0.000  0.00  0.00    +0.000 A 
ATOM      7  C   UNL     1       1.413   1.178   0.000  0.00  0.00    +0.000 A 
ATOM      8  C   UNL     1       0.808   1.739   0.000  0.00  0.00    +0.000 A 
ATOM      9  C   UNL     1      -3.227   1.178   0.000  0.00  0.00    +0.000 A 
ATOM     10  C   UNL     1      -3.044   0.374   0.000  0.00  0.00    +0.000 A 
ATOM     11  C   UNL     1      -2.255   0.131   0.000  0.00  0.00    +0.000 A 
ATOM     12  C   UNL     1      -1.646   0.712   0.000  0.00  0.00    +0.000 A 
ATOM     13  C   UNL     1      -1.829   1.516   0.000  0.00  0.00    +0.000 A 
ATOM     14  C   UNL     1      -2.622   1.739   0.000  0.00  0.00    +0.000 A 
ATOM     15  C   UNL     1      -1.320   2.141   0.000  0.00  0.00    +0.000 C 
ATOM     16  N   UNL     1      -0.907   0.334   0.000  0.00  0.00    +0.000 N 
ATOM     17  C   UNL     1      -0.495   2.141   0.000  0.00  0.00    +0.000 C 
ENDROOT
BRANCH   6  18
ATOM     18  N   UNL     1       1.834  -0.187   0.000  0.00  0.00    +0.000 NA
ATOM     19  C   UNL     1       1.650  -0.992   0.000  0.00  0.00    +0.000 C 
ATOM     20  O   UNL     1       0.862  -1.235   0.000  0.00  0.00    +0.000 OA
BRANCH  19  21
ATOM     21  O   UNL     1       2.255  -1.553   0.000  0.00  0.00    +0.000 OA
BRANCH  21  22
ATOM     22  C   UNL     1       3.043  -1.310   0.000  0.00  0.00    +0.000 C 
ATOM     23  C   UNL     1       3.227  -0.505   0.000  0.00  0.00    +0.000 C 
ENDBRANCH  21  22
ENDBRANCH  19  21
ENDBRANCH   6  18
BRANCH   1  24
ATOM     24  C   UNL     1      -1.622  -0.904   0.000  0.00  0.00    +0.000 C 
BRANCH  24  25
ATOM     25  N   UNL     1      -1.622  -1.729   0.000  0.00  0.00    +0.000 NA
ATOM     26  C   UNL     1      -2.336  -2.141   0.000  0.00  0.00    +0.000 C 
ATOM     27  C   UNL     1      -0.907  -2.141   0.000  0.00  0.00    +0.000 C 
ENDBRANCH  24  25
ENDBRANCH   1  24
TORSDOF 5
