REMARK  Name = 
REMARK  2 active torsions:
REMARK  status: ('A' for Active; 'I' for Inactive)
REMARK    1  A    between atoms: C_9  and  C_13
REMARK    2  A    between atoms: C_12  and  C_14
REMARK                            x       y       z     vdW  Elec       q    Type
REMARK                         _______ _______ _______ _____ _____    ______ ____
ROOT
ATOM      1  O   UNL     1      -1.246  -2.915   0.000  0.00  0.00    +0.000 OA
ATOM      2  N   UNL     1       0.249  -1.929   0.000  0.00  0.00    +0.000 N 
ATOM      3  N   UNL     1      -1.246  -0.440   0.000  0.00  0.00    +0.000 N 
ATOM      4  N   UNL     1      -1.960  -1.678   0.000  0.00  0.00    +0.000 NA
ATOM      5  C   UNL     1       0.249  -0.601   0.000  0.00  0.00    +0.000 A 
ATOM      6  C   UNL     1      -0.531  -0.853   0.000  0.00  0.00    +0.000 A 
ATOM      7  C   UNL     1       0.731  -1.265   0.000  0.00  0.00    +0.000 A 
ATOM      8  C   UNL     1      -0.531  -1.678   0.000  0.00  0.00    +0.000 A 
ATOM      9  C   UNL     1      -1.246  -2.090   0.000  0.00  0.00    +0.000 A 
ATOM     10  C   UNL     1      -1.960  -0.853   0.000  0.00  0.00    +0.000 A 
ATOM     11  H   UNL     1       0.408  -2.415   0.000  0.00  0.00    +0.000 HD
ATOM     12  H   UNL     1      -1.246   0.071   0.000  0.00  0.00    +0.000 HD
ENDROOT
BRANCH   5  16
ATOM     13  O   UNL     1       0.022   0.851   0.000  0.00  0.00    +0.000 OA
ATOM     14  O   UNL     1       1.957  -0.049   0.000  0.00  0.00    +0.000 OA
ATOM     15  O   UNL     1       1.960   1.745   0.000  0.00  0.00    +0.000 OA
ATOM     16  C   UNL     1       0.505   0.183   0.000  0.00  0.00    +0.000 C 
ATOM     17  C   UNL     1       1.291   0.436   0.000  0.00  0.00    +0.000 C 
ATOM     18  C   UNL     1       1.292   1.262   0.000  0.00  0.00    +0.000 C 
ATOM     19  C   UNL     1       0.508   1.518   0.000  0.00  0.00    +0.000 C 
BRANCH  19  21
ATOM     20  O   UNL     1       0.807   2.915   0.000  0.00  0.00    +0.000 OA
ATOM     21  C   UNL     1       0.254   2.303   0.000  0.00  0.00    +0.000 C 
ENDBRANCH  19  21
ENDBRANCH   5  16
TORSDOF 2
