REMARK  Name = 
REMARK  6 active torsions:
REMARK  status: ('A' for Active; 'I' for Inactive)
REMARK    1  A    between atoms: C_2  and  O_3
REMARK    2  A    between atoms: O_3  and  C_4
REMARK    3  A    between atoms: C_7  and  C_10
REMARK    4  A    between atoms: C_10  and  C_11
REMARK    5  A    between atoms: C_13  and  C_18
REMARK    6  A    between atoms: C_22  and  S_24
REMARK                            x       y       z     vdW  Elec       q    Type
REMARK                         _______ _______ _______ _____ _____    ______ ____
ROOT
ATOM      1  C   UNL     1      -1.429  -6.600   0.000  0.00  0.00    +0.000 A 
ATOM      2  C   UNL     1      -1.429  -7.425   0.000  0.00  0.00    +0.000 A 
ATOM      3  C   UNL     1      -2.143  -7.838   0.000  0.00  0.00    +0.000 A 
ATOM      4  C   UNL     1      -2.858  -7.425   0.000  0.00  0.00    +0.000 A 
ATOM      5  C   UNL     1      -2.858  -6.600   0.000  0.00  0.00    +0.000 A 
ATOM      6  C   UNL     1      -2.143  -6.188   0.000  0.00  0.00    +0.000 A 
ATOM      7 CL   UNL     1      -2.143  -5.362   0.000  0.00  0.00    +0.000 Cl
ENDROOT
BRANCH   3   8
ATOM      8  C   UNL     1      -2.143  -8.662   0.000  0.00  0.00    +0.000 C 
ATOM      9  C   UNL     1      -1.429  -9.075   0.000  0.00  0.00    +0.000 C 
ATOM     10  C   UNL     1      -1.429  -9.900   0.000  0.00  0.00    +0.000 C 
ATOM     11  C   UNL     1      -2.143 -10.312   0.000  0.00  0.00    +0.000 C 
ATOM     12  C   UNL     1      -2.858  -9.900   0.000  0.00  0.00    +0.000 C 
ATOM     13  O   UNL     1      -2.858  -9.075   0.000  0.00  0.00    +0.000 OA
ATOM     14  O   UNL     1      -2.143 -11.137   0.000  0.00  0.00    +0.000 OA
ATOM     15  O   UNL     1      -0.715 -10.312   0.000  0.00  0.00    +0.000 OA
ATOM     16  O   UNL     1      -0.715  -8.662   0.000  0.00  0.00    +0.000 OA
BRANCH  12  17
ATOM     17  S   UNL     1      -3.572 -10.312   0.000  0.00  0.00    +0.000 S 
ATOM     18  C   UNL     1      -3.572 -11.137   0.000  0.00  0.00    +0.000 C 
ENDBRANCH  12  17
ENDBRANCH   3   8
BRANCH   1  19
ATOM     19  C   UNL     1      -0.715  -6.188   0.000  0.00  0.00    +0.000 C 
BRANCH  19  23
ATOM     20  C   UNL     1      -0.715  -3.712   0.000  0.00  0.00    +0.000 A 
ATOM     21  C   UNL     1       0.000  -4.125   0.000  0.00  0.00    +0.000 A 
ATOM     22  C   UNL     1       0.000  -4.950   0.000  0.00  0.00    +0.000 A 
ATOM     23  C   UNL     1      -0.715  -5.362   0.000  0.00  0.00    +0.000 A 
ATOM     24  C   UNL     1      -1.429  -4.950   0.000  0.00  0.00    +0.000 A 
ATOM     25  C   UNL     1      -1.429  -4.125   0.000  0.00  0.00    +0.000 A 
BRANCH  20  26
ATOM     26  O   UNL     1      -0.715  -2.888   0.000  0.00  0.00    +0.000 OA
BRANCH  26  28
ATOM     27  C   UNL     1      -1.429  -1.650   0.000  0.00  0.00    +0.000 C 
ATOM     28  C   UNL     1      -1.429  -2.475   0.000  0.00  0.00    +0.000 C 
ENDBRANCH  26  28
ENDBRANCH  20  26
ENDBRANCH  19  23
ENDBRANCH   1  19
TORSDOF 6
