REMARK  Name = 
REMARK  4 active torsions:
REMARK  status: ('A' for Active; 'I' for Inactive)
REMARK    1  A    between atoms: C_1  and  N_2
REMARK    2  A    between atoms: C_9  and  C_12
REMARK    3  A    between atoms: N_13  and  C_18
REMARK    4  A    between atoms: C_18  and  C_19
REMARK                            x       y       z     vdW  Elec       q    Type
REMARK                         _______ _______ _______ _____ _____    ______ ____
ROOT
ATOM      1  N   UNL     1       4.720  -9.044   0.000  0.00  0.00    +0.000 NA
ATOM      2  C   UNL     1       5.423  -8.637   0.000  0.00  0.00    +0.000 C 
ATOM      3  O   UNL     1       5.423  -7.823   0.000  0.00  0.00    +0.000 OA
ENDROOT
BRANCH   1   4
ATOM      4  C   UNL     1       4.017  -8.637   0.000  0.00  0.00    +0.000 A 
ATOM      5  C   UNL     1       3.296  -9.044   0.000  0.00  0.00    +0.000 A 
ATOM      6  C   UNL     1       2.593  -8.655   0.000  0.00  0.00    +0.000 A 
ATOM      7  C   UNL     1       2.593  -7.823   0.000  0.00  0.00    +0.000 A 
ATOM      8  C   UNL     1       3.314  -7.416   0.000  0.00  0.00    +0.000 A 
ATOM      9  C   UNL     1       4.017  -7.823   0.000  0.00  0.00    +0.000 A 
ATOM     10  C   UNL     1       3.296  -9.876   0.000  0.00  0.00    +0.000 C 
ATOM     11  C   UNL     1       4.720  -7.397   0.000  0.00  0.00    +0.000 C 
ENDBRANCH   1   4
BRANCH   2  12
ATOM     12  C   UNL     1       6.126  -9.044   0.000  0.00  0.00    +0.000 C 
ATOM     13  N   UNL     1       6.848  -8.655   0.000  0.00  0.00    +0.000 NA
ATOM     14  C   UNL     1       7.551  -9.044   0.000  0.00  0.00    +0.000 C 
ATOM     15  C   UNL     1       7.551  -9.876   0.000  0.00  0.00    +0.000 C 
ATOM     16  C   UNL     1       6.848 -10.284   0.000  0.00  0.00    +0.000 C 
ATOM     17  C   UNL     1       6.126  -9.876   0.000  0.00  0.00    +0.000 C 
BRANCH  13  18
ATOM     18  C   UNL     1       6.848  -7.823   0.000  0.00  0.00    +0.000 C 
BRANCH  18  19
ATOM     19  C   UNL     1       6.145  -7.416   0.000  0.00  0.00    +0.000 C 
ATOM     20  C   UNL     1       6.145  -6.583   0.000  0.00  0.00    +0.000 C 
ENDBRANCH  18  19
ENDBRANCH  13  18
ENDBRANCH   2  12
TORSDOF 4
