REMARK  Name = 
REMARK  7 active torsions:
REMARK  status: ('A' for Active; 'I' for Inactive)
REMARK    1  A    between atoms: N_4  and  C_9
REMARK    2  A    between atoms: C_12  and  C_15
REMARK    3  A    between atoms: C_20  and  C_23
REMARK    4  A    between atoms: C_23  and  C_24
REMARK    5  A    between atoms: C_24  and  C_25
REMARK    6  A    between atoms: C_27  and  O_33
REMARK    7  A    between atoms: C_29  and  O_31
REMARK                            x       y       z     vdW  Elec       q    Type
REMARK                         _______ _______ _______ _____ _____    ______ ____
ROOT
ATOM      1  C   UNL     1      -0.715  -1.238   0.000  0.00  0.00    +0.000 C 
ATOM      2  O   UNL     1      -1.429  -1.650   0.000  0.00  0.00    +0.000 OA
ATOM      3  N   UNL     1       0.000  -1.650   0.000  0.00  0.00    +0.000 NA
ATOM      4  C   UNL     1       0.000  -2.475   0.000  0.00  0.00    +0.000 A 
ATOM      5  C   UNL     1       0.667  -2.960   0.000  0.00  0.00    +0.000 A 
ATOM      6  C   UNL     1       0.412  -3.744   0.000  0.00  0.00    +0.000 A 
ATOM      7  N   UNL     1      -0.412  -3.744   0.000  0.00  0.00    +0.000 NA
ATOM      8  N   UNL     1      -0.667  -2.960   0.000  0.00  0.00    +0.000 NA
ENDROOT
BRANCH   1  12
ATOM      9  C   UNL     1      -0.715   1.238   0.000  0.00  0.00    +0.000 A 
ATOM     10  C   UNL     1       0.000   0.825   0.000  0.00  0.00    +0.000 A 
ATOM     11  C   UNL     1       0.000   0.000   0.000  0.00  0.00    +0.000 A 
ATOM     12  C   UNL     1      -0.715  -0.412   0.000  0.00  0.00    +0.000 A 
ATOM     13  C   UNL     1      -1.429   0.000   0.000  0.00  0.00    +0.000 A 
ATOM     14  C   UNL     1      -1.429   0.825   0.000  0.00  0.00    +0.000 A 
BRANCH   9  18
ATOM     15  C   UNL     1       0.715   3.712   0.000  0.00  0.00    +0.000 C 
ATOM     16  C   UNL     1       0.000   3.300   0.000  0.00  0.00    +0.000 C 
ATOM     17  C   UNL     1       0.000   2.475   0.000  0.00  0.00    +0.000 C 
ATOM     18  N   UNL     1      -0.715   2.062   0.000  0.00  0.00    +0.000 N 
ATOM     19  C   UNL     1      -1.429   2.475   0.000  0.00  0.00    +0.000 C 
ATOM     20  C   UNL     1      -1.429   3.300   0.000  0.00  0.00    +0.000 C 
ATOM     21  N   UNL     1      -0.715   3.712   0.000  0.00  0.00    +0.000 NA
ATOM     22  C   UNL     1      -2.143   3.712   0.000  0.00  0.00    +0.000 C 
ENDBRANCH   9  18
ENDBRANCH   1  12
BRANCH   6  23
ATOM     23  C   UNL     1       0.897  -4.412   0.000  0.00  0.00    +0.000 C 
BRANCH  23  24
ATOM     24  C   UNL     1       0.562  -5.166   0.000  0.00  0.00    +0.000 C 
BRANCH  24  25
ATOM     25  C   UNL     1       1.047  -5.833   0.000  0.00  0.00    +0.000 A 
ATOM     26  C   UNL     1       1.867  -5.747   0.000  0.00  0.00    +0.000 A 
ATOM     27  C   UNL     1       2.352  -6.414   0.000  0.00  0.00    +0.000 A 
ATOM     28  C   UNL     1       2.017  -7.168   0.000  0.00  0.00    +0.000 A 
ATOM     29  C   UNL     1       1.196  -7.254   0.000  0.00  0.00    +0.000 A 
ATOM     30  C   UNL     1       0.711  -6.587   0.000  0.00  0.00    +0.000 A 
BRANCH  27  31
ATOM     31  O   UNL     1       3.173  -6.328   0.000  0.00  0.00    +0.000 OA
ATOM     32  C   UNL     1       3.658  -6.995   0.000  0.00  0.00    +0.000 C 
ENDBRANCH  27  31
BRANCH  29  33
ATOM     33  O   UNL     1       0.861  -8.008   0.000  0.00  0.00    +0.000 OA
ATOM     34  C   UNL     1       1.345  -8.675   0.000  0.00  0.00    +0.000 C 
ENDBRANCH  29  33
ENDBRANCH  24  25
ENDBRANCH  23  24
ENDBRANCH   6  23
TORSDOF 7
