REMARK  Name = 
REMARK  10 active torsions:
REMARK  status: ('A' for Active; 'I' for Inactive)
REMARK    1  A    between atoms: S_1  and  N_9
REMARK    2  A    between atoms: S_1  and  N_11
REMARK    3  A    between atoms: N_8  and  C_19
REMARK    4  A    between atoms: N_9  and  C_20
REMARK    5  A    between atoms: N_13  and  C_25
REMARK    6  A    between atoms: N_15  and  C_28
REMARK    7  A    between atoms: C_16  and  C_20
REMARK    8  A    between atoms: C_24  and  C_25
REMARK    9  A    between atoms: C_24  and  C_26
REMARK   10  A    between atoms: C_25  and  C_27
REMARK                            x       y       z     vdW  Elec       q    Type
REMARK                         _______ _______ _______ _____ _____    ______ ____
ROOT
ATOM      1  O   UNL     1      -1.552   0.200   0.000  0.00  0.00    +0.000 OA
ATOM      2  O   UNL     1      -2.588   2.067   0.000  0.00  0.00    +0.000 OA
ATOM      3  O   UNL     1      -3.646   0.616   0.000  0.00  0.00    +0.000 OA
ATOM      4  C   UNL     1      -1.551   1.025   0.000  0.00  0.00    +0.000 C 
ATOM      5  C   UNL     1      -2.335   1.282   0.000  0.00  0.00    +0.000 C 
ATOM      6  C   UNL     1      -2.821   0.615   0.000  0.00  0.00    +0.000 C 
ATOM      7  C   UNL     1      -2.337  -0.053   0.000  0.00  0.00    +0.000 C 
ENDROOT
BRANCH   7   8
ATOM      8  N   UNL     1      -2.594  -0.838   0.000  0.00  0.00    +0.000 N 
ATOM      9  N   UNL     1      -2.594  -2.165   0.000  0.00  0.00    +0.000 NA
ATOM     10  N   UNL     1      -4.089  -0.676   0.000  0.00  0.00    +0.000 NA
ATOM     11  N   UNL     1      -4.803  -1.914   0.000  0.00  0.00    +0.000 NA
ATOM     12  C   UNL     1      -3.374  -1.089   0.000  0.00  0.00    +0.000 A 
ATOM     13  C   UNL     1      -2.112  -1.501   0.000  0.00  0.00    +0.000 A 
ATOM     14  C   UNL     1      -3.374  -1.914   0.000  0.00  0.00    +0.000 A 
ATOM     15  C   UNL     1      -4.089  -2.326   0.000  0.00  0.00    +0.000 A 
ATOM     16  C   UNL     1      -4.803  -1.089   0.000  0.00  0.00    +0.000 A 
BRANCH  15  17
ATOM     17  N   UNL     1      -4.089  -3.151   0.000  0.00  0.00    +0.000 N 
ATOM     18  H   UNL     1      -4.532  -3.407   0.000  0.00  0.00    +0.000 HD
ATOM     19  H   UNL     1      -3.646  -3.407   0.000  0.00  0.00    +0.000 HD
ENDBRANCH  15  17
ENDBRANCH   7   8
BRANCH   4  20
ATOM     20  C   UNL     1      -0.882   1.509   0.000  0.00  0.00    +0.000 C 
BRANCH  20  21
ATOM     21  N   UNL     1      -0.129   1.172   0.000  0.00  0.00    +0.000 NA
ATOM     22  H   UNL     1      -0.077   0.663   0.000  0.00  0.00    +0.000 HD
BRANCH  21  23
ATOM     23  S   UNL     1       0.539   1.656   0.000  0.00  0.00    +0.000 S 
ATOM     24  O   UNL     1       0.055   2.324   0.000  0.00  0.00    +0.000 OA
ATOM     25  O   UNL     1       1.023   0.988   0.000  0.00  0.00    +0.000 OA
BRANCH  23  27
ATOM     26  O   UNL     1       2.045   0.982   0.000  0.00  0.00    +0.000 OA
ATOM     27  N   UNL     1       1.207   2.140   0.000  0.00  0.00    +0.000 N 
ATOM     28  C   UNL     1       1.960   1.803   0.000  0.00  0.00    +0.000 C 
ATOM     29  H   UNL     1       1.155   2.648   0.000  0.00  0.00    +0.000 HD
BRANCH  28  30
ATOM     30  C   UNL     1       2.629   2.287   0.000  0.00  0.00    +0.000 C 
BRANCH  30  31
ATOM     31  N   UNL     1       2.544   3.107   0.000  0.00  0.00    +0.000 NA
ATOM     32  H   UNL     1       2.958   3.407   0.000  0.00  0.00    +0.000 HD
ATOM     33  H   UNL     1       2.077   3.316   0.000  0.00  0.00    +0.000 HD
ENDBRANCH  30  31
BRANCH  30  34
ATOM     34  C   UNL     1       3.382   1.950   0.000  0.00  0.00    +0.000 C 
ATOM     35  C   UNL     1       3.466   1.129   0.000  0.00  0.00    +0.000 C 
BRANCH  34  36
ATOM     36  C   UNL     1       4.050   2.433   0.000  0.00  0.00    +0.000 C 
ATOM     37  C   UNL     1       4.803   2.097   0.000  0.00  0.00    +0.000 C 
ENDBRANCH  34  36
ENDBRANCH  30  34
ENDBRANCH  28  30
ENDBRANCH  23  27
ENDBRANCH  21  23
ENDBRANCH  20  21
ENDBRANCH   4  20
TORSDOF 10
