REMARK  Name = 
REMARK  7 active torsions:
REMARK  status: ('A' for Active; 'I' for Inactive)
REMARK    1  A    between atoms: C_8  and  C_10
REMARK    2  A    between atoms: C_11  and  C_12
REMARK    3  A    between atoms: C_15  and  C_26
REMARK    4  A    between atoms: C_17  and  N_18
REMARK    5  A    between atoms: C_19  and  C_20
REMARK    6  A    between atoms: C_26  and  N_27
REMARK    7  A    between atoms: C_33  and  C_34
REMARK                            x       y       z     vdW  Elec       q    Type
REMARK                         _______ _______ _______ _____ _____    ______ ____
ROOT
ATOM      1  C   UNL     1      -0.417  -0.249   0.000  0.00  0.00    +0.000 A 
ATOM      2  C   UNL     1      -0.004   0.465   0.000  0.00  0.00    +0.000 A 
ATOM      3  C   UNL     1       0.819   0.465   0.000  0.00  0.00    +0.000 A 
ATOM      4  C   UNL     1       1.231  -0.250   0.000  0.00  0.00    +0.000 A 
ATOM      5  C   UNL     1       0.822  -0.962   0.000  0.00  0.00    +0.000 A 
ATOM      6  C   UNL     1      -0.002  -0.967   0.000  0.00  0.00    +0.000 A 
ENDROOT
BRANCH   6   7
ATOM      7  N   UNL     1      -0.415  -1.681   0.000  0.00  0.00    +0.000 NA
ATOM      8  C   UNL     1      -1.240  -1.681   0.000  0.00  0.00    +0.000 C 
ATOM      9  O   UNL     1      -1.653  -0.967   0.000  0.00  0.00    +0.000 OA
BRANCH   8  10
ATOM     10  C   UNL     1      -1.653  -2.396   0.000  0.00  0.00    +0.000 A 
ATOM     11  S   UNL     1      -2.473  -2.482   0.000  0.00  0.00    +0.000 S 
ATOM     12  C   UNL     1      -2.644  -3.288   0.000  0.00  0.00    +0.000 A 
ATOM     13  C   UNL     1      -1.930  -3.701   0.000  0.00  0.00    +0.000 A 
ATOM     14  C   UNL     1      -1.317  -3.149   0.000  0.00  0.00    +0.000 A 
ATOM     15  C   UNL     1      -0.520  -3.362   0.000  0.00  0.00    +0.000 C 
ENDBRANCH   8  10
ENDBRANCH   6   7
BRANCH   1  17
ATOM     16  C   UNL     1      -1.654   0.466   0.000  0.00  0.00    +0.000 C 
ATOM     17  C   UNL     1      -1.242  -0.249   0.000  0.00  0.00    +0.000 C 
BRANCH  16  25
ATOM     18  C   UNL     1      -4.518  -0.085   0.000  0.00  0.00    +0.000 A 
ATOM     19  C   UNL     1      -3.803   0.328   0.000  0.00  0.00    +0.000 A 
ATOM     20  C   UNL     1      -3.091  -0.084   0.000  0.00  0.00    +0.000 A 
ATOM     21  C   UNL     1      -3.091  -0.910   0.000  0.00  0.00    +0.000 A 
ATOM     22  C   UNL     1      -3.801  -1.321   0.000  0.00  0.00    +0.000 A 
ATOM     23  C   UNL     1      -4.518  -0.913   0.000  0.00  0.00    +0.000 A 
ATOM     24  N   UNL     1      -3.631   1.132   0.000  0.00  0.00    +0.000 NA
ATOM     25  C   UNL     1      -2.479   0.466   0.000  0.00  0.00    +0.000 A 
ATOM     26  N   UNL     1      -2.813   1.217   0.000  0.00  0.00    +0.000 NA
ENDBRANCH  16  25
ENDBRANCH   1  17
BRANCH   4  27
ATOM     27  C   UNL     1       2.056  -0.250   0.000  0.00  0.00    +0.000 C 
BRANCH  27  28
ATOM     28  N   UNL     1       2.469   0.464   0.000  0.00  0.00    +0.000 NA
ATOM     29  C   UNL     1       2.056   1.179   0.000  0.00  0.00    +0.000 C 
ATOM     30  C   UNL     1       2.469   1.893   0.000  0.00  0.00    +0.000 C 
ATOM     31  N   UNL     1       3.294   1.893   0.000  0.00  0.00    +0.000 N 
ATOM     32  C   UNL     1       3.706   1.179   0.000  0.00  0.00    +0.000 C 
ATOM     33  C   UNL     1       3.294   0.464   0.000  0.00  0.00    +0.000 C 
ATOM     34  C   UNL     1       3.507   2.690   0.000  0.00  0.00    +0.000 C 
ATOM     35  O   UNL     1       2.924   3.274   0.000  0.00  0.00    +0.000 OA
BRANCH  34  36
ATOM     36  C   UNL     1       4.304   2.904   0.000  0.00  0.00    +0.000 C 
ATOM     37  O   UNL     1       4.518   3.701   0.000  0.00  0.00    +0.000 OA
ENDBRANCH  34  36
ENDBRANCH  27  28
ENDBRANCH   4  27
TORSDOF 7
