REMARK  Name = 
REMARK  9 active torsions:
REMARK  status: ('A' for Active; 'I' for Inactive)
REMARK    1  A    between atoms: O_5  and  C_28
REMARK    2  A    between atoms: O_6  and  C_29
REMARK    3  A    between atoms: N_7  and  C_15
REMARK    4  A    between atoms: N_8  and  C_13
REMARK    5  A    between atoms: N_11  and  C_22
REMARK    6  A    between atoms: N_11  and  C_27
REMARK    7  A    between atoms: C_16  and  C_17
REMARK    8  A    between atoms: C_20  and  C_23
REMARK    9  A    between atoms: C_27  and  C_30
REMARK                            x       y       z     vdW  Elec       q    Type
REMARK                         _______ _______ _______ _____ _____    ______ ____
ROOT
ATOM      1  N   UNL     1       0.781  -1.076   0.000  0.00  0.00    +0.000 N 
ATOM      2  N   UNL     1       0.781   0.251   0.000  0.00  0.00    +0.000 NA
ATOM      3  N   UNL     1       2.276  -1.238   0.000  0.00  0.00    +0.000 NA
ATOM      4  N   UNL     1       2.990   0.000   0.000  0.00  0.00    +0.000 NA
ATOM      5  C   UNL     1       1.561  -0.825   0.000  0.00  0.00    +0.000 A 
ATOM      6  C   UNL     1       0.299  -0.412   0.000  0.00  0.00    +0.000 A 
ATOM      7  C   UNL     1       1.561   0.000   0.000  0.00  0.00    +0.000 A 
ATOM      8  C   UNL     1       2.276   0.412   0.000  0.00  0.00    +0.000 A 
ATOM      9  C   UNL     1       2.990  -0.825   0.000  0.00  0.00    +0.000 A 
ENDROOT
BRANCH   1  14
ATOM     10  O   UNL     1       1.008  -2.529   0.000  0.00  0.00    +0.000 OA
ATOM     11  O   UNL     1      -0.930  -3.423   0.000  0.00  0.00    +0.000 OA
ATOM     12  C   UNL     1      -0.261  -2.114   0.000  0.00  0.00    +0.000 C 
ATOM     13  C   UNL     1      -0.262  -2.939   0.000  0.00  0.00    +0.000 C 
ATOM     14  C   UNL     1       0.524  -1.861   0.000  0.00  0.00    +0.000 C 
ATOM     15  C   UNL     1       0.522  -3.196   0.000  0.00  0.00    +0.000 C 
BRANCH  12  17
ATOM     16  O   UNL     1      -1.769  -2.783   0.000  0.00  0.00    +0.000 OA
ATOM     17  N   UNL     1      -0.927  -1.628   0.000  0.00  0.00    +0.000 N 
ATOM     18  C   UNL     1      -1.681  -1.962   0.000  0.00  0.00    +0.000 C 
ATOM     19  H   UNL     1      -0.873  -1.119   0.000  0.00  0.00    +0.000 HD
BRANCH  18  20
ATOM     20  C   UNL     1      -2.348  -1.476   0.000  0.00  0.00    +0.000 A 
ATOM     21  C   UNL     1      -3.102  -1.811   0.000  0.00  0.00    +0.000 A 
ATOM     22  C   UNL     1      -2.260  -0.656   0.000  0.00  0.00    +0.000 A 
ATOM     23  C   UNL     1      -2.927  -0.170   0.000  0.00  0.00    +0.000 A 
ATOM     24  C   UNL     1      -3.769  -1.325   0.000  0.00  0.00    +0.000 A 
ATOM     25  C   UNL     1      -3.681  -0.504   0.000  0.00  0.00    +0.000 A 
BRANCH  24  26
ATOM     26  O   UNL     1      -4.523  -1.659   0.000  0.00  0.00    +0.000 OA
ATOM     27  C   UNL     1      -5.190  -1.173   0.000  0.00  0.00    +0.000 C 
ENDBRANCH  24  26
BRANCH  23  28
ATOM     28  O   UNL     1      -2.839   0.650   0.000  0.00  0.00    +0.000 OA
ATOM     29  C   UNL     1      -3.506   1.136   0.000  0.00  0.00    +0.000 C 
ENDBRANCH  23  28
ENDBRANCH  18  20
ENDBRANCH  12  17
BRANCH  15  31
ATOM     30  O   UNL     1       1.582  -4.154   0.000  0.00  0.00    +0.000 OA
ATOM     31  C   UNL     1       0.776  -3.981   0.000  0.00  0.00    +0.000 C 
ENDBRANCH  15  31
ENDBRANCH   1  14
BRANCH   8  32
ATOM     32  N   UNL     1       2.276   1.237   0.000  0.00  0.00    +0.000 N 
ATOM     33  H   UNL     1       1.833   1.493   0.000  0.00  0.00    +0.000 HD
BRANCH  32  34
ATOM     34  C   UNL     1       2.990   1.650   0.000  0.00  0.00    +0.000 C 
BRANCH  34  35
ATOM     35  C   UNL     1       2.990   2.475   0.000  0.00  0.00    +0.000 A 
ATOM     36  C   UNL     1       3.705   2.887   0.000  0.00  0.00    +0.000 A 
ATOM     37  C   UNL     1       2.276   2.887   0.000  0.00  0.00    +0.000 A 
ATOM     38  C   UNL     1       3.705   3.712   0.000  0.00  0.00    +0.000 A 
ATOM     39  C   UNL     1       4.442   2.446   0.000  0.00  0.00    +0.000 A 
ATOM     40  C   UNL     1       2.276   3.712   0.000  0.00  0.00    +0.000 A 
ATOM     41  C   UNL     1       2.990   4.125   0.000  0.00  0.00    +0.000 A 
ATOM     42  C   UNL     1       4.442   4.154   0.000  0.00  0.00    +0.000 A 
ATOM     43  C   UNL     1       5.190   2.870   0.000  0.00  0.00    +0.000 A 
ATOM     44  C   UNL     1       5.190   3.730   0.000  0.00  0.00    +0.000 A 
ENDBRANCH  34  35
ENDBRANCH  32  34
ENDBRANCH   8  32
TORSDOF 9
