REMARK  Name = 
REMARK  1 active torsions:
REMARK  status: ('A' for Active; 'I' for Inactive)
REMARK    1  A    between atoms: CA_2  and  C_3
REMARK                            x       y       z     vdW  Elec       q    Type
REMARK                         _______ _______ _______ _____ _____    ______ ____
ROOT
ATOM      1  N   GLY A   1       2.062  -0.715   0.000  0.00  0.00    +0.000 NA
ATOM      2  CA  GLY A   1       1.238  -0.715   0.000  0.00  0.00    +0.000 C 
ENDROOT
BRANCH   2   3
ATOM      3  C   GLY A   1       0.825   0.000   0.000  0.00  0.00    +0.000 C 
ATOM      4  O   GLY A   1       0.000   0.000   0.000  0.00  0.00    +0.000 OA
ENDBRANCH   2   3
TORSDOF 1
