REMARK  Name = 
REMARK  2 active torsions:
REMARK  status: ('A' for Active; 'I' for Inactive)
REMARK    1  A    between atoms: C_11  and  C_20
REMARK    2  A    between atoms: C_14  and  S_17
REMARK                            x       y       z     vdW  Elec       q    Type
REMARK                         _______ _______ _______ _____ _____    ______ ____
ROOT
ATOM      1  C   UNL     1       0.035   0.235   0.000  0.00  0.00    +0.000 A 
ATOM      2  C   UNL     1       0.750   0.647   0.000  0.00  0.00    +0.000 A 
ATOM      3  C   UNL     1      -0.679   0.647   0.000  0.00  0.00    +0.000 A 
ATOM      4  C   UNL     1       0.750   1.472   0.000  0.00  0.00    +0.000 A 
ATOM      5  C   UNL     1      -0.679   1.472   0.000  0.00  0.00    +0.000 A 
ATOM      6  C   UNL     1       0.035   1.885   0.000  0.00  0.00    +0.000 A 
ATOM      7 CL   UNL     1       0.035   2.710   0.000  0.00  0.00    +0.000 Cl
ENDROOT
BRANCH   1  18
ATOM      8  C   UNL     1      -0.750  -0.845   0.000  0.00  0.00    +0.000 A 
ATOM      9  N   UNL     1       0.520  -1.258   0.000  0.00  0.00    +0.000 NA
ATOM     10  O   UNL     1       0.689  -0.087   0.000  0.00  0.00    +0.000 OA
ATOM     11  C   UNL     1      -0.750  -1.670   0.000  0.00  0.00    +0.000 A 
ATOM     12  C   UNL     1      -1.464  -0.433   0.000  0.00  0.00    +0.000 A 
ATOM     13  C   UNL     1       0.035  -1.925   0.000  0.00  0.00    +0.000 C 
ATOM     14  C   UNL     1      -1.464  -2.083   0.000  0.00  0.00    +0.000 A 
ATOM     15  C   UNL     1      -2.179  -0.845   0.000  0.00  0.00    +0.000 A 
ATOM     16  O   UNL     1       0.290  -2.710   0.000  0.00  0.00    +0.000 OA
ATOM     17  C   UNL     1      -2.179  -1.670   0.000  0.00  0.00    +0.000 A 
ATOM     18  C   UNL     1       0.035  -0.590   0.000  0.00  0.00    +0.000 C 
ENDBRANCH   1  18
BRANCH   4  19
ATOM     19  S   UNL     1       1.464   1.885   0.000  0.00  0.00    +0.000 S 
ATOM     20  O   UNL     1       1.877   1.170   0.000  0.00  0.00    +0.000 OA
ATOM     21  N   UNL     1       2.179   2.297   0.000  0.00  0.00    +0.000 NA
ATOM     22  O   UNL     1       1.052   2.599   0.000  0.00  0.00    +0.000 OA
ENDBRANCH   4  19
TORSDOF 2
