REMARK  Name = 
REMARK  8 active torsions:
REMARK  status: ('A' for Active; 'I' for Inactive)
REMARK    1  A    between atoms: C_5  and  C_7
REMARK    2  A    between atoms: C_7  and  C_8
REMARK    3  A    between atoms: N_9  and  C_11
REMARK    4  A    between atoms: C_17  and  C_19
REMARK    5  A    between atoms: C_19  and  O_20
REMARK    6  A    between atoms: O_20  and  C_22
REMARK    7  A    between atoms: C_22  and  O_23
REMARK    8  A    between atoms: O_23  and  C_24
REMARK                            x       y       z     vdW  Elec       q    Type
REMARK                         _______ _______ _______ _____ _____    ______ ____
ROOT
ATOM      1  C   UNL     1       0.017   0.338   0.000  0.00  0.00    +0.000 C 
ATOM      2  C   UNL     1       0.842   0.338   0.000  0.00  0.00    +0.000 C 
ATOM      3  C   UNL     1       0.017  -0.487   0.000  0.00  0.00    +0.000 C 
ATOM      4  N   UNL     1       0.842  -0.487   0.000  0.00  0.00    +0.000 N 
ATOM      5  O   UNL     1      -0.567  -1.070   0.000  0.00  0.00    +0.000 OA
ATOM      6  S   UNL     1       1.626   0.593   0.000  0.00  0.00    +0.000 S 
ATOM      7  C   UNL     1       1.626  -0.742   0.000  0.00  0.00    +0.000 C 
ATOM      8  C   UNL     1       2.111  -0.074   0.000  0.00  0.00    +0.000 C 
ATOM      9  C   UNL     1       2.826   0.338   0.000  0.00  0.00    +0.000 C 
ATOM     10  C   UNL     1       2.826  -0.487   0.000  0.00  0.00    +0.000 C 
ENDROOT
BRANCH   1  12
ATOM     11  C   UNL     1      -1.413   0.352   0.000  0.00  0.00    +0.000 C 
ATOM     12  N   UNL     1      -0.695   0.758   0.000  0.00  0.00    +0.000 NA
ATOM     13  O   UNL     1      -1.421  -0.473   0.000  0.00  0.00    +0.000 OA
BRANCH  11  14
ATOM     14  C   UNL     1      -2.123   0.771   0.000  0.00  0.00    +0.000 C 
BRANCH  14  19
ATOM     15  C   UNL     1      -1.389   2.827   0.000  0.00  0.00    +0.000 A 
ATOM     16  C   UNL     1      -2.099   3.246   0.000  0.00  0.00    +0.000 A 
ATOM     17  C   UNL     1      -2.818   2.841   0.000  0.00  0.00    +0.000 A 
ATOM     18  C   UNL     1      -2.826   2.016   0.000  0.00  0.00    +0.000 A 
ATOM     19  C   UNL     1      -2.115   1.597   0.000  0.00  0.00    +0.000 A 
ATOM     20  C   UNL     1      -1.397   2.002   0.000  0.00  0.00    +0.000 A 
ENDBRANCH  14  19
ENDBRANCH  11  14
ENDBRANCH   1  12
BRANCH   7  21
ATOM     21  C   UNL     1       1.634  -1.567   0.000  0.00  0.00    +0.000 C 
ATOM     22  O   UNL     1       2.353  -1.972   0.000  0.00  0.00    +0.000 OA
BRANCH  21  23
ATOM     23  O   UNL     1       0.923  -1.987   0.000  0.00  0.00    +0.000 OA
BRANCH  23  24
ATOM     24  C   UNL     1       0.932  -2.812   0.000  0.00  0.00    +0.000 C 
BRANCH  24  25
ATOM     25  O   UNL     1       0.222  -3.232   0.000  0.00  0.00    +0.000 OA
BRANCH  25  26
ATOM     26  C   UNL     1      -0.497  -2.826   0.000  0.00  0.00    +0.000 C 
ATOM     27  O   UNL     1      -0.505  -2.002   0.000  0.00  0.00    +0.000 OA
ATOM     28  C   UNL     1      -1.207  -3.246   0.000  0.00  0.00    +0.000 C 
ENDBRANCH  25  26
ENDBRANCH  24  25
ENDBRANCH  23  24
ENDBRANCH  21  23
ENDBRANCH   7  21
TORSDOF 8
