REMARK  Name = 
REMARK  5 active torsions:
REMARK  status: ('A' for Active; 'I' for Inactive)
REMARK    1  A    between atoms: C_3  and  C_4
REMARK    2  A    between atoms: C_10  and  C_11
REMARK    3  A    between atoms: C_13  and  C_21
REMARK    4  A    between atoms: C_24  and  C_27
REMARK    5  A    between atoms: N_29  and  C_30
REMARK                            x       y       z     vdW  Elec       q    Type
REMARK                         _______ _______ _______ _____ _____    ______ ____
ROOT
ATOM      1  C   UNL     1      -0.143  -0.030   0.000  0.00  0.00    +0.000 A 
ATOM      2  N   UNL     1      -0.628  -0.698   0.000  0.00  0.00    +0.000 NA
ATOM      3  C   UNL     1      -0.143  -1.365   0.000  0.00  0.00    +0.000 A 
ATOM      4  C   UNL     1       0.641  -1.110   0.000  0.00  0.00    +0.000 A 
ATOM      5  N   UNL     1       0.641  -0.285   0.000  0.00  0.00    +0.000 N 
ATOM      6  C   UNL     1       1.356   0.127   0.000  0.00  0.00    +0.000 A 
ATOM      7  C   UNL     1       2.070  -0.285   0.000  0.00  0.00    +0.000 A 
ATOM      8  N   UNL     1       2.070  -1.110   0.000  0.00  0.00    +0.000 NA
ATOM      9  C   UNL     1       1.356  -1.523   0.000  0.00  0.00    +0.000 A 
ATOM     10  N   UNL     1       1.356  -2.348   0.000  0.00  0.00    +0.000 NA
ENDROOT
BRANCH   1  17
ATOM     11  C   UNL     1      -1.851   0.524   0.000  0.00  0.00    +0.000 C 
ATOM     12  O   UNL     1      -1.764  -0.296   0.000  0.00  0.00    +0.000 OA
ATOM     13  N   UNL     1      -1.183   1.009   0.000  0.00  0.00    +0.000 N 
ATOM     14  C   UNL     1      -1.183   1.834   0.000  0.00  0.00    +0.000 C 
ATOM     15  C   UNL     1      -0.398   2.089   0.000  0.00  0.00    +0.000 C 
ATOM     16  C   UNL     1       0.086   1.422   0.000  0.00  0.00    +0.000 C 
ATOM     17  C   UNL     1      -0.398   0.754   0.000  0.00  0.00    +0.000 C 
BRANCH  11  20
ATOM     18  C   UNL     1      -4.112   1.531   0.000  0.00  0.00    +0.000 C 
ATOM     19  C   UNL     1      -3.358   1.195   0.000  0.00  0.00    +0.000 C 
ATOM     20  C   UNL     1      -2.604   0.860   0.000  0.00  0.00    +0.000 C 
ENDBRANCH  11  20
ENDBRANCH   1  17
BRANCH   3  21
ATOM     21  C   UNL     1      -0.398  -2.150   0.000  0.00  0.00    +0.000 A 
ATOM     22  C   UNL     1       0.154  -2.763   0.000  0.00  0.00    +0.000 A 
ATOM     23  C   UNL     1      -0.101  -3.548   0.000  0.00  0.00    +0.000 A 
ATOM     24  C   UNL     1      -0.908  -3.719   0.000  0.00  0.00    +0.000 A 
ATOM     25  C   UNL     1      -1.460  -3.106   0.000  0.00  0.00    +0.000 A 
ATOM     26  C   UNL     1      -1.205  -2.321   0.000  0.00  0.00    +0.000 A 
BRANCH  24  27
ATOM     27  C   UNL     1      -1.163  -4.504   0.000  0.00  0.00    +0.000 C 
ATOM     28  O   UNL     1      -1.970  -4.675   0.000  0.00  0.00    +0.000 OA
ATOM     29  N   UNL     1      -0.611  -5.117   0.000  0.00  0.00    +0.000 NA
BRANCH  29  30
ATOM     30  C   UNL     1      -0.866  -5.902   0.000  0.00  0.00    +0.000 A 
ATOM     31  C   UNL     1      -0.314  -6.515   0.000  0.00  0.00    +0.000 A 
ATOM     32  C   UNL     1      -0.569  -7.299   0.000  0.00  0.00    +0.000 A 
ATOM     33  C   UNL     1      -1.376  -7.471   0.000  0.00  0.00    +0.000 A 
ATOM     34  C   UNL     1      -1.928  -6.858   0.000  0.00  0.00    +0.000 A 
ATOM     35  N   UNL     1      -1.673  -6.073   0.000  0.00  0.00    +0.000 NA
ENDBRANCH  29  30
ENDBRANCH  24  27
ENDBRANCH   3  21
TORSDOF 5
