REMARK  Name = 
REMARK  8 active torsions:
REMARK  status: ('A' for Active; 'I' for Inactive)
REMARK    1  A    between atoms: O_2  and  C_3
REMARK    2  A    between atoms: C_7  and  O_23
REMARK    3  A    between atoms: C_8  and  C_9
REMARK    4  A    between atoms: N_14  and  C_15
REMARK    5  A    between atoms: C_18  and  C_21
REMARK    6  A    between atoms: O_23  and  C_24
REMARK    7  A    between atoms: C_24  and  C_25
REMARK    8  A    between atoms: C_25  and  C_26
REMARK                            x       y       z     vdW  Elec       q    Type
REMARK                         _______ _______ _______ _____ _____    ______ ____
ROOT
ATOM      1  C   UNL     1      -0.412  -3.223   0.000  0.00  0.00    +0.000 A 
ATOM      2  C   UNL     1       0.255  -3.708   0.000  0.00  0.00    +0.000 A 
ATOM      3  C   UNL     1       0.000  -4.493   0.000  0.00  0.00    +0.000 A 
ATOM      4  N   UNL     1      -0.825  -4.493   0.000  0.00  0.00    +0.000 NA
ATOM      5  N   UNL     1      -1.080  -3.708   0.000  0.00  0.00    +0.000 NA
ATOM      6  N   UNL     1       0.485  -5.160   0.000  0.00  0.00    +0.000 NA
ENDROOT
BRANCH   6   7
ATOM      7  C   UNL     1       0.150  -5.914   0.000  0.00  0.00    +0.000 A 
ATOM      8  C   UNL     1       0.635  -6.581   0.000  0.00  0.00    +0.000 A 
ATOM      9  N   UNL     1       0.299  -7.335   0.000  0.00  0.00    +0.000 NA
ATOM     10  C   UNL     1      -0.521  -7.421   0.000  0.00  0.00    +0.000 A 
ATOM     11  C   UNL     1      -1.006  -6.754   0.000  0.00  0.00    +0.000 A 
ATOM     12  N   UNL     1      -0.671  -6.000   0.000  0.00  0.00    +0.000 NA
BRANCH  10  13
ATOM     13  C   UNL     1      -0.857  -8.175   0.000  0.00  0.00    +0.000 C 
ATOM     14  N   UNL     1      -1.193  -8.929   0.000  0.00  0.00    +0.000 NA
ENDBRANCH  10  13
ENDBRANCH   6   7
BRANCH   1  20
ATOM     15  C   UNL     1      -1.127  -1.986   0.000  0.00  0.00    +0.000 A 
ATOM     16  C   UNL     1      -1.127  -1.161   0.000  0.00  0.00    +0.000 A 
ATOM     17  C   UNL     1      -0.412  -0.748   0.000  0.00  0.00    +0.000 A 
ATOM     18  C   UNL     1       0.302  -1.161   0.000  0.00  0.00    +0.000 A 
ATOM     19  C   UNL     1       0.302  -1.986   0.000  0.00  0.00    +0.000 A 
ATOM     20  C   UNL     1      -0.412  -2.398   0.000  0.00  0.00    +0.000 A 
BRANCH  15  22
ATOM     21  C   UNL     1      -1.841  -3.223   0.000  0.00  0.00    +0.000 C 
ATOM     22  O   UNL     1      -1.841  -2.398   0.000  0.00  0.00    +0.000 OA
ENDBRANCH  15  22
BRANCH  19  23
ATOM     23  O   UNL     1       1.017  -2.398   0.000  0.00  0.00    +0.000 OA
BRANCH  23  24
ATOM     24  C   UNL     1       1.017  -3.223   0.000  0.00  0.00    +0.000 C 
BRANCH  24  25
ATOM     25  C   UNL     1       1.731  -3.636   0.000  0.00  0.00    +0.000 C 
BRANCH  25  26
ATOM     26  C   UNL     1       2.446  -3.223   0.000  0.00  0.00    +0.000 C 
ATOM     27  N   UNL     1       2.446  -2.398   0.000  0.00  0.00    +0.000 NA
ENDBRANCH  25  26
ENDBRANCH  24  25
ENDBRANCH  23  24
ENDBRANCH  19  23
ENDBRANCH   1  20
TORSDOF 8
