REMARK  Name = 
REMARK  0 active torsions:
REMARK  status: ('A' for Active; 'I' for Inactive)
REMARK                            x       y       z     vdW  Elec       q    Type
REMARK                         _______ _______ _______ _____ _____    ______ ____
ROOT
ATOM      1  O   UNL     1       2.858   1.794   0.000  0.00  0.00    +0.000 OA
ATOM      2  C   UNL     1       2.143   1.381   0.000  0.00  0.00    +0.000 A 
ATOM      3  C   UNL     1       1.429   0.143   0.000  0.00  0.00    +0.000 A 
ATOM      4  C   UNL     1       2.143   0.556   0.000  0.00  0.00    +0.000 A 
ATOM      5  C   UNL     1       0.000   0.143   0.000  0.00  0.00    +0.000 C 
ATOM      6  C   UNL     1       0.715   0.556   0.000  0.00  0.00    +0.000 A 
ATOM      7  C   UNL     1      -0.715   0.556   0.000  0.00  0.00    +0.000 A 
ATOM      8  C   UNL     1       0.715   1.381   0.000  0.00  0.00    +0.000 A 
ATOM      9  C   UNL     1      -0.715   1.381   0.000  0.00  0.00    +0.000 A 
ATOM     10  C   UNL     1      -1.429   0.143   0.000  0.00  0.00    +0.000 A 
ATOM     11  C   UNL     1       1.429   1.794   0.000  0.00  0.00    +0.000 A 
ATOM     12  O   UNL     1       0.000   1.794   0.000  0.00  0.00    +0.000 OA
ATOM     13  C   UNL     1      -1.429   1.794   0.000  0.00  0.00    +0.000 A 
ATOM     14  C   UNL     1      -2.143   0.556   0.000  0.00  0.00    +0.000 A 
ATOM     15  C   UNL     1      -2.143   1.381   0.000  0.00  0.00    +0.000 A 
ATOM     16  O   UNL     1      -2.858   1.794   0.000  0.00  0.00    +0.000 OA
ATOM     17  C   UNL     1       0.412  -1.126   0.000  0.00  0.00    +0.000 C 
ATOM     18  O   UNL     1       0.667  -0.341   0.000  0.00  0.00    +0.000 OA
ATOM     19  C   UNL     1      -0.412  -1.126   0.000  0.00  0.00    +0.000 A 
ATOM     20  C   UNL     1      -0.667  -0.341   0.000  0.00  0.00    +0.000 A 
ATOM     21  C   UNL     1      -1.474  -0.170   0.000  0.00  0.00    +0.000 A 
ATOM     22  C   UNL     1      -2.026  -0.783   0.000  0.00  0.00    +0.000 A 
ATOM     23  C   UNL     1      -0.965  -1.739   0.000  0.00  0.00    +0.000 A 
ATOM     24  O   UNL     1       0.897  -1.794   0.000  0.00  0.00    +0.000 OA
ATOM     25  C   UNL     1      -1.772  -1.568   0.000  0.00  0.00    +0.000 A 
ENDROOT
TORSDOF 0
