REMARK  Name = 
REMARK  11 active torsions:
REMARK  status: ('A' for Active; 'I' for Inactive)
REMARK    1  A    between atoms: C_2  and  O_4
REMARK    2  A    between atoms: O_4  and  C_5
REMARK    3  A    between atoms: C_5  and  C_7
REMARK    4  A    between atoms: C_7  and  C_8
REMARK    5  A    between atoms: C_8  and  C_9
REMARK    6  A    between atoms: C_9  and  C_10
REMARK    7  A    between atoms: C_17  and  C_18
REMARK    8  A    between atoms: C_19  and  C_20
REMARK    9  A    between atoms: C_20  and  C_21
REMARK   10  A    between atoms: C_21  and  O_22
REMARK   11  A    between atoms: O_22  and  C_23
REMARK                            x       y       z     vdW  Elec       q    Type
REMARK                         _______ _______ _______ _____ _____    ______ ____
ROOT
ATOM      1  C   UNL     1       4.876  -4.462   0.000  0.00  0.00    +0.000 C 
ATOM      2  C   UNL     1       5.558  -3.997   0.000  0.00  0.00    +0.000 C 
ATOM      3  C   UNL     1       6.346  -4.240   0.000  0.00  0.00    +0.000 C 
ATOM      4  C   UNL     1       6.648  -5.008   0.000  0.00  0.00    +0.000 C 
ATOM      5  C   UNL     1       6.235  -5.723   0.000  0.00  0.00    +0.000 C 
ATOM      6  C   UNL     1       6.787  -6.336   0.000  0.00  0.00    +0.000 C 
ATOM      7  C   UNL     1       7.541  -6.000   0.000  0.00  0.00    +0.000 C 
ATOM      8  C   UNL     1       7.455  -5.180   0.000  0.00  0.00    +0.000 C 
ATOM      9  O   UNL     1       8.255  -6.413   0.000  0.00  0.00    +0.000 OA
ATOM     10  O   UNL     1       5.419  -5.846   0.000  0.00  0.00    +0.000 OA
ATOM     11  C   UNL     1       4.814  -5.285   0.000  0.00  0.00    +0.000 C 
ENDROOT
BRANCH   8  12
ATOM     12  C   UNL     1       8.068  -4.628   0.000  0.00  0.00    +0.000 C 
ATOM     13  C   UNL     1       8.852  -4.883   0.000  0.00  0.00    +0.000 C 
BRANCH  13  14
ATOM     14  C   UNL     1       9.465  -4.331   0.000  0.00  0.00    +0.000 C 
ATOM     15  O   UNL     1       9.294  -3.524   0.000  0.00  0.00    +0.000 OA
BRANCH  14  16
ATOM     16  C   UNL     1      10.250  -4.586   0.000  0.00  0.00    +0.000 C 
BRANCH  16  17
ATOM     17  O   UNL     1      10.863  -4.034   0.000  0.00  0.00    +0.000 OA
BRANCH  17  18
ATOM     18  C   UNL     1      11.648  -4.289   0.000  0.00  0.00    +0.000 A 
ATOM     19  C   UNL     1      12.261  -3.737   0.000  0.00  0.00    +0.000 A 
ATOM     20  C   UNL     1      13.045  -3.992   0.000  0.00  0.00    +0.000 A 
ATOM     21  C   UNL     1      13.217  -4.799   0.000  0.00  0.00    +0.000 A 
ATOM     22  C   UNL     1      12.604  -5.351   0.000  0.00  0.00    +0.000 A 
ATOM     23  C   UNL     1      11.819  -5.096   0.000  0.00  0.00    +0.000 A 
ATOM     24  F   UNL     1      11.206  -5.648   0.000  0.00  0.00    +0.000 F 
ATOM     25  F   UNL     1      13.659  -3.440   0.000  0.00  0.00    +0.000 F 
ENDBRANCH  17  18
ENDBRANCH  16  17
ENDBRANCH  14  16
ENDBRANCH  13  14
ENDBRANCH   8  12
BRANCH   1  26
ATOM     26  C   UNL     1       4.162  -4.050   0.000  0.00  0.00    +0.000 C 
BRANCH  26  27
ATOM     27  C   UNL     1       3.447  -4.462   0.000  0.00  0.00    +0.000 C 
BRANCH  27  28
ATOM     28  C   UNL     1       2.733  -4.050   0.000  0.00  0.00    +0.000 C 
BRANCH  28  29
ATOM     29  C   UNL     1       2.018  -4.462   0.000  0.00  0.00    +0.000 C 
ATOM     30  O   UNL     1       2.018  -5.287   0.000  0.00  0.00    +0.000 OA
BRANCH  29  31
ATOM     31  O   UNL     1       1.304  -4.050   0.000  0.00  0.00    +0.000 OA
BRANCH  31  33
ATOM     32  C   UNL     1      -0.125  -4.050   0.000  0.00  0.00    +0.000 C 
ATOM     33  C   UNL     1       0.589  -4.462   0.000  0.00  0.00    +0.000 C 
ATOM     34  C   UNL     1       0.589  -5.287   0.000  0.00  0.00    +0.000 C 
ENDBRANCH  31  33
ENDBRANCH  29  31
ENDBRANCH  28  29
ENDBRANCH  27  28
ENDBRANCH  26  27
ENDBRANCH   1  26
TORSDOF 11
