REMARK  Name = 
REMARK  4 active torsions:
REMARK  status: ('A' for Active; 'I' for Inactive)
REMARK    1  A    between atoms: C_4  and  C_7
REMARK    2  A    between atoms: C_7  and  C_8
REMARK    3  A    between atoms: C_7  and  C_15
REMARK    4  A    between atoms: C_7  and  C_22
REMARK                            x       y       z     vdW  Elec       q    Type
REMARK                         _______ _______ _______ _____ _____    ______ ____
ROOT
ATOM      1  C   UNL     1      -0.935   0.412   0.000  0.00  0.00    +0.000 C 
ENDROOT
BRANCH   1   2
ATOM      2  C   UNL     1      -0.111   0.412   0.000  0.00  0.00    +0.000 A 
ATOM      3  C   UNL     1       0.302   1.127   0.000  0.00  0.00    +0.000 A 
ATOM      4  C   UNL     1       1.127   1.127   0.000  0.00  0.00    +0.000 A 
ATOM      5  C   UNL     1       1.540   0.412   0.000  0.00  0.00    +0.000 A 
ATOM      6  C   UNL     1       1.127  -0.302   0.000  0.00  0.00    +0.000 A 
ATOM      7  C   UNL     1       0.302  -0.302   0.000  0.00  0.00    +0.000 A 
ATOM      8  F   UNL     1       2.365   0.412   0.000  0.00  0.00    +0.000 F 
ENDBRANCH   1   2
BRANCH   1   9
ATOM      9  C   UNL     1      -1.760   0.412   0.000  0.00  0.00    +0.000 A 
ATOM     10  C   UNL     1      -2.173  -0.302   0.000  0.00  0.00    +0.000 A 
ATOM     11  C   UNL     1      -2.998  -0.302   0.000  0.00  0.00    +0.000 A 
ATOM     12  C   UNL     1      -3.410   0.412   0.000  0.00  0.00    +0.000 A 
ATOM     13  C   UNL     1      -2.998   1.127   0.000  0.00  0.00    +0.000 A 
ATOM     14  C   UNL     1      -2.173   1.127   0.000  0.00  0.00    +0.000 A 
ATOM     15  F   UNL     1      -4.236   0.412   0.000  0.00  0.00    +0.000 F 
ENDBRANCH   1   9
BRANCH   1  19
ATOM     16  C   UNL     1      -0.935  -2.062   0.000  0.00  0.00    +0.000 A 
ATOM     17  C   UNL     1      -1.650  -1.650   0.000  0.00  0.00    +0.000 A 
ATOM     18  C   UNL     1      -1.650  -0.825   0.000  0.00  0.00    +0.000 A 
ATOM     19  C   UNL     1      -0.935  -0.412   0.000  0.00  0.00    +0.000 A 
ATOM     20  C   UNL     1      -0.221  -0.825   0.000  0.00  0.00    +0.000 A 
ATOM     21  C   UNL     1      -0.221  -1.650   0.000  0.00  0.00    +0.000 A 
ENDBRANCH   1  19
BRANCH   1  22
ATOM     22  C   UNL     1      -0.935   1.238   0.000  0.00  0.00    +0.000 C 
ATOM     23  O   UNL     1      -0.221   1.650   0.000  0.00  0.00    +0.000 OA
ATOM     24  N   UNL     1      -1.650   1.650   0.000  0.00  0.00    +0.000 NA
ENDBRANCH   1  22
TORSDOF 4
