REMARK  Name = 
REMARK  6 active torsions:
REMARK  status: ('A' for Active; 'I' for Inactive)
REMARK    1  A    between atoms: C_2  and  C_3
REMARK    2  A    between atoms: C_3  and  C_4
REMARK    3  A    between atoms: C_4  and  C_6
REMARK    4  A    between atoms: C_6  and  C_7
REMARK    5  A    between atoms: C_7  and  C_8
REMARK    6  A    between atoms: C_8  and  C_9
REMARK                            x       y       z     vdW  Elec       q    Type
REMARK                         _______ _______ _______ _____ _____    ______ ____
ROOT
ATOM      1  C   UNL     1       5.856   2.556   0.000  0.00  0.00    +0.000 C 
ENDROOT
BRANCH   1   2
ATOM      2  C   UNL     1       5.141   2.143   0.000  0.00  0.00    +0.000 C 
ATOM      3  C   UNL     1       5.141   1.318   0.000  0.00  0.00    +0.000 C 
BRANCH   2   4
ATOM      4  C   UNL     1       4.427   2.556   0.000  0.00  0.00    +0.000 C 
BRANCH   4   6
ATOM      5  C   UNL     1       2.998   2.556   0.000  0.00  0.00    +0.000 C 
ATOM      6  C   UNL     1       3.712   2.143   0.000  0.00  0.00    +0.000 C 
ENDBRANCH   4   6
ENDBRANCH   2   4
ENDBRANCH   1   2
BRANCH   1   7
ATOM      7  C   UNL     1       6.570   2.143   0.000  0.00  0.00    +0.000 C 
ATOM      8  N   UNL     1       6.570   1.318   0.000  0.00  0.00    +0.000 NA
BRANCH   7   9
ATOM      9  C   UNL     1       7.285   2.556   0.000  0.00  0.00    +0.000 C 
BRANCH   9  10
ATOM     10  C   UNL     1       7.999   2.143   0.000  0.00  0.00    +0.000 C 
ATOM     11  O   UNL     1       8.714   2.556   0.000  0.00  0.00    +0.000 OA
ATOM     12  O   UNL     1       7.999   1.318   0.000  0.00  0.00    +0.000 OA
ENDBRANCH   9  10
ENDBRANCH   7   9
ENDBRANCH   1   7
TORSDOF 6
