REMARK  Name = 
REMARK  13 active torsions:
REMARK  status: ('A' for Active; 'I' for Inactive)
REMARK    1  A    between atoms: SG_2  and  CB_18
REMARK    2  A    between atoms: SG_2  and  C_22
REMARK    3  A    between atoms: N_11  and  CA_15
REMARK    4  A    between atoms: N_12  and  CA_24
REMARK    5  A    between atoms: N_14  and  C_22
REMARK    6  A    between atoms: N_14  and  C_25
REMARK    7  A    between atoms: CA_15  and  CB_18
REMARK    8  A    between atoms: CA_15  and  C_21
REMARK    9  A    between atoms: C_16  and  C_17
REMARK   10  A    between atoms: C_16  and  CA_19
REMARK   11  A    between atoms: C_17  and  C_20
REMARK   12  A    between atoms: CA_19  and  C_23
REMARK   13  A    between atoms: CA_24  and  C_28
REMARK                            x       y       z     vdW  Elec       q    Type
REMARK                         _______ _______ _______ _____ _____    ______ ____
ROOT
ATOM      1  CA  UNL     1      -0.357   0.569   0.000  0.00  0.00    +0.000 C 
ENDROOT
BRANCH   1   3
ATOM      2  O   UNL     1      -0.357   2.219   0.000  0.00  0.00    +0.000 OA
ATOM      3  N   UNL     1      -1.072   0.982   0.000  0.00  0.00    +0.000 NA
ATOM      4  C   UNL     1      -1.072   1.807   0.000  0.00  0.00    +0.000 C 
BRANCH   4   5
ATOM      5  C   UNL     1      -1.786   2.219   0.000  0.00  0.00    +0.000 C 
BRANCH   5   6
ATOM      6  C   UNL     1      -1.786   3.044   0.000  0.00  0.00    +0.000 C 
BRANCH   6   8
ATOM      7  N   UNL     1      -3.215   3.044   0.000  0.00  0.00    +0.000 NA
ATOM      8  CA  UNL     1      -2.501   3.457   0.000  0.00  0.00    +0.000 C 
BRANCH   8  11
ATOM      9  O   UNL     1      -3.215   4.694   0.000  0.00  0.00    +0.000 OA
ATOM     10  OXT UNL     1      -1.786   4.694   0.000  0.00  0.00    +0.000 OA
ATOM     11  C   UNL     1      -2.501   4.282   0.000  0.00  0.00    +0.000 C 
ENDBRANCH   8  11
ENDBRANCH   6   8
ENDBRANCH   5   6
ENDBRANCH   4   5
ENDBRANCH   1   3
BRANCH   1  14
ATOM     12  O   UNL     1       0.357   1.807   0.000  0.00  0.00    +0.000 OA
ATOM     13  N   UNL     1       1.072   0.569   0.000  0.00  0.00    +0.000 NA
ATOM     14  C   ACE A   1       0.357   0.982   0.000  0.00  0.00    +0.000 C 
BRANCH  13  15
ATOM     15  CA  UNL     1       1.786   0.982   0.000  0.00  0.00    +0.000 C 
BRANCH  15  18
ATOM     16  O   UNL     1       3.215   0.982   0.000  0.00  0.00    +0.000 OA
ATOM     17  OXT UNL     1       2.501  -0.256   0.000  0.00  0.00    +0.000 OA
ATOM     18  C   UNL     1       2.501   0.569   0.000  0.00  0.00    +0.000 C 
ENDBRANCH  15  18
ENDBRANCH  13  15
ENDBRANCH   1  14
BRANCH   1  19
ATOM     19  CB  UNL     1      -0.357  -0.256   0.000  0.00  0.00    +0.000 C 
BRANCH  19  20
ATOM     20  SG  UNL     1      -1.072  -0.668   0.000  0.00  0.00    +0.000 S 
BRANCH  20  22
ATOM     21  O   UNL     1      -0.357  -1.906   0.000  0.00  0.00    +0.000 OA
ATOM     22  C   UNL     1      -1.072  -1.493   0.000  0.00  0.00    +0.000 C 
BRANCH  22  24
ATOM     23  O   UNL     1      -2.501  -1.493   0.000  0.00  0.00    +0.000 OA
ATOM     24  N   UNL     1      -1.786  -1.906   0.000  0.00  0.00    +0.000 N 
BRANCH  24  26
ATOM     25 BR   UNL     1      -1.786  -5.206   0.000  0.00  0.00    +0.000 Br
ATOM     26  C   UNL     1      -1.786  -2.731   0.000  0.00  0.00    +0.000 A 
ATOM     27  C   UNL     1      -1.072  -3.143   0.000  0.00  0.00    +0.000 A 
ATOM     28  C   UNL     1      -2.501  -3.143   0.000  0.00  0.00    +0.000 A 
ATOM     29  C   UNL     1      -1.072  -3.968   0.000  0.00  0.00    +0.000 A 
ATOM     30  C   UNL     1      -2.501  -3.968   0.000  0.00  0.00    +0.000 A 
ATOM     31  C   UNL     1      -1.786  -4.381   0.000  0.00  0.00    +0.000 A 
ENDBRANCH  24  26
ENDBRANCH  22  24
ENDBRANCH  20  22
ENDBRANCH  19  20
ENDBRANCH   1  19
TORSDOF 13
