REMARK  Name = 
REMARK  7 active torsions:
REMARK  status: ('A' for Active; 'I' for Inactive)
REMARK    1  A    between atoms: N_2  and  C_4
REMARK    2  A    between atoms: C_8  and  C_10
REMARK    3  A    between atoms: C_16  and  C_29
REMARK    4  A    between atoms: C_16  and  O_33
REMARK    5  A    between atoms: C_29  and  C_31
REMARK    6  A    between atoms: C_31  and  O_32
REMARK    7  A    between atoms: O_33  and  C_34
REMARK                            x       y       z     vdW  Elec       q    Type
REMARK                         _______ _______ _______ _____ _____    ______ ____
ROOT
ATOM      1  C   UNL     1      -0.629   0.000   0.000  0.00  0.00    +0.000 C 
ATOM      2  C   UNL     1       0.086   0.412   0.000  0.00  0.00    +0.000 C 
ATOM      3  C   UNL     1      -0.629  -0.825   0.000  0.00  0.00    +0.000 C 
ATOM      4  C   UNL     1       0.086  -1.238   0.000  0.00  0.00    +0.000 C 
ATOM      5  C   UNL     1       0.771  -0.795   0.000  0.00  0.00    +0.000 C 
ATOM      6  C   UNL     1       0.771   0.029   0.000  0.00  0.00    +0.000 C 
ATOM      7  C   UNL     1       1.555   0.284   0.000  0.00  0.00    +0.000 C 
ATOM      8  C   UNL     1       1.555  -1.050   0.000  0.00  0.00    +0.000 C 
ATOM      9  C   UNL     1       2.040  -0.383   0.000  0.00  0.00    +0.000 C 
ATOM     10  C   UNL     1      -1.373  -1.238   0.000  0.00  0.00    +0.000 C 
ATOM     11  C   UNL     1      -1.373  -2.062   0.000  0.00  0.00    +0.000 C 
ATOM     12  C   UNL     1      -0.629  -2.475   0.000  0.00  0.00    +0.000 C 
ATOM     13  C   UNL     1       0.086  -2.062   0.000  0.00  0.00    +0.000 C 
ATOM     14  C   UNL     1      -2.087  -0.825   0.000  0.00  0.00    +0.000 C 
ATOM     15  C   UNL     1      -2.802  -1.238   0.000  0.00  0.00    +0.000 C 
ATOM     16  C   UNL     1      -2.802  -2.062   0.000  0.00  0.00    +0.000 C 
ATOM     17  C   UNL     1      -2.087  -2.475   0.000  0.00  0.00    +0.000 C 
ATOM     18  O   UNL     1      -3.516  -2.475   0.000  0.00  0.00    +0.000 OA
ATOM     19  C   UNL     1       0.771   0.854   0.000  0.00  0.00    +0.000 C 
ENDROOT
BRANCH   1  24
ATOM     20  C   UNL     1      -2.772   1.238   0.000  0.00  0.00    +0.000 A 
ATOM     21  C   UNL     1      -2.058   1.650   0.000  0.00  0.00    +0.000 A 
ATOM     22  C   UNL     1      -2.772   0.412   0.000  0.00  0.00    +0.000 A 
ATOM     23  C   UNL     1      -2.058   0.000   0.000  0.00  0.00    +0.000 A 
ATOM     24  C   UNL     1      -1.343   0.412   0.000  0.00  0.00    +0.000 A 
ATOM     25  C   UNL     1      -1.343   1.238   0.000  0.00  0.00    +0.000 A 
BRANCH  20  27
ATOM     26  C   UNL     1      -3.487   2.475   0.000  0.00  0.00    +0.000 C 
ATOM     27  N   UNL     1      -3.487   1.650   0.000  0.00  0.00    +0.000 N 
ATOM     28  C   UNL     1      -4.201   1.238   0.000  0.00  0.00    +0.000 C 
ENDBRANCH  20  27
ENDBRANCH   1  24
BRANCH   7  29
ATOM     29  C   UNL     1       1.968   0.999   0.000  0.00  0.00    +0.000 C 
ATOM     30  O   UNL     1       1.555   1.713   0.000  0.00  0.00    +0.000 OA
BRANCH  29  31
ATOM     31  C   UNL     1       2.793   0.999   0.000  0.00  0.00    +0.000 C 
BRANCH  31  32
ATOM     32  O   UNL     1       3.376   1.582   0.000  0.00  0.00    +0.000 OA
ATOM     33  C   UNL     1       4.201   1.582   0.000  0.00  0.00    +0.000 C 
ENDBRANCH  31  32
ENDBRANCH  29  31
ENDBRANCH   7  29
BRANCH   7  34
ATOM     34  O   UNL     1       2.380   0.284   0.000  0.00  0.00    +0.000 OA
BRANCH  34  35
ATOM     35  C   UNL     1       3.095  -0.128   0.000  0.00  0.00    +0.000 C 
ATOM     36  C   UNL     1       3.920  -0.128   0.000  0.00  0.00    +0.000 C 
ATOM     37  O   UNL     1       3.095  -0.953   0.000  0.00  0.00    +0.000 OA
ENDBRANCH  34  35
ENDBRANCH   7  34
TORSDOF 7
