REMARK  Name = 
REMARK  6 active torsions:
REMARK  status: ('A' for Active; 'I' for Inactive)
REMARK    1  A    between atoms: C_13  and  C_17
REMARK    2  A    between atoms: C_14  and  C_18
REMARK    3  A    between atoms: C_15  and  C_27
REMARK    4  A    between atoms: C_15  and  S_37
REMARK    5  A    between atoms: C_16  and  C_28
REMARK    6  A    between atoms: C_16  and  S_38
REMARK                            x       y       z     vdW  Elec       q    Type
REMARK                         _______ _______ _______ _____ _____    ______ ____
ROOT
ATOM      1  C   UNL     1       0.843  -0.560   0.000  0.00  0.00    +0.000 A 
ATOM      2  C   UNL     1      -0.578  -0.410   0.000  0.00  0.00    +0.000 A 
ATOM      3  C   UNL     1       0.929   0.260   0.000  0.00  0.00    +0.000 A 
ATOM      4  C   UNL     1      -0.491   0.410   0.000  0.00  0.00    +0.000 A 
ATOM      5  C   UNL     1       0.089  -0.895   0.000  0.00  0.00    +0.000 A 
ATOM      6  C   UNL     1       0.262   0.745   0.000  0.00  0.00    +0.000 A 
ENDROOT
BRANCH   5  11
ATOM      7  C   UNL     1       1.727  -3.574   0.000  0.00  0.00    +0.000 C 
ATOM      8  C   UNL     1       1.884  -1.881   0.000  0.00  0.00    +0.000 C 
ATOM      9  C   UNL     1       2.091  -2.351   0.000  0.00  0.00    +0.000 C 
ATOM     10  C   UNL     1       2.005  -3.171   0.000  0.00  0.00    +0.000 C 
ATOM     11  C   UNL     1      -0.049  -1.733   0.000  0.00  0.00    +0.000 C 
ATOM     12  C   UNL     1       0.670  -2.201   0.000  0.00  0.00    +0.000 C 
ATOM     13  C   UNL     1       1.424  -1.866   0.000  0.00  0.00    +0.000 C 
ATOM     14  C   UNL     1       0.584  -3.021   0.000  0.00  0.00    +0.000 C 
ATOM     15  C   UNL     1       1.132  -2.664   0.000  0.00  0.00    +0.000 C 
ATOM     16  C   UNL     1       1.251  -3.506   0.000  0.00  0.00    +0.000 C 
ATOM     17  O   UNL     1      -0.196  -3.374   0.000  0.00  0.00    +0.000 OA
BRANCH  16  18
ATOM     18  C   UNL     1       1.108  -4.380   0.000  0.00  0.00    +0.000 C 
BRANCH  18  22
ATOM     19  O   UNL     1       2.056  -5.793   0.000  0.00  0.00    +0.000 OA
ATOM     20  O   UNL     1       2.281  -4.648   0.000  0.00  0.00    +0.000 OA
ATOM     21  O   UNL     1       0.911  -5.568   0.000  0.00  0.00    +0.000 OA
ATOM     22  S   UNL     1       1.596  -5.108   0.000  0.00  0.00    +0.000 S 
ENDBRANCH  18  22
ENDBRANCH  16  18
ENDBRANCH   5  11
BRANCH   6  27
ATOM     23  C   UNL     1      -1.637   1.557   0.000  0.00  0.00    +0.000 C 
ATOM     24  C   UNL     1      -1.630   3.222   0.000  0.00  0.00    +0.000 C 
ATOM     25  C   UNL     1      -1.881   1.983   0.000  0.00  0.00    +0.000 C 
ATOM     26  C   UNL     1      -1.881   2.808   0.000  0.00  0.00    +0.000 C 
ATOM     27  C   UNL     1       0.321   1.593   0.000  0.00  0.00    +0.000 C 
ATOM     28  C   UNL     1      -0.452   1.983   0.000  0.00  0.00    +0.000 C 
ATOM     29  C   UNL     1      -1.167   1.570   0.000  0.00  0.00    +0.000 C 
ATOM     30  C   UNL     1      -0.452   2.808   0.000  0.00  0.00    +0.000 C 
ATOM     31  C   UNL     1      -0.960   2.395   0.000  0.00  0.00    +0.000 C 
ATOM     32  C   UNL     1      -1.167   3.220   0.000  0.00  0.00    +0.000 C 
ATOM     33  O   UNL     1       0.346   3.153   0.000  0.00  0.00    +0.000 OA
BRANCH  32  34
ATOM     34  C   UNL     1      -1.036   4.121   0.000  0.00  0.00    +0.000 C 
BRANCH  34  38
ATOM     35  O   UNL     1      -1.748   5.793   0.000  0.00  0.00    +0.000 OA
ATOM     36  O   UNL     1      -0.669   5.439   0.000  0.00  0.00    +0.000 OA
ATOM     37  O   UNL     1      -2.281   4.899   0.000  0.00  0.00    +0.000 OA
ATOM     38  S   UNL     1      -1.412   4.969   0.000  0.00  0.00    +0.000 S 
ENDBRANCH  34  38
ENDBRANCH  32  34
ENDBRANCH   6  27
TORSDOF 6
