REMARK  Name = 
REMARK  8 active torsions:
REMARK  status: ('A' for Active; 'I' for Inactive)
REMARK    1  A    between atoms: P_1  and  O_7
REMARK    2  A    between atoms: P_1  and  O_12
REMARK    3  A    between atoms: P_2  and  O_8
REMARK    4  A    between atoms: P_2  and  O_12
REMARK    5  A    between atoms: O_7  and  C_25
REMARK    6  A    between atoms: O_8  and  C_29
REMARK    7  A    between atoms: N_18  and  C_24
REMARK    8  A    between atoms: C_23  and  C_25
REMARK                            x       y       z     vdW  Elec       q    Type
REMARK                         _______ _______ _______ _____ _____    ______ ____
ROOT
ATOM      1  P   UNL     1      -0.137   0.632   0.000  0.00  0.00    +0.000 P 
ATOM      2  O   UNL     1       0.688   0.632   0.000  0.00  0.00    +0.000 OA
ATOM      3  O   UNL     1      -0.962   0.632   0.000  0.00  0.00    +0.000 OA
ENDROOT
BRANCH   1   4
ATOM      4  O   UNL     1      -0.137   1.457   0.000  0.00  0.00    +0.000 OA
BRANCH   4   5
ATOM      5  P   UNL     1      -0.852   1.869   0.000  0.00  0.00    +0.000 P 
ATOM      6  O   UNL     1      -1.264   1.155   0.000  0.00  0.00    +0.000 OA
ATOM      7  O   UNL     1      -0.439   2.584   0.000  0.00  0.00    +0.000 OA
BRANCH   5   8
ATOM      8  O   UNL     1      -1.566   2.282   0.000  0.00  0.00    +0.000 OA
BRANCH   8  16
ATOM      9  O   UNL     1      -0.852   3.519   0.000  0.00  0.00    +0.000 OA
ATOM     10  O   UNL     1      -2.995   4.757   0.000  0.00  0.00    +0.000 OA
ATOM     11  O   UNL     1      -2.995   3.107   0.000  0.00  0.00    +0.000 OA
ATOM     12  O   UNL     1      -1.566   5.582   0.000  0.00  0.00    +0.000 OA
ATOM     13  C   UNL     1      -2.281   4.344   0.000  0.00  0.00    +0.000 C 
ATOM     14  C   UNL     1      -2.281   3.519   0.000  0.00  0.00    +0.000 C 
ATOM     15  C   UNL     1      -1.566   4.757   0.000  0.00  0.00    +0.000 C 
ATOM     16  C   UNL     1      -1.566   3.107   0.000  0.00  0.00    +0.000 C 
ATOM     17  C   UNL     1      -0.852   4.344   0.000  0.00  0.00    +0.000 C 
ENDBRANCH   8  16
ENDBRANCH   5   8
ENDBRANCH   4   5
ENDBRANCH   1   4
BRANCH   1  18
ATOM     18  O   UNL     1      -0.137  -0.193   0.000  0.00  0.00    +0.000 OA
BRANCH  18  19
ATOM     19  C   UNL     1       0.577  -0.606   0.000  0.00  0.00    +0.000 C 
BRANCH  19  25
ATOM     20  O   UNL     1       1.245  -1.916   0.000  0.00  0.00    +0.000 OA
ATOM     21  O   UNL     1      -0.875  -1.661   0.000  0.00  0.00    +0.000 OA
ATOM     22  O   UNL     1      -0.320  -3.368   0.000  0.00  0.00    +0.000 OA
ATOM     23  C   UNL     1      -0.090  -1.916   0.000  0.00  0.00    +0.000 C 
ATOM     24  C   UNL     1       0.165  -2.700   0.000  0.00  0.00    +0.000 C 
ATOM     25  C   UNL     1       0.577  -1.431   0.000  0.00  0.00    +0.000 C 
ATOM     26  C   UNL     1       0.990  -2.700   0.000  0.00  0.00    +0.000 C 
BRANCH  26  28
ATOM     27  O   UNL     1       0.319  -4.208   0.000  0.00  0.00    +0.000 OA
ATOM     28  N   UNL     1       1.475  -3.368   0.000  0.00  0.00    +0.000 N 
ATOM     29  N   UNL     1       1.624  -4.789   0.000  0.00  0.00    +0.000 NA
ATOM     30  N   UNL     1       2.929  -5.370   0.000  0.00  0.00    +0.000 NA
ATOM     31  C   UNL     1       2.295  -3.282   0.000  0.00  0.00    +0.000 A 
ATOM     32  C   UNL     1       1.139  -4.122   0.000  0.00  0.00    +0.000 A 
ATOM     33  C   UNL     1       2.780  -3.949   0.000  0.00  0.00    +0.000 A 
ATOM     34  C   UNL     1       2.444  -4.703   0.000  0.00  0.00    +0.000 A 
ENDBRANCH  26  28
ENDBRANCH  19  25
ENDBRANCH  18  19
ENDBRANCH   1  18
TORSDOF 8
