REMARK  Name = 
REMARK  0 active torsions:
REMARK  status: ('A' for Active; 'I' for Inactive)
REMARK                            x       y       z     vdW  Elec       q    Type
REMARK                         _______ _______ _______ _____ _____    ______ ____
ROOT
ATOM      1  C   UNL     1      -1.072   0.412   0.000  0.00  0.00    +0.000 A 
ATOM      2  C   UNL     1      -1.072  -0.412   0.000  0.00  0.00    +0.000 A 
ATOM      3  C   UNL     1      -0.357  -0.825   0.000  0.00  0.00    +0.000 A 
ATOM      4  C   UNL     1       0.357  -0.412   0.000  0.00  0.00    +0.000 A 
ATOM      5  C   UNL     1       0.357   0.412   0.000  0.00  0.00    +0.000 A 
ATOM      6  C   UNL     1      -0.357   0.825   0.000  0.00  0.00    +0.000 A 
ATOM      7  C   UNL     1       1.072  -0.825   0.000  0.00  0.00    +0.000 A 
ATOM      8  C   UNL     1       1.786  -0.412   0.000  0.00  0.00    +0.000 A 
ATOM      9  C   UNL     1       1.786   0.412   0.000  0.00  0.00    +0.000 A 
ATOM     10  N   UNL     1       1.072   0.825   0.000  0.00  0.00    +0.000 NA
ATOM     11  O   UNL     1      -0.357   1.650   0.000  0.00  0.00    +0.000 OA
ATOM     12  I   UNL     1      -1.786   0.825   0.000  0.00  0.00    +0.000 I 
ATOM     13  I   UNL     1      -0.357  -1.650   0.000  0.00  0.00    +0.000 I 
ENDROOT
TORSDOF 0
