REMARK  Name = 
REMARK  9 active torsions:
REMARK  status: ('A' for Active; 'I' for Inactive)
REMARK    1  A    between atoms: C_4  and  N_7
REMARK    2  A    between atoms: N_7  and  C_24
REMARK    3  A    between atoms: C_8  and  O_10
REMARK    4  A    between atoms: O_10  and  C_11
REMARK    5  A    between atoms: C_11  and  C_12
REMARK    6  A    between atoms: C_15  and  C_18
REMARK    7  A    between atoms: C_18  and  O_19
REMARK    8  A    between atoms: O_19  and  C_20
REMARK    9  A    between atoms: C_20  and  C_21
REMARK                            x       y       z     vdW  Elec       q    Type
REMARK                         _______ _______ _______ _____ _____    ______ ____
ROOT
ATOM      1  N   UNL     1      -2.858  -9.900   0.000  0.00  0.00    +0.000 N 
ATOM      2  C   UNL     1      -2.858  -9.075   0.000  0.00  0.00    +0.000 C 
ATOM      3  O   UNL     1      -3.572  -8.662   0.000  0.00  0.00    +0.000 OA
ENDROOT
BRANCH   1   4
ATOM      4  C   UNL     1      -3.572 -10.312   0.000  0.00  0.00    +0.000 A 
ATOM      5  C   UNL     1      -3.572 -11.137   0.000  0.00  0.00    +0.000 A 
ATOM      6  C   UNL     1      -4.287 -11.550   0.000  0.00  0.00    +0.000 A 
ATOM      7  C   UNL     1      -5.001 -11.137   0.000  0.00  0.00    +0.000 A 
ATOM      8  C   UNL     1      -5.001 -10.312   0.000  0.00  0.00    +0.000 A 
ATOM      9  C   UNL     1      -4.287  -9.900   0.000  0.00  0.00    +0.000 A 
ATOM     10 CL   UNL     1      -5.716 -11.550   0.000  0.00  0.00    +0.000 Cl
ENDBRANCH   1   4
BRANCH   1  14
ATOM     11  C   UNL     1      -0.715 -11.137   0.000  0.00  0.00    +0.000 A 
ATOM     12  C   UNL     1      -1.429 -11.550   0.000  0.00  0.00    +0.000 A 
ATOM     13  C   UNL     1      -2.143 -11.137   0.000  0.00  0.00    +0.000 A 
ATOM     14  C   UNL     1      -2.143 -10.312   0.000  0.00  0.00    +0.000 A 
ATOM     15  C   UNL     1      -1.429  -9.900   0.000  0.00  0.00    +0.000 A 
ATOM     16  C   UNL     1      -0.715 -10.312   0.000  0.00  0.00    +0.000 A 
ENDBRANCH   1  14
BRANCH   2  17
ATOM     17  O   UNL     1      -2.143  -8.662   0.000  0.00  0.00    +0.000 OA
BRANCH  17  18
ATOM     18  C   UNL     1      -2.143  -7.838   0.000  0.00  0.00    +0.000 C 
BRANCH  18  19
ATOM     19  C   UNL     1      -1.429  -7.425   0.000  0.00  0.00    +0.000 C 
ATOM     20  C   UNL     1      -1.429  -6.600   0.000  0.00  0.00    +0.000 C 
ATOM     21  C   UNL     1      -0.715  -6.188   0.000  0.00  0.00    +0.000 C 
ATOM     22  C   UNL     1       0.000  -6.600   0.000  0.00  0.00    +0.000 C 
ATOM     23  C   UNL     1       0.000  -7.425   0.000  0.00  0.00    +0.000 C 
ATOM     24  C   UNL     1      -0.715  -7.838   0.000  0.00  0.00    +0.000 C 
BRANCH  22  25
ATOM     25  C   UNL     1       0.715  -6.188   0.000  0.00  0.00    +0.000 C 
BRANCH  25  26
ATOM     26  O   UNL     1       1.429  -6.600   0.000  0.00  0.00    +0.000 OA
BRANCH  26  27
ATOM     27  C   UNL     1       2.143  -6.188   0.000  0.00  0.00    +0.000 C 
BRANCH  27  28
ATOM     28  C   UNL     1       2.858  -6.600   0.000  0.00  0.00    +0.000 C 
ATOM     29  O   UNL     1       3.572  -6.188   0.000  0.00  0.00    +0.000 OA
ATOM     30  O   UNL     1       2.858  -7.425   0.000  0.00  0.00    +0.000 OA
ENDBRANCH  27  28
ENDBRANCH  26  27
ENDBRANCH  25  26
ENDBRANCH  22  25
ENDBRANCH  18  19
ENDBRANCH  17  18
ENDBRANCH   2  17
TORSDOF 9
