REMARK  Name = 
REMARK  9 active torsions:
REMARK  status: ('A' for Active; 'I' for Inactive)
REMARK    1  A    between atoms: C_2  and  C_4
REMARK    2  A    between atoms: C_4  and  C_5
REMARK    3  A    between atoms: C_4  and  O_14
REMARK    4  A    between atoms: C_5  and  C_6
REMARK    5  A    between atoms: O_14  and  C_15
REMARK    6  A    between atoms: C_15  and  C_17
REMARK    7  A    between atoms: C_18  and  C_19
REMARK    8  A    between atoms: C_20  and  C_21
REMARK    9  A    between atoms: C_22  and  C_23
REMARK                            x       y       z     vdW  Elec       q    Type
REMARK                         _______ _______ _______ _____ _____    ______ ____
ROOT
ATOM      1  C   UNL     1      -0.715  -2.888   0.000  0.00  0.00    +0.000 C 
ATOM      2  C   UNL     1       0.000  -2.475   0.000  0.00  0.00    +0.000 C 
ENDROOT
BRANCH   2   3
ATOM      3  C   UNL     1       0.715  -2.888   0.000  0.00  0.00    +0.000 A 
ATOM      4  C   UNL     1       1.429  -2.475   0.000  0.00  0.00    +0.000 A 
ATOM      5  C   UNL     1       2.143  -2.888   0.000  0.00  0.00    +0.000 A 
ATOM      6  O   UNL     1       2.858  -2.475   0.000  0.00  0.00    +0.000 OA
ATOM      7  C   UNL     1       2.143  -3.712   0.000  0.00  0.00    +0.000 A 
ATOM      8  O   UNL     1       2.858  -4.125   0.000  0.00  0.00    +0.000 OA
ATOM      9  C   UNL     1       1.429  -4.125   0.000  0.00  0.00    +0.000 A 
ATOM     10  C   UNL     1       0.715  -3.712   0.000  0.00  0.00    +0.000 A 
BRANCH   4  11
ATOM     11  C   UNL     1       1.429  -1.650   0.000  0.00  0.00    +0.000 C 
ATOM     12  C   UNL     1       0.715  -1.238   0.000  0.00  0.00    +0.000 C 
BRANCH  12  13
ATOM     13  C   UNL     1       0.715  -0.412   0.000  0.00  0.00    +0.000 A 
ATOM     14  C   UNL     1       0.000   0.000   0.000  0.00  0.00    +0.000 A 
ATOM     15  C   UNL     1       0.000   0.825   0.000  0.00  0.00    +0.000 A 
ATOM     16  O   UNL     1      -0.715   1.238   0.000  0.00  0.00    +0.000 OA
ATOM     17  C   UNL     1       0.715   1.238   0.000  0.00  0.00    +0.000 A 
ATOM     18  O   UNL     1       0.715   2.062   0.000  0.00  0.00    +0.000 OA
ATOM     19  C   UNL     1       1.429   0.825   0.000  0.00  0.00    +0.000 A 
ATOM     20  C   UNL     1       1.429   0.000   0.000  0.00  0.00    +0.000 A 
ENDBRANCH  12  13
ENDBRANCH   4  11
ENDBRANCH   2   3
BRANCH   1  21
ATOM     21  C   UNL     1      -1.429  -2.475   0.000  0.00  0.00    +0.000 C 
ATOM     22  O   UNL     1      -1.429  -1.650   0.000  0.00  0.00    +0.000 OA
BRANCH  21  23
ATOM     23  O   UNL     1      -2.143  -2.888   0.000  0.00  0.00    +0.000 OA
BRANCH  23  24
ATOM     24  C   UNL     1      -2.858  -2.475   0.000  0.00  0.00    +0.000 C 
BRANCH  24  26
ATOM     25  O   UNL     1      -2.143  -1.238   0.000  0.00  0.00    +0.000 OA
ATOM     26  C   UNL     1      -2.858  -1.650   0.000  0.00  0.00    +0.000 C 
ATOM     27  O   UNL     1      -3.572  -1.238   0.000  0.00  0.00    +0.000 OA
ENDBRANCH  24  26
BRANCH  24  28
ATOM     28  C   UNL     1      -3.572  -2.888   0.000  0.00  0.00    +0.000 C 
BRANCH  28  29
ATOM     29  C   UNL     1      -4.287  -2.475   0.000  0.00  0.00    +0.000 A 
ATOM     30  C   UNL     1      -5.001  -2.888   0.000  0.00  0.00    +0.000 A 
ATOM     31  C   UNL     1      -5.716  -2.475   0.000  0.00  0.00    +0.000 A 
ATOM     32  O   UNL     1      -6.430  -2.888   0.000  0.00  0.00    +0.000 OA
ATOM     33  C   UNL     1      -5.716  -1.650   0.000  0.00  0.00    +0.000 A 
ATOM     34  O   UNL     1      -6.430  -1.238   0.000  0.00  0.00    +0.000 OA
ATOM     35  C   UNL     1      -5.001  -1.238   0.000  0.00  0.00    +0.000 A 
ATOM     36  C   UNL     1      -4.287  -1.650   0.000  0.00  0.00    +0.000 A 
ENDBRANCH  28  29
ENDBRANCH  24  28
ENDBRANCH  23  24
ENDBRANCH  21  23
ENDBRANCH   1  21
TORSDOF 9
