REMARK  Name = 
REMARK  1 active torsions:
REMARK  status: ('A' for Active; 'I' for Inactive)
REMARK    1  A    between atoms: C_15  and  C_17
REMARK                            x       y       z     vdW  Elec       q    Type
REMARK                         _______ _______ _______ _____ _____    ______ ____
ROOT
ATOM      1  O   UNL     1      -0.143   0.752   0.000  0.00  0.00    +0.000 OA
ATOM      2  O   UNL     1      -0.000  -1.490   0.000  0.00  0.00    +0.000 OA
ATOM      3  O   UNL     1      -1.381  -1.391   0.000  0.00  0.00    +0.000 OA
ATOM      4  O   UNL     1      -2.206   0.037   0.000  0.00  0.00    +0.000 OA
ATOM      5  O   UNL     1       0.499   1.490   0.000  0.00  0.00    +0.000 OA
ATOM      6  O   UNL     1       2.206   0.935   0.000  0.00  0.00    +0.000 OA
ATOM      7  O   UNL     1       2.206  -0.860   0.000  0.00  0.00    +0.000 OA
ATOM      8  N   UNL     1       0.754  -0.630   0.000  0.00  0.00    +0.000 N 
ATOM      9  N   UNL     1       1.538   0.450   0.000  0.00  0.00    +0.000 N 
ATOM     10  C   UNL     1       0.269   0.037   0.000  0.00  0.00    +0.000 C 
ATOM     11  C   UNL     1      -0.143  -0.677   0.000  0.00  0.00    +0.000 C 
ATOM     12  C   UNL     1      -0.969  -0.677   0.000  0.00  0.00    +0.000 C 
ATOM     13  C   UNL     1      -1.381   0.037   0.000  0.00  0.00    +0.000 C 
ATOM     14  C   UNL     1      -0.969   0.752   0.000  0.00  0.00    +0.000 C 
ATOM     15  C   UNL     1       0.754   0.705   0.000  0.00  0.00    +0.000 C 
ATOM     16  C   UNL     1       1.538  -0.375   0.000  0.00  0.00    +0.000 C 
ATOM     17  H   UNL     1       0.772  -1.141   0.000  0.00  0.00    +0.000 HD
ENDROOT
BRANCH  14  19
ATOM     18  O   UNL     1      -2.206   1.466   0.000  0.00  0.00    +0.000 OA
ATOM     19  C   UNL     1      -1.381   1.466   0.000  0.00  0.00    +0.000 C 
ENDBRANCH  14  19
TORSDOF 1
