REMARK  Name = 
REMARK  5 active torsions:
REMARK  status: ('A' for Active; 'I' for Inactive)
REMARK    1  A    between atoms: C_3  and  O_4
REMARK    2  A    between atoms: O_4  and  C_5
REMARK    3  A    between atoms: N_9  and  C_10
REMARK    4  A    between atoms: C_10  and  C_11
REMARK    5  A    between atoms: C_10  and  C_14
REMARK                            x       y       z     vdW  Elec       q    Type
REMARK                         _______ _______ _______ _____ _____    ______ ____
ROOT
ATOM      1  O   UNL     1      -0.346   1.169   0.000  0.00  0.00    +0.000 OA
ATOM      2  C   UNL     1       0.225   0.840   0.000  0.00  0.00    +0.000 C 
ATOM      3  N   UNL     1       0.225   0.015   0.000  0.00  0.00    +0.000 N 
ATOM      4  H   UNL     1       0.701  -0.260   0.000  0.00  0.00    +0.000 HD
ENDROOT
BRANCH   2   5
ATOM      5  O   UNL     1       0.939   1.253   0.000  0.00  0.00    +0.000 OA
BRANCH   5   6
ATOM      6  C   UNL     1       0.939   2.078   0.000  0.00  0.00    +0.000 C 
ATOM      7  C   UNL     1       1.653   2.491   0.000  0.00  0.00    +0.000 C 
ATOM      8  C   UNL     1       1.667   1.656   0.000  0.00  0.00    +0.000 C 
ATOM      9  C   UNL     1       0.224   2.490   0.000  0.00  0.00    +0.000 C 
ENDBRANCH   5   6
ENDBRANCH   2   5
BRANCH   3  10
ATOM     10  C   UNL     1      -0.489  -0.398   0.000  0.00  0.00    +0.000 C 
BRANCH  10  12
ATOM     11  C   UNL     1      -0.077  -2.491   0.000  0.00  0.00    +0.000 A 
ATOM     12  C   UNL     1      -0.489  -1.222   0.000  0.00  0.00    +0.000 A 
ATOM     13  O   UNL     1       0.178  -1.706   0.000  0.00  0.00    +0.000 OA
ATOM     14  N   UNL     1      -0.902  -2.491   0.000  0.00  0.00    +0.000 NA
ATOM     15  N   UNL     1      -1.156  -1.706   0.000  0.00  0.00    +0.000 NA
ENDBRANCH  10  12
BRANCH  10  16
ATOM     16  C   UNL     1      -1.204   0.014   0.000  0.00  0.00    +0.000 C 
ATOM     17  C   UNL     1      -1.667  -0.701   0.000  0.00  0.00    +0.000 C 
ATOM     18  C   UNL     1      -1.667   0.729   0.000  0.00  0.00    +0.000 C 
ENDBRANCH  10  16
ENDBRANCH   3  10
TORSDOF 5
