REMARK  Name = 
REMARK  9 active torsions:
REMARK  status: ('A' for Active; 'I' for Inactive)
REMARK    1  A    between atoms: C_3  and  C_4
REMARK    2  A    between atoms: C_3  and  N_31
REMARK    3  A    between atoms: C_4  and  C_5
REMARK    4  A    between atoms: C_5  and  C_6
REMARK    5  A    between atoms: C_6  and  C_7
REMARK    6  A    between atoms: C_6  and  N_34
REMARK    7  A    between atoms: C_14  and  C_15
REMARK    8  A    between atoms: S_18  and  C_19
REMARK    9  A    between atoms: S_18  and  N_34
REMARK                            x       y       z     vdW  Elec       q    Type
REMARK                         _______ _______ _______ _____ _____    ______ ____
ROOT
ATOM      1  C   UNL     1       0.359   1.027   0.000  0.00  0.00    +0.000 C 
ENDROOT
BRANCH   1   2
ATOM      2  C   UNL     1       1.073   1.443   0.000  0.00  0.00    +0.000 C 
ATOM      3  N   UNL     1       1.789   1.029   0.000  0.00  0.00    +0.000 N 
ATOM      4  O   UNL     1       1.072   2.268   0.000  0.00  0.00    +0.000 OA
ATOM      5  C   UNL     1       1.785   0.206   0.000  0.00  0.00    +0.000 C 
ATOM      6  C   UNL     1       2.496  -0.204   0.000  0.00  0.00    +0.000 C 
ATOM      7  C   UNL     1       3.213   0.204   0.000  0.00  0.00    +0.000 C 
ATOM      8  C   UNL     1       3.214   1.030   0.000  0.00  0.00    +0.000 C 
ATOM      9  C   UNL     1       2.498   1.448   0.000  0.00  0.00    +0.000 C 
ATOM     10  C   UNL     1       3.928  -0.208   0.000  0.00  0.00    +0.000 C 
BRANCH   9  11
ATOM     11  C   UNL     1       2.495   2.274   0.000  0.00  0.00    +0.000 C 
ATOM     12  O   UNL     1       3.209   2.686   0.000  0.00  0.00    +0.000 OA
ATOM     13  O   UNL     1       1.781   2.687   0.000  0.00  0.00    +0.000 OA
ENDBRANCH   9  11
ENDBRANCH   1   2
BRANCH   1  14
ATOM     14  C   UNL     1      -0.353   1.441   0.000  0.00  0.00    +0.000 C 
BRANCH  14  15
ATOM     15  C   UNL     1      -1.068   1.025   0.000  0.00  0.00    +0.000 C 
BRANCH  15  16
ATOM     16  C   UNL     1      -1.783   1.439   0.000  0.00  0.00    +0.000 C 
BRANCH  16  19
ATOM     17  C   UNL     1      -3.215   1.435   0.000  0.00  0.00    +0.000 C 
ATOM     18  N   UNL     1      -3.216   2.260   0.000  0.00  0.00    +0.000 NA
ATOM     19  N   UNL     1      -2.498   1.027   0.000  0.00  0.00    +0.000 NA
ATOM     20  N   UNL     1      -3.928   1.024   0.000  0.00  0.00    +0.000 NA
ENDBRANCH  16  19
ENDBRANCH  15  16
ENDBRANCH  14  15
ENDBRANCH   1  14
BRANCH   1  21
ATOM     21  N   UNL     1       0.362   0.202   0.000  0.00  0.00    +0.000 NA
BRANCH  21  22
ATOM     22  S   UNL     1      -0.350  -0.214   0.000  0.00  0.00    +0.000 S 
ATOM     23  O   UNL     1      -0.773   0.505   0.000  0.00  0.00    +0.000 OA
ATOM     24  O   UNL     1      -1.179  -0.209   0.000  0.00  0.00    +0.000 OA
BRANCH  22  25
ATOM     25  C   UNL     1      -0.349  -1.039   0.000  0.00  0.00    +0.000 A 
ATOM     26  C   UNL     1      -1.065  -1.452   0.000  0.00  0.00    +0.000 A 
ATOM     27  C   UNL     1      -1.065  -2.277   0.000  0.00  0.00    +0.000 A 
ATOM     28  C   UNL     1      -0.348  -2.687   0.000  0.00  0.00    +0.000 A 
ATOM     29  C   UNL     1       0.360  -1.448   0.000  0.00  0.00    +0.000 A 
ATOM     30  C   UNL     1       0.363  -2.269   0.000  0.00  0.00    +0.000 A 
ATOM     31  C   UNL     1       1.073  -2.673   0.000  0.00  0.00    +0.000 C 
ATOM     32  C   UNL     1       1.784  -2.264   0.000  0.00  0.00    +0.000 C 
ATOM     33  C   UNL     1       1.781  -1.442   0.000  0.00  0.00    +0.000 C 
ATOM     34  C   UNL     1       2.500  -2.673   0.000  0.00  0.00    +0.000 C 
ATOM     35  N   UNL     1       1.069  -1.026   0.000  0.00  0.00    +0.000 NA
ENDBRANCH  22  25
ENDBRANCH  21  22
ENDBRANCH   1  21
TORSDOF 9
