REMARK  Name = 
REMARK  5 active torsions:
REMARK  status: ('A' for Active; 'I' for Inactive)
REMARK    1  A    between atoms: C_2  and  C_4
REMARK    2  A    between atoms: C_9  and  C_10
REMARK    3  A    between atoms: C_17  and  C_19
REMARK    4  A    between atoms: C_20  and  C_21
REMARK    5  A    between atoms: C_24  and  C_27
REMARK                            x       y       z     vdW  Elec       q    Type
REMARK                         _______ _______ _______ _____ _____    ______ ____
ROOT
ATOM      1  C   UNL     1       3.352   1.935   0.000  0.00  0.00    +0.000 A 
ATOM      2  C   UNL     1       3.352   1.110   0.000  0.00  0.00    +0.000 A 
ATOM      3  C   UNL     1       2.638   0.698   0.000  0.00  0.00    +0.000 A 
ATOM      4  C   UNL     1       1.923   1.110   0.000  0.00  0.00    +0.000 A 
ATOM      5  C   UNL     1       1.923   1.935   0.000  0.00  0.00    +0.000 A 
ATOM      6  C   UNL     1       2.638   2.348   0.000  0.00  0.00    +0.000 A 
ATOM      7  N   UNL     1       1.139   2.190   0.000  0.00  0.00    +0.000 NA
ATOM      8  C   UNL     1       0.654   1.523   0.000  0.00  0.00    +0.000 A 
ATOM      9  N   UNL     1       1.139   0.856   0.000  0.00  0.00    +0.000 NA
ENDROOT
BRANCH   1  15
ATOM     10  C   UNL     1       4.067   3.173   0.000  0.00  0.00    +0.000 A 
ATOM     11  C   UNL     1       4.781   3.585   0.000  0.00  0.00    +0.000 A 
ATOM     12  C   UNL     1       5.496   3.173   0.000  0.00  0.00    +0.000 A 
ATOM     13  C   UNL     1       5.496   2.348   0.000  0.00  0.00    +0.000 A 
ATOM     14  C   UNL     1       4.781   1.935   0.000  0.00  0.00    +0.000 A 
ATOM     15  C   UNL     1       4.067   2.348   0.000  0.00  0.00    +0.000 A 
BRANCH  10  17
ATOM     16  C   UNL     1       2.638   3.998   0.000  0.00  0.00    +0.000 C 
ATOM     17  C   UNL     1       3.352   3.585   0.000  0.00  0.00    +0.000 C 
ATOM     18  C   UNL     1       2.940   2.871   0.000  0.00  0.00    +0.000 C 
ATOM     19  O   UNL     1       3.765   4.300   0.000  0.00  0.00    +0.000 OA
ENDBRANCH  10  17
ENDBRANCH   1  15
BRANCH   8  20
ATOM     20  C   UNL     1      -0.171   1.523   0.000  0.00  0.00    +0.000 C 
ATOM     21  C   UNL     1      -0.584   0.808   0.000  0.00  0.00    +0.000 C 
BRANCH  21  22
ATOM     22  C   UNL     1      -1.409   0.808   0.000  0.00  0.00    +0.000 A 
ATOM     23  C   UNL     1      -1.821   0.094   0.000  0.00  0.00    +0.000 A 
ATOM     24  C   UNL     1      -2.646   0.094   0.000  0.00  0.00    +0.000 A 
ATOM     25  C   UNL     1      -3.059   0.808   0.000  0.00  0.00    +0.000 A 
ATOM     26  C   UNL     1      -2.646   1.523   0.000  0.00  0.00    +0.000 A 
ATOM     27  C   UNL     1      -1.821   1.523   0.000  0.00  0.00    +0.000 A 
BRANCH  25  28
ATOM     28  C   UNL     1      -3.884   0.808   0.000  0.00  0.00    +0.000 C 
ATOM     29  F   UNL     1      -4.709   0.808   0.000  0.00  0.00    +0.000 F 
ATOM     30  F   UNL     1      -3.884   1.633   0.000  0.00  0.00    +0.000 F 
ATOM     31  F   UNL     1      -3.884  -0.017   0.000  0.00  0.00    +0.000 F 
ENDBRANCH  25  28
ENDBRANCH  21  22
ENDBRANCH   8  20
TORSDOF 5
