REMARK  Name = 
REMARK  5 active torsions:
REMARK  status: ('A' for Active; 'I' for Inactive)
REMARK    1  A    between atoms: C_2  and  C_6
REMARK    2  A    between atoms: C_6  and  O_7
REMARK    3  A    between atoms: O_7  and  C_8
REMARK    4  A    between atoms: N_16  and  C_17
REMARK    5  A    between atoms: C_24  and  N_27
REMARK                            x       y       z     vdW  Elec       q    Type
REMARK                         _______ _______ _______ _____ _____    ______ ____
ROOT
ATOM      1  C   UNL     1       0.715  -1.238   0.000  0.00  0.00    +0.000 A 
ATOM      2  C   UNL     1       0.715  -0.412   0.000  0.00  0.00    +0.000 A 
ATOM      3  C   UNL     1       1.429   0.000   0.000  0.00  0.00    +0.000 A 
ATOM      4  C   UNL     1       2.143  -0.412   0.000  0.00  0.00    +0.000 A 
ATOM      5  C   UNL     1       2.858   0.000   0.000  0.00  0.00    +0.000 A 
ATOM      6  C   UNL     1       3.572  -0.412   0.000  0.00  0.00    +0.000 A 
ATOM      7  C   UNL     1       3.572  -1.238   0.000  0.00  0.00    +0.000 A 
ATOM      8  C   UNL     1       2.858  -1.650   0.000  0.00  0.00    +0.000 A 
ATOM      9  C   UNL     1       2.143  -1.238   0.000  0.00  0.00    +0.000 A 
ATOM     10  N   UNL     1       1.429  -1.650   0.000  0.00  0.00    +0.000 NA
ENDROOT
BRANCH   1  19
ATOM     11  C   UNL     1      -2.368  -0.971   0.000  0.00  0.00    +0.000 A 
ATOM     12  C   UNL     1      -1.816  -0.358   0.000  0.00  0.00    +0.000 A 
ATOM     13  C   UNL     1      -1.009  -0.530   0.000  0.00  0.00    +0.000 A 
ATOM     14  C   UNL     1      -0.754  -1.314   0.000  0.00  0.00    +0.000 A 
ATOM     15  C   UNL     1      -1.306  -1.927   0.000  0.00  0.00    +0.000 A 
ATOM     16  C   UNL     1      -2.113  -1.756   0.000  0.00  0.00    +0.000 A 
ATOM     17  N   UNL     1      -0.893  -2.642   0.000  0.00  0.00    +0.000 NA
ATOM     18  C   UNL     1      -0.086  -2.470   0.000  0.00  0.00    +0.000 A 
ATOM     19  N   UNL     1       0.000  -1.650   0.000  0.00  0.00    +0.000 N 
BRANCH  11  20
ATOM     20  O   UNL     1      -3.175  -0.800   0.000  0.00  0.00    +0.000 OA
BRANCH  20  21
ATOM     21  C   UNL     1      -3.727  -1.413   0.000  0.00  0.00    +0.000 C 
BRANCH  21  23
ATOM     22  C   UNL     1      -4.362  -0.434   0.000  0.00  0.00    +0.000 C 
ATOM     23  C   UNL     1      -4.534  -1.241   0.000  0.00  0.00    +0.000 C 
ATOM     24  C   UNL     1      -4.705  -2.048   0.000  0.00  0.00    +0.000 C 
ATOM     25  O   UNL     1      -5.512  -1.877   0.000  0.00  0.00    +0.000 OA
ATOM     26  C   UNL     1      -5.341  -1.070   0.000  0.00  0.00    +0.000 C 
ENDBRANCH  21  23
ENDBRANCH  20  21
ENDBRANCH  11  20
ENDBRANCH   1  19
BRANCH   8  27
ATOM     27  N   UNL     1       2.858  -2.475   0.000  0.00  0.00    +0.000 N 
ATOM     28  C   UNL     1       3.572  -2.888   0.000  0.00  0.00    +0.000 C 
ATOM     29  C   UNL     1       3.572  -3.712   0.000  0.00  0.00    +0.000 C 
ATOM     30  C   UNL     1       2.858  -4.125   0.000  0.00  0.00    +0.000 C 
ATOM     31  C   UNL     1       2.143  -3.712   0.000  0.00  0.00    +0.000 C 
ATOM     32  C   UNL     1       2.143  -2.888   0.000  0.00  0.00    +0.000 C 
ATOM     33  N   UNL     1       2.858  -4.950   0.000  0.00  0.00    +0.000 NA
ENDBRANCH   8  27
TORSDOF 5
