REMARK  Name = 
REMARK  2 active torsions:
REMARK  status: ('A' for Active; 'I' for Inactive)
REMARK    1  A    between atoms: C_7  and  C_8
REMARK    2  A    between atoms: C_9  and  C_10
REMARK                            x       y       z     vdW  Elec       q    Type
REMARK                         _______ _______ _______ _____ _____    ______ ____
ROOT
ATOM      1  C   UNL     1       0.000  -2.475   0.000  0.00  0.00    +0.000 C 
ATOM      2  C   UNL     1      -0.715  -2.888   0.000  0.00  0.00    +0.000 C 
ENDROOT
BRANCH   1   9
ATOM      3  C   UNL     1       1.429  -1.650   0.000  0.00  0.00    +0.000 C 
ATOM      4  N   UNL     1       1.429  -2.475   0.000  0.00  0.00    +0.000 N 
ATOM      5  C   UNL     1       2.143  -2.888   0.000  0.00  0.00    +0.000 C 
ATOM      6  C   UNL     1       2.143  -3.712   0.000  0.00  0.00    +0.000 C 
ATOM      7  C   UNL     1       1.429  -4.125   0.000  0.00  0.00    +0.000 C 
ATOM      8  N   UNL     1       0.715  -3.712   0.000  0.00  0.00    +0.000 NA
ATOM      9  C   UNL     1       0.715  -2.888   0.000  0.00  0.00    +0.000 C 
ENDBRANCH   1   9
BRANCH   2  10
ATOM     10  C   UNL     1      -1.429  -2.475   0.000  0.00  0.00    +0.000 A 
ATOM     11  C   UNL     1      -2.143  -2.888   0.000  0.00  0.00    +0.000 A 
ATOM     12  C   UNL     1      -2.858  -2.475   0.000  0.00  0.00    +0.000 A 
ATOM     13  C   UNL     1      -2.858  -1.650   0.000  0.00  0.00    +0.000 A 
ATOM     14  C   UNL     1      -2.143  -1.238   0.000  0.00  0.00    +0.000 A 
ATOM     15  C   UNL     1      -1.429  -1.650   0.000  0.00  0.00    +0.000 A 
ATOM     16  O   UNL     1      -2.143  -0.412   0.000  0.00  0.00    +0.000 OA
ENDBRANCH   2  10
TORSDOF 2
