REMARK  Name = 
REMARK  5 active torsions:
REMARK  status: ('A' for Active; 'I' for Inactive)
REMARK    1  A    between atoms: C_3  and  C_5
REMARK    2  A    between atoms: C_8  and  N_9
REMARK    3  A    between atoms: C_10  and  C_12
REMARK    4  A    between atoms: C_12  and  C_13
REMARK    5  A    between atoms: C_12  and  C_19
REMARK                            x       y       z     vdW  Elec       q    Type
REMARK                         _______ _______ _______ _____ _____    ______ ____
ROOT
ATOM      1  N   UNL     1      -0.715  -0.001   0.000  0.00  0.00    +0.000 NA
ATOM      2  C   UNL     1      -1.427  -0.409   0.000  0.00  0.00    +0.000 C 
ATOM      3  O   UNL     1      -1.427  -1.232   0.000  0.00  0.00    +0.000 OA
ENDROOT
BRANCH   1   7
ATOM      4  C   UNL     1       1.427  -1.238   0.000  0.00  0.00    +0.000 A 
ATOM      5  C   UNL     1       1.433  -0.412   0.000  0.00  0.00    +0.000 A 
ATOM      6  C   UNL     1       0.716   0.001   0.000  0.00  0.00    +0.000 A 
ATOM      7  C   UNL     1      -0.001  -0.411   0.000  0.00  0.00    +0.000 A 
ATOM      8  C   UNL     1      -0.004  -1.239   0.000  0.00  0.00    +0.000 A 
ATOM      9  C   UNL     1       0.709  -1.649   0.000  0.00  0.00    +0.000 A 
BRANCH   4  12
ATOM     10  N   UNL     1       2.852  -1.246   0.000  0.00  0.00    +0.000 NA
ATOM     11  O   UNL     1       3.565  -1.656   0.000  0.00  0.00    +0.000 OA
ATOM     12  C   UNL     1       2.140  -1.648   0.000  0.00  0.00    +0.000 C 
ATOM     13  O   UNL     1       2.132  -2.476   0.000  0.00  0.00    +0.000 OA
ENDBRANCH   4  12
ENDBRANCH   1   7
BRANCH   2  14
ATOM     14  C   UNL     1      -2.140   0.001   0.000  0.00  0.00    +0.000 C 
BRANCH  14  15
ATOM     15  C   UNL     1      -2.138   0.826   0.000  0.00  0.00    +0.000 A 
ATOM     16  C   UNL     1      -1.420   1.236   0.000  0.00  0.00    +0.000 A 
ATOM     17  C   UNL     1      -1.426   2.064   0.000  0.00  0.00    +0.000 A 
ATOM     18  C   UNL     1      -2.143   2.476   0.000  0.00  0.00    +0.000 A 
ATOM     19  C   UNL     1      -2.854   2.061   0.000  0.00  0.00    +0.000 A 
ATOM     20  C   UNL     1      -2.855   1.238   0.000  0.00  0.00    +0.000 A 
ENDBRANCH  14  15
BRANCH  14  21
ATOM     21  C   UNL     1      -2.852  -0.408   0.000  0.00  0.00    +0.000 C 
ATOM     22  C   UNL     1      -3.565   0.003   0.000  0.00  0.00    +0.000 C 
ATOM     23  C   UNL     1      -2.853  -1.230   0.000  0.00  0.00    +0.000 C 
ENDBRANCH  14  21
ENDBRANCH   2  14
TORSDOF 5
