REMARK  Name = 
REMARK  7 active torsions:
REMARK  status: ('A' for Active; 'I' for Inactive)
REMARK    1  A    between atoms: N_1  and  C_3
REMARK    2  A    between atoms: C_12  and  N_17
REMARK    3  A    between atoms: C_14  and  C_18
REMARK    4  A    between atoms: C_21  and  C_23
REMARK    5  A    between atoms: C_23  and  C_25
REMARK    6  A    between atoms: C_25  and  C_27
REMARK    7  A    between atoms: C_32  and  O_33
REMARK                            x       y       z     vdW  Elec       q    Type
REMARK                         _______ _______ _______ _____ _____    ______ ____
ROOT
ATOM      1  C   UNL     1       1.389   1.080   0.000  0.00  0.00    +0.000 C 
ATOM      2  C   UNL     1       1.139   0.308   0.000  0.00  0.00    +0.000 C 
ATOM      3  O   UNL     1       0.708   1.572   0.000  0.00  0.00    +0.000 OA
ATOM      4  C   UNL     1       0.314   0.308   0.000  0.00  0.00    +0.000 C 
ATOM      5  O   UNL     1       1.627  -0.354   0.000  0.00  0.00    +0.000 OA
ATOM      6  C   UNL     1       0.049   1.096   0.000  0.00  0.00    +0.000 C 
ENDROOT
BRANCH   1   7
ATOM      7  N   UNL     1       1.990   2.609   0.000  0.00  0.00    +0.000 N 
ATOM      8  C   UNL     1       1.204   2.859   0.000  0.00  0.00    +0.000 A 
ATOM      9  C   UNL     1       2.479   3.272   0.000  0.00  0.00    +0.000 A 
ATOM     10  C   UNL     1       1.204   3.692   0.000  0.00  0.00    +0.000 A 
ATOM     11  N   UNL     1       0.481   2.439   0.000  0.00  0.00    +0.000 NA
ATOM     12  N   UNL     1       1.994   3.949   0.000  0.00  0.00    +0.000 NA
ATOM     13  C   UNL     1       0.481   4.104   0.000  0.00  0.00    +0.000 A 
ATOM     14  C   UNL     1      -0.231   2.859   0.000  0.00  0.00    +0.000 A 
ATOM     15  N   UNL     1      -0.231   3.692   0.000  0.00  0.00    +0.000 NA
ATOM     16  N   UNL     1       0.481   4.925   0.000  0.00  0.00    +0.000 N 
ATOM     17  C   UNL     1       1.192   5.342   0.000  0.00  0.00    +0.000 C 
ATOM     18  C   UNL     1      -0.235   5.334   0.000  0.00  0.00    +0.000 C 
ENDBRANCH   1   7
BRANCH   4  19
ATOM     19  N   UNL     1      -0.159  -0.361   0.000  0.00  0.00    +0.000 NA
ATOM     20  C   UNL     1       0.185  -1.107   0.000  0.00  0.00    +0.000 C 
ATOM     21  O   UNL     1       0.976  -1.111   0.000  0.00  0.00    +0.000 OA
BRANCH  20  22
ATOM     22  C   UNL     1      -0.291  -1.780   0.000  0.00  0.00    +0.000 C 
ATOM     23  N   UNL     1      -1.063  -1.769   0.000  0.00  0.00    +0.000 NA
BRANCH  22  24
ATOM     24  C   UNL     1       0.053  -2.526   0.000  0.00  0.00    +0.000 C 
BRANCH  24  25
ATOM     25  C   UNL     1      -0.424  -3.200   0.000  0.00  0.00    +0.000 A 
ATOM     26  C   UNL     1      -1.249  -3.200   0.000  0.00  0.00    +0.000 A 
ATOM     27  C   UNL     1      -0.015  -3.907   0.000  0.00  0.00    +0.000 A 
ATOM     28  C   UNL     1      -1.665  -3.911   0.000  0.00  0.00    +0.000 A 
ATOM     29  C   UNL     1      -0.420  -4.623   0.000  0.00  0.00    +0.000 A 
ATOM     30  C   UNL     1      -1.245  -4.623   0.000  0.00  0.00    +0.000 A 
BRANCH  30  31
ATOM     31  O   UNL     1      -1.654  -5.338   0.000  0.00  0.00    +0.000 OA
ATOM     32  C   UNL     1      -2.479  -5.342   0.000  0.00  0.00    +0.000 C 
ENDBRANCH  30  31
ENDBRANCH  24  25
ENDBRANCH  22  24
ENDBRANCH  20  22
ENDBRANCH   4  19
BRANCH   6  33
ATOM     33  C   UNL     1      -0.738   1.345   0.000  0.00  0.00    +0.000 C 
ATOM     34  O   UNL     1      -1.343   0.789   0.000  0.00  0.00    +0.000 OA
ENDBRANCH   6  33
TORSDOF 7
