REMARK  Name = 
REMARK  7 active torsions:
REMARK  status: ('A' for Active; 'I' for Inactive)
REMARK    1  A    between atoms: C_4  and  C_9
REMARK    2  A    between atoms: C_9  and  C_10
REMARK    3  A    between atoms: C_10  and  C_11
REMARK    4  A    between atoms: C_10  and  O_12
REMARK    5  A    between atoms: O_12  and  C_14
REMARK    6  A    between atoms: C_14  and  C_16
REMARK    7  A    between atoms: C_18  and  C_19
REMARK                            x       y       z     vdW  Elec       q    Type
REMARK                         _______ _______ _______ _____ _____    ______ ____
ROOT
ATOM      1  C   UNL     1      -0.712  -0.413   0.000  0.00  0.00    +0.000 C 
ENDROOT
BRANCH   1   2
ATOM      2  C   UNL     1       0.003  -0.825   0.000  0.00  0.00    +0.000 C 
ATOM      3  O   UNL     1       0.004  -1.650   0.000  0.00  0.00    +0.000 OA
ATOM      4  O   UNL     1       0.717  -0.411   0.000  0.00  0.00    +0.000 OA
ENDBRANCH   1   2
BRANCH   1   5
ATOM      5  C   UNL     1      -1.426  -0.827   0.000  0.00  0.00    +0.000 C 
BRANCH   5   9
ATOM      6  C   UNL     1      -3.571   0.411   0.000  0.00  0.00    +0.000 A 
ATOM      7  C   UNL     1      -3.572  -0.416   0.000  0.00  0.00    +0.000 A 
ATOM      8  C   UNL     1      -2.858  -0.829   0.000  0.00  0.00    +0.000 A 
ATOM      9  C   UNL     1      -2.141  -0.416   0.000  0.00  0.00    +0.000 A 
ATOM     10  C   UNL     1      -2.144   0.415   0.000  0.00  0.00    +0.000 A 
ATOM     11  C   UNL     1      -2.859   0.824   0.000  0.00  0.00    +0.000 A 
ATOM     12  O   UNL     1      -2.862   1.649   0.000  0.00  0.00    +0.000 OA
ATOM     13  O   UNL     1      -4.286   0.823   0.000  0.00  0.00    +0.000 OA
ENDBRANCH   5   9
ENDBRANCH   1   5
BRANCH   1  14
ATOM     14  O   UNL     1      -0.714   0.411   0.000  0.00  0.00    +0.000 OA
BRANCH  14  15
ATOM     15  C   UNL     1       0.000   0.825   0.000  0.00  0.00    +0.000 C 
ATOM     16  O   UNL     1      -0.001   1.650   0.000  0.00  0.00    +0.000 OA
BRANCH  15  17
ATOM     17  C   UNL     1       0.715   0.414   0.000  0.00  0.00    +0.000 C 
ATOM     18  C   UNL     1       1.429   0.827   0.000  0.00  0.00    +0.000 C 
BRANCH  18  19
ATOM     19  C   UNL     1       2.144   0.416   0.000  0.00  0.00    +0.000 A 
ATOM     20  C   UNL     1       2.141  -0.407   0.000  0.00  0.00    +0.000 A 
ATOM     21  C   UNL     1       2.855  -0.818   0.000  0.00  0.00    +0.000 A 
ATOM     22  C   UNL     1       3.570  -0.404   0.000  0.00  0.00    +0.000 A 
ATOM     23  C   UNL     1       3.566   0.425   0.000  0.00  0.00    +0.000 A 
ATOM     24  C   UNL     1       2.851   0.832   0.000  0.00  0.00    +0.000 A 
ATOM     25  O   UNL     1       4.279   0.841   0.000  0.00  0.00    +0.000 OA
ATOM     26  O   UNL     1       4.286  -0.815   0.000  0.00  0.00    +0.000 OA
ENDBRANCH  18  19
ENDBRANCH  15  17
ENDBRANCH  14  15
ENDBRANCH   1  14
TORSDOF 7
