REMARK  Name = 
REMARK  5 active torsions:
REMARK  status: ('A' for Active; 'I' for Inactive)
REMARK    1  A    between atoms: C_1  and  C_2
REMARK    2  A    between atoms: C_15  and  N_16
REMARK    3  A    between atoms: C_20  and  N_21
REMARK    4  A    between atoms: N_21  and  C_22
REMARK    5  A    between atoms: C_27  and  C_28
REMARK                            x       y       z     vdW  Elec       q    Type
REMARK                         _______ _______ _______ _____ _____    ______ ____
ROOT
ATOM      1  N   UNL     1       0.714   1.444   0.000  0.00  0.00    +0.000 N 
ATOM      2  C   UNL     1       1.429   1.856   0.000  0.00  0.00    +0.000 C 
ATOM      3  C   UNL     1       2.143   1.444   0.000  0.00  0.00    +0.000 C 
ATOM      4  C   UNL     1       2.143   0.619   0.000  0.00  0.00    +0.000 C 
ATOM      5  C   UNL     1       1.429   0.206   0.000  0.00  0.00    +0.000 C 
ATOM      6  C   UNL     1       0.714   0.619   0.000  0.00  0.00    +0.000 C 
ATOM      7  O   UNL     1       0.000   0.206   0.000  0.00  0.00    +0.000 OA
ENDROOT
BRANCH   1  21
ATOM      8  C   UNL     1       0.000   2.681   0.000  0.00  0.00    +0.000 C 
ATOM      9  C   UNL     1      -0.715   3.094   0.000  0.00  0.00    +0.000 C 
ATOM     10  C   UNL     1      -1.429   2.681   0.000  0.00  0.00    +0.000 C 
ATOM     11  N   UNL     1      -1.429   1.856   0.000  0.00  0.00    +0.000 N 
ATOM     12  C   UNL     1      -2.143   1.444   0.000  0.00  0.00    +0.000 A 
ATOM     13  N   UNL     1      -2.143   0.619   0.000  0.00  0.00    +0.000 NA
ATOM     14  C   UNL     1      -2.858   0.206   0.000  0.00  0.00    +0.000 A 
ATOM     15  N   UNL     1      -3.572   0.619   0.000  0.00  0.00    +0.000 NA
ATOM     16  C   UNL     1      -3.572   1.444   0.000  0.00  0.00    +0.000 A 
ATOM     17  N   UNL     1      -4.287   1.856   0.000  0.00  0.00    +0.000 NA
ATOM     18  C   UNL     1      -2.858   1.856   0.000  0.00  0.00    +0.000 A 
ATOM     19  F   UNL     1      -2.858   2.681   0.000  0.00  0.00    +0.000 F 
ATOM     20  C   UNL     1      -0.715   1.444   0.000  0.00  0.00    +0.000 C 
ATOM     21  C   UNL     1       0.000   1.856   0.000  0.00  0.00    +0.000 C 
BRANCH   8  22
ATOM     22  C   UNL     1       0.714   3.094   0.000  0.00  0.00    +0.000 C 
ATOM     23  O   UNL     1       0.714   3.919   0.000  0.00  0.00    +0.000 OA
ATOM     24  N   UNL     1       1.429   2.681   0.000  0.00  0.00    +0.000 NA
ENDBRANCH   8  22
ENDBRANCH   1  21
BRANCH   5  25
ATOM     25  N   UNL     1       1.429  -0.619   0.000  0.00  0.00    +0.000 NA
BRANCH  25  26
ATOM     26  C   UNL     1       2.143  -1.031   0.000  0.00  0.00    +0.000 A 
ATOM     27  C   UNL     1       2.858  -0.619   0.000  0.00  0.00    +0.000 A 
ATOM     28  C   UNL     1       3.572  -1.031   0.000  0.00  0.00    +0.000 A 
ATOM     29 CL   UNL     1       4.287  -0.619   0.000  0.00  0.00    +0.000 Cl
ATOM     30  C   UNL     1       3.572  -1.856   0.000  0.00  0.00    +0.000 A 
ATOM     31  C   UNL     1       2.858  -2.269   0.000  0.00  0.00    +0.000 A 
ATOM     32  C   UNL     1       2.143  -1.856   0.000  0.00  0.00    +0.000 A 
BRANCH  31  33
ATOM     33  C   UNL     1       2.858  -3.094   0.000  0.00  0.00    +0.000 C 
ATOM     34  F   UNL     1       2.143  -3.506   0.000  0.00  0.00    +0.000 F 
ATOM     35  F   UNL     1       2.858  -3.919   0.000  0.00  0.00    +0.000 F 
ATOM     36  F   UNL     1       3.572  -3.506   0.000  0.00  0.00    +0.000 F 
ENDBRANCH  31  33
ENDBRANCH  25  26
ENDBRANCH   5  25
TORSDOF 5
