REMARK  Name = 
REMARK  6 active torsions:
REMARK  status: ('A' for Active; 'I' for Inactive)
REMARK    1  A    between atoms: S_1  and  C_38
REMARK    2  A    between atoms: O_6  and  C_31
REMARK    3  A    between atoms: O_6  and  C_34
REMARK    4  A    between atoms: C_16  and  C_24
REMARK    5  A    between atoms: C_24  and  C_31
REMARK    6  A    between atoms: C_34  and  C_35
REMARK                            x       y       z     vdW  Elec       q    Type
REMARK                         _______ _______ _______ _____ _____    ______ ____
ROOT
ATOM      1  F   UNL     1      -2.650  -1.109   0.000  0.00  0.00    +0.000 F 
ATOM      2  O   UNL     1       0.397   0.668   0.000  0.00  0.00    +0.000 OA
ATOM      3  O   UNL     1      -3.378   0.834   0.000  0.00  0.00    +0.000 OA
ATOM      4  O   UNL     1      -5.520  -2.081   0.000  0.00  0.00    +0.000 OA
ATOM      5  C   UNL     1      -1.225  -0.414   0.000  0.00  0.00    +0.000 C 
ATOM      6  C   UNL     1      -1.932  -0.834   0.000  0.00  0.00    +0.000 C 
ATOM      7  C   UNL     1      -1.225   0.414   0.000  0.00  0.00    +0.000 C 
ATOM      8  C   UNL     1      -2.639  -0.414   0.000  0.00  0.00    +0.000 C 
ATOM      9  C   UNL     1      -0.430   0.668   0.000  0.00  0.00    +0.000 C 
ATOM     10  C   UNL     1      -3.356  -0.834   0.000  0.00  0.00    +0.000 C 
ATOM     11  C   UNL     1      -2.639   0.414   0.000  0.00  0.00    +0.000 C 
ATOM     12  C   UNL     1      -1.932   0.823   0.000  0.00  0.00    +0.000 C 
ATOM     13  C   UNL     1      -0.430  -0.657   0.000  0.00  0.00    +0.000 C 
ATOM     14  C   UNL     1       0.055  -0.005   0.000  0.00  0.00    +0.000 C 
ATOM     15  C   UNL     1      -1.932  -1.651   0.000  0.00  0.00    +0.000 C 
ATOM     16  C   UNL     1      -3.356  -1.651   0.000  0.00  0.00    +0.000 C 
ATOM     17  C   UNL     1      -1.225   1.253   0.000  0.00  0.00    +0.000 C 
ATOM     18  C   UNL     1      -2.639  -2.070   0.000  0.00  0.00    +0.000 C 
ATOM     19  C   UNL     1      -4.074  -0.414   0.000  0.00  0.00    +0.000 C 
ATOM     20  C   UNL     1      -3.356  -0.005   0.000  0.00  0.00    +0.000 C 
ATOM     21  C   UNL     1      -4.074  -2.070   0.000  0.00  0.00    +0.000 C 
ATOM     22  C   UNL     1       0.883   0.005   0.000  0.00  0.00    +0.000 C 
ATOM     23  C   UNL     1      -4.780  -0.834   0.000  0.00  0.00    +0.000 C 
ATOM     24  C   UNL     1      -4.780  -1.651   0.000  0.00  0.00    +0.000 C 
ENDROOT
BRANCH   9  26
ATOM     25  O   UNL     1      -0.795   2.070   0.000  0.00  0.00    +0.000 OA
ATOM     26  C   UNL     1      -0.210   1.474   0.000  0.00  0.00    +0.000 C 
BRANCH  26  27
ATOM     27  C   UNL     1       0.585   1.673   0.000  0.00  0.00    +0.000 C 
BRANCH  27  28
ATOM     28  O   UNL     1       1.170   1.087   0.000  0.00  0.00    +0.000 OA
BRANCH  28  30
ATOM     29  O   UNL     1       2.197   2.081   0.000  0.00  0.00    +0.000 OA
ATOM     30  C   UNL     1       1.965   1.286   0.000  0.00  0.00    +0.000 C 
BRANCH  30  31
ATOM     31  C   UNL     1       2.539   0.701   0.000  0.00  0.00    +0.000 A 
ATOM     32  C   UNL     1       3.345   0.900   0.000  0.00  0.00    +0.000 A 
ATOM     33  C   UNL     1       2.318  -0.094   0.000  0.00  0.00    +0.000 A 
ATOM     34  C   UNL     1       3.919   0.315   0.000  0.00  0.00    +0.000 A 
ATOM     35  C   UNL     1       2.904  -0.690   0.000  0.00  0.00    +0.000 A 
ATOM     36  C   UNL     1       3.699  -0.480   0.000  0.00  0.00    +0.000 A 
BRANCH  34  37
ATOM     37  S   UNL     1       4.714   0.513   0.000  0.00  0.00    +0.000 S 
ATOM     38  O   UNL     1       5.520   0.723   0.000  0.00  0.00    +0.000 OA
ATOM     39  O   UNL     1       4.516   1.319   0.000  0.00  0.00    +0.000 OA
ATOM     40  O   UNL     1       4.924  -0.281   0.000  0.00  0.00    +0.000 OA
ENDBRANCH  34  37
ENDBRANCH  30  31
ENDBRANCH  28  30
ENDBRANCH  27  28
ENDBRANCH  26  27
ENDBRANCH   9  26
TORSDOF 6
