REMARK  Name = 
REMARK  4 active torsions:
REMARK  status: ('A' for Active; 'I' for Inactive)
REMARK    1  A    between atoms: C_1  and  S_4
REMARK    2  A    between atoms: C_2  and  C_6
REMARK    3  A    between atoms: S_4  and  HG_8
REMARK    4  A    between atoms: HG_8  and  C_12
REMARK                            x       y       z     vdW  Elec       q    Type
REMARK                         _______ _______ _______ _____ _____    ______ ____
ROOT
ATOM      1  C   UNL     1      -0.714  -0.206   0.000  0.00  0.00    +0.000 A 
ATOM      2  C   UNL     1      -1.429   0.206   0.000  0.00  0.00    +0.000 A 
ATOM      3  C   UNL     1      -0.714  -1.031   0.000  0.00  0.00    +0.000 A 
ATOM      4  C   UNL     1      -2.143  -0.206   0.000  0.00  0.00    +0.000 A 
ATOM      5  C   UNL     1      -1.429  -1.444   0.000  0.00  0.00    +0.000 A 
ATOM      6  C   UNL     1      -2.143  -1.031   0.000  0.00  0.00    +0.000 A 
ENDROOT
BRANCH   2   7
ATOM      7  C   UNL     1      -1.429   1.031   0.000  0.00  0.00    +0.000 C 
ATOM      8  O   UNL     1      -2.143   1.444   0.000  0.00  0.00    +0.000 OA
ATOM      9  O   UNL     1      -0.714   1.444   0.000  0.00  0.00    +0.000 OA
ENDBRANCH   2   7
BRANCH   1  10
ATOM     10  S   UNL     1       0.000   0.206   0.000  0.00  0.00    +0.000 S 
BRANCH  10  11
ATOM     11 HG   UNL     1       0.715  -0.206   0.000  0.00  0.00    +0.000 Hg
BRANCH  11  12
ATOM     12  C   UNL     1       1.429   0.206   0.000  0.00  0.00    +0.000 C 
ATOM     13  C   UNL     1       2.143  -0.206   0.000  0.00  0.00    +0.000 C 
ENDBRANCH  11  12
ENDBRANCH  10  11
ENDBRANCH   1  10
TORSDOF 4
REMARK  Name = 
REMARK  4 active torsions:
REMARK  status: ('A' for Active; 'I' for Inactive)
REMARK    1  A    between atoms: C_1  and  S_4
REMARK    2  A    between atoms: C_2  and  C_6
REMARK    3  A    between atoms: S_4  and  HG_8
REMARK    4  A    between atoms: HG_8  and  C_12
REMARK                            x       y       z     vdW  Elec       q    Type
REMARK                         _______ _______ _______ _____ _____    ______ ____
ROOT
ATOM      1 NA   UNL     1       0.763   1.363   0.000  0.00  0.00    +0.000 Na
ENDROOT
TORSDOF 0
