REMARK  Name = 
REMARK  23 active torsions:
REMARK  status: ('A' for Active; 'I' for Inactive)
REMARK    1  A    between atoms: O_2  and  C_3
REMARK    2  A    between atoms: C_3  and  C_4
REMARK    3  A    between atoms: C_4  and  O_5
REMARK    4  A    between atoms: O_5  and  C_6
REMARK    5  A    between atoms: N_8  and  C_9
REMARK    6  A    between atoms: C_9  and  C_10
REMARK    7  A    between atoms: C_10  and  C_11
REMARK    8  A    between atoms: C_11  and  C_12
REMARK    9  A    between atoms: C_12  and  C_13
REMARK   10  A    between atoms: C_13  and  C_14
REMARK   11  A    between atoms: C_13  and  N_28
REMARK   12  A    between atoms: N_16  and  C_17
REMARK   13  A    between atoms: C_17  and  C_18
REMARK   14  A    between atoms: C_18  and  C_19
REMARK   15  A    between atoms: C_19  and  C_20
REMARK   16  A    between atoms: C_20  and  C_21
REMARK   17  A    between atoms: C_21  and  C_22
REMARK   18  A    between atoms: C_22  and  O_23
REMARK   19  A    between atoms: O_23  and  P_24
REMARK   20  A    between atoms: C_29  and  O_31
REMARK   21  A    between atoms: O_31  and  C_32
REMARK   22  A    between atoms: C_32  and  C_33
REMARK   23  A    between atoms: C_33  and  O_34
REMARK                            x       y       z     vdW  Elec       q    Type
REMARK                         _______ _______ _______ _____ _____    ______ ____
ROOT
ATOM      1  C   UNL     1      16.330   6.128   0.000  0.00  0.00    +0.000 C 
ENDROOT
BRANCH   1   2
ATOM      2  N   UNL     1      16.330   6.953   0.000  0.00  0.00    +0.000 NA
ATOM      3  C   UNL     1      15.616   7.366   0.000  0.00  0.00    +0.000 C 
ATOM      4  O   UNL     1      14.901   6.953   0.000  0.00  0.00    +0.000 OA
BRANCH   3   5
ATOM      5  O   UNL     1      15.616   8.191   0.000  0.00  0.00    +0.000 OA
BRANCH   5   6
ATOM      6  C   UNL     1      14.901   8.603   0.000  0.00  0.00    +0.000 C 
BRANCH   6   7
ATOM      7  C   UNL     1      14.901   9.428   0.000  0.00  0.00    +0.000 C 
BRANCH   7   8
ATOM      8  O   UNL     1      14.187   9.841   0.000  0.00  0.00    +0.000 OA
ATOM      9  C   UNL     1      14.187  10.666   0.000  0.00  0.00    +0.000 C 
ENDBRANCH   7   8
ENDBRANCH   6   7
ENDBRANCH   5   6
ENDBRANCH   3   5
ENDBRANCH   1   2
BRANCH   1  10
ATOM     10  C   UNL     1      17.045   5.716   0.000  0.00  0.00    +0.000 C 
ATOM     11  O   UNL     1      17.045   4.891   0.000  0.00  0.00    +0.000 OA
ATOM     12  N   UNL     1      17.759   6.128   0.000  0.00  0.00    +0.000 NA
BRANCH  12  13
ATOM     13  C   UNL     1      18.474   5.716   0.000  0.00  0.00    +0.000 C 
BRANCH  13  14
ATOM     14  C   UNL     1      19.188   6.128   0.000  0.00  0.00    +0.000 C 
BRANCH  14  15
ATOM     15  C   UNL     1      19.903   5.716   0.000  0.00  0.00    +0.000 C 
BRANCH  15  16
ATOM     16  C   UNL     1      20.617   6.128   0.000  0.00  0.00    +0.000 C 
BRANCH  16  17
ATOM     17  C   UNL     1      21.331   5.716   0.000  0.00  0.00    +0.000 C 
BRANCH  17  18
ATOM     18  C   UNL     1      22.046   6.128   0.000  0.00  0.00    +0.000 C 
BRANCH  18  19
ATOM     19  O   UNL     1      22.761   5.716   0.000  0.00  0.00    +0.000 OA
BRANCH  19  20
ATOM     20  P   UNL     1      23.475   6.128   0.000  0.00  0.00    +0.000 P 
ATOM     21  O   UNL     1      24.189   6.541   0.000  0.00  0.00    +0.000 OA
ATOM     22  O   UNL     1      23.887   5.414   0.000  0.00  0.00    +0.000 OA
ATOM     23  O   UNL     1      23.062   6.843   0.000  0.00  0.00    +0.000 OA
ENDBRANCH  19  20
ENDBRANCH  18  19
ENDBRANCH  17  18
ENDBRANCH  16  17
ENDBRANCH  15  16
ENDBRANCH  14  15
ENDBRANCH  13  14
ENDBRANCH  12  13
ENDBRANCH   1  10
BRANCH   1  24
ATOM     24  C   UNL     1      15.616   5.716   0.000  0.00  0.00    +0.000 C 
BRANCH  24  25
ATOM     25  C   UNL     1      14.901   6.128   0.000  0.00  0.00    +0.000 C 
BRANCH  25  26
ATOM     26  C   UNL     1      14.187   5.716   0.000  0.00  0.00    +0.000 C 
BRANCH  26  27
ATOM     27  C   UNL     1      13.472   6.128   0.000  0.00  0.00    +0.000 C 
BRANCH  27  30
ATOM     28  C   UNL     1      12.043   6.128   0.000  0.00  0.00    +0.000 C 
ATOM     29  O   UNL     1      12.043   6.953   0.000  0.00  0.00    +0.000 OA
ATOM     30  N   UNL     1      12.758   5.716   0.000  0.00  0.00    +0.000 NA
BRANCH  28  31
ATOM     31  O   UNL     1      11.329   5.716   0.000  0.00  0.00    +0.000 OA
BRANCH  31  32
ATOM     32  C   UNL     1      10.614   6.128   0.000  0.00  0.00    +0.000 C 
BRANCH  32  33
ATOM     33  C   UNL     1       9.900   5.716   0.000  0.00  0.00    +0.000 C 
BRANCH  33  35
ATOM     34  C   UNL     1       8.471   5.716   0.000  0.00  0.00    +0.000 C 
ATOM     35  O   UNL     1       9.185   6.128   0.000  0.00  0.00    +0.000 OA
ENDBRANCH  33  35
ENDBRANCH  32  33
ENDBRANCH  31  32
ENDBRANCH  28  31
ENDBRANCH  27  30
ENDBRANCH  26  27
ENDBRANCH  25  26
ENDBRANCH  24  25
ENDBRANCH   1  24
TORSDOF 23
