REMARK  Name = 
REMARK  5 active torsions:
REMARK  status: ('A' for Active; 'I' for Inactive)
REMARK    1  A    between atoms: C_2  and  N_3
REMARK    2  A    between atoms: C_4  and  C_6
REMARK    3  A    between atoms: C_6  and  C_7
REMARK    4  A    between atoms: C_9  and  C_10
REMARK    5  A    between atoms: C_19  and  O_20
REMARK                            x       y       z     vdW  Elec       q    Type
REMARK                         _______ _______ _______ _____ _____    ______ ____
ROOT
ATOM      1  C   UNL     1       2.452   1.289   0.000  0.00  0.00    +0.000 C 
ATOM      2  N   UNL     1       3.181   1.675   0.000  0.00  0.00    +0.000 NA
ATOM      3  C   UNL     1       3.938   1.347   0.000  0.00  0.00    +0.000 C 
ATOM      4  C   UNL     1       4.152   0.550   0.000  0.00  0.00    +0.000 A 
ATOM      5  C   UNL     1       4.972   0.459   0.000  0.00  0.00    +0.000 A 
ATOM      6  C   UNL     1       5.303  -0.296   0.000  0.00  0.00    +0.000 A 
ATOM      7  C   UNL     1       4.815  -0.961   0.000  0.00  0.00    +0.000 A 
ATOM      8  C   UNL     1       3.995  -0.870   0.000  0.00  0.00    +0.000 A 
ATOM      9  C   UNL     1       3.663  -0.115   0.000  0.00  0.00    +0.000 A 
ATOM     10  N   UNL     1       2.839  -0.147   0.000  0.00  0.00    +0.000 N 
ATOM     11  C   UNL     1       2.412  -0.852   0.000  0.00  0.00    +0.000 A 
ATOM     12  C   UNL     1       2.732  -1.613   0.000  0.00  0.00    +0.000 C 
ATOM     13  N   UNL     1       1.609  -0.664   0.000  0.00  0.00    +0.000 NA
ATOM     14  N   UNL     1       1.540   0.158   0.000  0.00  0.00    +0.000 NA
ATOM     15  C   UNL     1       2.300   0.478   0.000  0.00  0.00    +0.000 A 
ENDROOT
BRANCH   3  16
ATOM     16  C   UNL     1       4.562   1.886   0.000  0.00  0.00    +0.000 A 
ATOM     17  C   UNL     1       4.407   2.696   0.000  0.00  0.00    +0.000 A 
ATOM     18  C   UNL     1       5.032   3.235   0.000  0.00  0.00    +0.000 A 
ATOM     19  C   UNL     1       5.811   2.964   0.000  0.00  0.00    +0.000 A 
ATOM     20 CL   UNL     1       6.435   3.503   0.000  0.00  0.00    +0.000 Cl
ATOM     21  C   UNL     1       5.965   2.154   0.000  0.00  0.00    +0.000 A 
ATOM     22  C   UNL     1       5.341   1.615   0.000  0.00  0.00    +0.000 A 
ENDBRANCH   3  16
BRANCH   6  23
ATOM     23  O   UNL     1       6.123  -0.388   0.000  0.00  0.00    +0.000 OA
ATOM     24  C   UNL     1       6.455  -1.143   0.000  0.00  0.00    +0.000 C 
ENDBRANCH   6  23
BRANCH   1  25
ATOM     25  C   UNL     1       1.787   1.778   0.000  0.00  0.00    +0.000 C 
BRANCH  25  27
ATOM     26  N   UNL     1       0.367   1.935   0.000  0.00  0.00    +0.000 NA
ATOM     27  C   UNL     1       1.032   1.446   0.000  0.00  0.00    +0.000 C 
ATOM     28  O   UNL     1       0.941   0.626   0.000  0.00  0.00    +0.000 OA
BRANCH  26  30
ATOM     29  C   UNL     1      -1.053   2.093   0.000  0.00  0.00    +0.000 C 
ATOM     30  C   UNL     1      -0.388   1.604   0.000  0.00  0.00    +0.000 C 
ENDBRANCH  26  30
ENDBRANCH  25  27
ENDBRANCH   1  25
TORSDOF 5
