REMARK  Name = 
REMARK  2 active torsions:
REMARK  status: ('A' for Active; 'I' for Inactive)
REMARK    1  A    between atoms: C_7  and  N_8
REMARK    2  A    between atoms: N_8  and  C_9
REMARK                            x       y       z     vdW  Elec       q    Type
REMARK                         _______ _______ _______ _____ _____    ______ ____
ROOT
ATOM      1  C   UNL     1       2.290   0.594   0.000  0.00  0.00    +0.000 C 
ATOM      2  C   UNL     1       1.764   1.229   0.000  0.00  0.00    +0.000 A 
ATOM      3  C   UNL     1       0.950   1.091   0.000  0.00  0.00    +0.000 A 
ATOM      4  N   UNL     1       0.424   1.727   0.000  0.00  0.00    +0.000 N 
ATOM      5  C   UNL     1       0.711   2.500   0.000  0.00  0.00    +0.000 A 
ATOM      6  O   UNL     1       0.185   3.136   0.000  0.00  0.00    +0.000 OA
ATOM      7  C   UNL     1       1.525   2.638   0.000  0.00  0.00    +0.000 A 
ATOM      8  C   UNL     1       2.051   2.002   0.000  0.00  0.00    +0.000 A 
ATOM      9  C   UNL     1      -0.343   1.423   0.000  0.00  0.00    +0.000 C 
ATOM     10  C   UNL     1      -1.074   1.040   0.000  0.00  0.00    +0.000 C 
ATOM     11  C   UNL     1      -1.770   1.482   0.000  0.00  0.00    +0.000 C 
ATOM     12  C   UNL     1      -1.736   2.306   0.000  0.00  0.00    +0.000 C 
ATOM     13  C   UNL     1      -1.005   2.689   0.000  0.00  0.00    +0.000 C 
ATOM     14  C   UNL     1      -0.309   2.247   0.000  0.00  0.00    +0.000 C 
ATOM     15  N   UNL     1      -0.291   0.599   0.000  0.00  0.00    +0.000 NA
ATOM     16  C   UNL     1       0.508   0.395   0.000  0.00  0.00    +0.000 C 
ATOM     17  O   UNL     1       0.812  -0.372   0.000  0.00  0.00    +0.000 OA
ENDROOT
BRANCH   7  18
ATOM     18  N   UNL     1       1.812   3.411   0.000  0.00  0.00    +0.000 NA
BRANCH  18  19
ATOM     19  C   UNL     1       2.626   3.549   0.000  0.00  0.00    +0.000 A 
ATOM     20  C   UNL     1       2.913   4.322   0.000  0.00  0.00    +0.000 A 
ATOM     21  C   UNL     1       3.726   4.460   0.000  0.00  0.00    +0.000 A 
ATOM     22  N   UNL     1       4.014   5.234   0.000  0.00  0.00    +0.000 NA
ATOM     23  N   UNL     1       4.252   3.825   0.000  0.00  0.00    +0.000 NA
ATOM     24  C   UNL     1       3.965   3.051   0.000  0.00  0.00    +0.000 A 
ATOM     25  N   UNL     1       3.152   2.914   0.000  0.00  0.00    +0.000 NA
ENDBRANCH  18  19
ENDBRANCH   7  18
TORSDOF 2
