REMARK  Name = 
REMARK  5 active torsions:
REMARK  status: ('A' for Active; 'I' for Inactive)
REMARK    1  A    between atoms: N_6  and  C_9
REMARK    2  A    between atoms: C_11  and  C_12
REMARK    3  A    between atoms: C_12  and  O_13
REMARK    4  A    between atoms: O_13  and  P_14
REMARK    5  A    between atoms: C_19  and  C_21
REMARK                            x       y       z     vdW  Elec       q    Type
REMARK                         _______ _______ _______ _____ _____    ______ ____
ROOT
ATOM      1  C   UNL     1       3.046  -4.126   0.000  0.00  0.00    +0.000 C 
ATOM      2  O   UNL     1       3.713  -4.611   0.000  0.00  0.00    +0.000 OA
ATOM      3  C   UNL     1       3.458  -5.396   0.000  0.00  0.00    +0.000 C 
ATOM      4  C   UNL     1       2.633  -5.396   0.000  0.00  0.00    +0.000 C 
ATOM      5  O   UNL     1       2.148  -6.063   0.000  0.00  0.00    +0.000 OA
ATOM      6  C   UNL     1       2.378  -4.611   0.000  0.00  0.00    +0.000 C 
ATOM      7  O   UNL     1       1.594  -4.356   0.000  0.00  0.00    +0.000 OA
ENDROOT
BRANCH   1  13
ATOM      8  N   UNL     1       3.046  -0.826   0.000  0.00  0.00    +0.000 NA
ATOM      9  C   UNL     1       3.046  -1.651   0.000  0.00  0.00    +0.000 A 
ATOM     10  N   UNL     1       3.760  -2.064   0.000  0.00  0.00    +0.000 NA
ATOM     11  C   UNL     1       3.760  -2.889   0.000  0.00  0.00    +0.000 A 
ATOM     12  O   UNL     1       4.475  -3.301   0.000  0.00  0.00    +0.000 OA
ATOM     13  N   UNL     1       3.046  -3.301   0.000  0.00  0.00    +0.000 N 
ATOM     14  C   UNL     1       2.331  -2.889   0.000  0.00  0.00    +0.000 A 
ATOM     15  C   UNL     1       2.331  -2.064   0.000  0.00  0.00    +0.000 A 
ENDBRANCH   1  13
BRANCH   3  16
ATOM     16  C   UNL     1       3.943  -6.063   0.000  0.00  0.00    +0.000 C 
BRANCH  16  17
ATOM     17  O   UNL     1       4.764  -5.977   0.000  0.00  0.00    +0.000 OA
BRANCH  17  18
ATOM     18  P   UNL     1       5.249  -6.645   0.000  0.00  0.00    +0.000 P 
ATOM     19  O   UNL     1       4.507  -7.006   0.000  0.00  0.00    +0.000 OA
ATOM     20  O   UNL     1       5.822  -6.051   0.000  0.00  0.00    +0.000 OA
ATOM     21  C   UNL     1       6.622  -6.251   0.000  0.00  0.00    +0.000 C 
ATOM     22  C   UNL     1       6.850  -7.044   0.000  0.00  0.00    +0.000 C 
ATOM     23  C   UNL     1       6.277  -7.637   0.000  0.00  0.00    +0.000 C 
ATOM     24  O   UNL     1       5.476  -7.438   0.000  0.00  0.00    +0.000 OA
BRANCH  23  25
ATOM     25  C   UNL     1       6.504  -8.430   0.000  0.00  0.00    +0.000 A 
ATOM     26  C   UNL     1       7.304  -8.630   0.000  0.00  0.00    +0.000 A 
ATOM     27  C   UNL     1       7.532  -9.423   0.000  0.00  0.00    +0.000 A 
ATOM     28  N   UNL     1       6.959 -10.016   0.000  0.00  0.00    +0.000 NA
ATOM     29  C   UNL     1       6.158  -9.817   0.000  0.00  0.00    +0.000 A 
ATOM     30  C   UNL     1       5.931  -9.024   0.000  0.00  0.00    +0.000 A 
ENDBRANCH  23  25
ENDBRANCH  17  18
ENDBRANCH  16  17
ENDBRANCH   3  16
TORSDOF 5
