REMARK  Name = 
REMARK  11 active torsions:
REMARK  status: ('A' for Active; 'I' for Inactive)
REMARK    1  A    between atoms: C_2  and  C_3
REMARK    2  A    between atoms: C_2  and  C_30
REMARK    3  A    between atoms: C_3  and  C_4
REMARK    4  A    between atoms: C_4  and  C_5
REMARK    5  A    between atoms: C_5  and  O_6
REMARK    6  A    between atoms: O_6  and  C_7
REMARK    7  A    between atoms: C_12  and  C_13
REMARK    8  A    between atoms: C_13  and  N_14
REMARK    9  A    between atoms: C_19  and  C_20
REMARK   10  A    between atoms: C_23  and  C_26
REMARK   11  A    between atoms: C_30  and  C_31
REMARK                            x       y       z     vdW  Elec       q    Type
REMARK                         _______ _______ _______ _____ _____    ______ ____
ROOT
ATOM      1  C   UNL     1       3.736   0.692   0.000  0.00  0.00    +0.000 C 
ENDROOT
BRANCH   1   2
ATOM      2  N   UNL     1       3.736   1.517   0.000  0.00  0.00    +0.000 N 
ATOM      3  C   UNL     1       3.068   2.002   0.000  0.00  0.00    +0.000 A 
ATOM      4  C   UNL     1       2.284   1.747   0.000  0.00  0.00    +0.000 C 
ATOM      5  C   UNL     1       3.323   2.787   0.000  0.00  0.00    +0.000 A 
ATOM      6  N   UNL     1       4.148   2.787   0.000  0.00  0.00    +0.000 NA
ATOM      7  C   UNL     1       4.403   2.002   0.000  0.00  0.00    +0.000 A 
BRANCH   7   8
ATOM      8  C   UNL     1       5.188   1.747   0.000  0.00  0.00    +0.000 A 
ATOM      9  C   UNL     1       5.801   2.299   0.000  0.00  0.00    +0.000 A 
ATOM     10  C   UNL     1       6.586   2.045   0.000  0.00  0.00    +0.000 A 
ATOM     11  C   UNL     1       6.757   1.238   0.000  0.00  0.00    +0.000 A 
ATOM     12  C   UNL     1       6.144   0.685   0.000  0.00  0.00    +0.000 A 
ATOM     13  C   UNL     1       5.359   0.940   0.000  0.00  0.00    +0.000 A 
BRANCH  11  14
ATOM     14  C   UNL     1       7.542   0.983   0.000  0.00  0.00    +0.000 C 
ATOM     15  F   UNL     1       8.326   0.728   0.000  0.00  0.00    +0.000 F 
ATOM     16  F   UNL     1       7.797   1.767   0.000  0.00  0.00    +0.000 F 
ATOM     17  F   UNL     1       7.287   0.198   0.000  0.00  0.00    +0.000 F 
ENDBRANCH  11  14
ENDBRANCH   7   8
ENDBRANCH   1   2
BRANCH   1  23
ATOM     18  C   UNL     1       3.021  -0.545   0.000  0.00  0.00    +0.000 A 
ATOM     19  C   UNL     1       2.307  -0.958   0.000  0.00  0.00    +0.000 A 
ATOM     20  C   UNL     1       1.592  -0.545   0.000  0.00  0.00    +0.000 A 
ATOM     21  C   UNL     1       1.592   0.280   0.000  0.00  0.00    +0.000 A 
ATOM     22  C   UNL     1       2.307   0.692   0.000  0.00  0.00    +0.000 A 
ATOM     23  C   UNL     1       3.021   0.280   0.000  0.00  0.00    +0.000 A 
BRANCH  18  24
ATOM     24  O   UNL     1       3.736  -0.958   0.000  0.00  0.00    +0.000 OA
BRANCH  24  25
ATOM     25  C   UNL     1       4.450  -0.545   0.000  0.00  0.00    +0.000 C 
BRANCH  25  26
ATOM     26  C   UNL     1       5.165  -0.958   0.000  0.00  0.00    +0.000 C 
BRANCH  26  27
ATOM     27  C   UNL     1       5.879  -0.545   0.000  0.00  0.00    +0.000 C 
BRANCH  27  29
ATOM     28  C   UNL     1       6.594  -1.783   0.000  0.00  0.00    +0.000 C 
ATOM     29  C   UNL     1       6.594  -0.958   0.000  0.00  0.00    +0.000 C 
BRANCH  29  30
ATOM     30  C   UNL     1       7.308  -0.545   0.000  0.00  0.00    +0.000 C 
BRANCH  30  31
ATOM     31  C   UNL     1       8.023  -0.958   0.000  0.00  0.00    +0.000 C 
ATOM     32  O   UNL     1       8.737  -0.545   0.000  0.00  0.00    +0.000 OA
ATOM     33  O   UNL     1       8.023  -1.783   0.000  0.00  0.00    +0.000 OA
ENDBRANCH  30  31
ENDBRANCH  29  30
ENDBRANCH  27  29
ENDBRANCH  26  27
ENDBRANCH  25  26
ENDBRANCH  24  25
ENDBRANCH  18  24
ENDBRANCH   1  23
TORSDOF 11
