REMARK  Name = 
REMARK  5 active torsions:
REMARK  status: ('A' for Active; 'I' for Inactive)
REMARK    1  A    between atoms: C_1  and  N_2
REMARK    2  A    between atoms: C_1  and  O_3
REMARK    3  A    between atoms: C_1  and  C_4
REMARK    4  A    between atoms: O_3  and  C_7
REMARK    5  A    between atoms: C_4  and  C_8
REMARK                            x       y       z     vdW  Elec       q    Type
REMARK                         _______ _______ _______ _____ _____    ______ ____
ROOT
ATOM      1  C   UNL     1       0.722   0.427   0.000  0.00  0.00    +0.000 C 
ENDROOT
BRANCH   1   2
ATOM      2  N   UNL     1       0.728  -0.429   0.000  0.00  0.00    +0.000 N 
ATOM      3  C   UNL     1       0.065  -0.977   0.000  0.00  0.00    +0.000 A 
ATOM      4  C   UNL     1       1.446  -0.889   0.000  0.00  0.00    +0.000 A 
ATOM      5  C   UNL     1       0.377  -1.708   0.000  0.00  0.00    +0.000 A 
ATOM      6  N   UNL     1       1.174  -1.708   0.000  0.00  0.00    +0.000 NA
ENDBRANCH   1   2
BRANCH   1   7
ATOM      7  C   UNL     1       1.388   0.869   0.000  0.00  0.00    +0.000 C 
ATOM      8  O   UNL     1       1.388   1.708   0.000  0.00  0.00    +0.000 OA
BRANCH   7   9
ATOM      9  C   UNL     1       2.126   0.487   0.000  0.00  0.00    +0.000 C 
ATOM     10  C   UNL     1       2.477   1.232   0.000  0.00  0.00    +0.000 C 
ATOM     11  C   UNL     1       2.871   0.108   0.000  0.00  0.00    +0.000 C 
ATOM     12  C   UNL     1       1.751  -0.243   0.000  0.00  0.00    +0.000 C 
ENDBRANCH   7   9
ENDBRANCH   1   7
BRANCH   1  13
ATOM     13  O   UNL     1      -0.062   0.759   0.000  0.00  0.00    +0.000 OA
BRANCH  13  14
ATOM     14  C   UNL     1      -0.710   0.267   0.000  0.00  0.00    +0.000 A 
ATOM     15  C   UNL     1      -0.710  -0.538   0.000  0.00  0.00    +0.000 A 
ATOM     16  C   UNL     1      -1.436   0.655   0.000  0.00  0.00    +0.000 A 
ATOM     17  C   UNL     1      -1.408  -0.977   0.000  0.00  0.00    +0.000 A 
ATOM     18  C   UNL     1      -2.161   0.237   0.000  0.00  0.00    +0.000 A 
ATOM     19  C   UNL     1      -2.161  -0.594   0.000  0.00  0.00    +0.000 A 
ATOM     20 CL   UNL     1      -2.871  -1.004   0.000  0.00  0.00    +0.000 Cl
ENDBRANCH  13  14
ENDBRANCH   1  13
TORSDOF 5
