REMARK  Name = 
REMARK  0 active torsions:
REMARK  status: ('A' for Active; 'I' for Inactive)
REMARK                            x       y       z     vdW  Elec       q    Type
REMARK                         _______ _______ _______ _____ _____    ______ ____
ROOT
ATOM      1 FE   UNL     1      -0.033  -0.039   0.000  0.00  0.00    +0.000 Fe
ENDROOT
TORSDOF 0
REMARK  Name = 
REMARK  0 active torsions:
REMARK  status: ('A' for Active; 'I' for Inactive)
REMARK                            x       y       z     vdW  Elec       q    Type
REMARK                         _______ _______ _______ _____ _____    ______ ____
ROOT
ATOM      1  N   UNL     1      -0.001  -1.145   0.000  0.00  0.00    +0.000 NA
ATOM      2  N   UNL     1      -0.028   1.112   0.000  0.00  0.00    +0.000 NA
ATOM      3  N   UNL     1      -1.240  -0.016   0.000  0.00  0.00    +0.000 NA
ATOM      4  N   UNL     1       1.237  -0.016   0.000  0.00  0.00    +0.000 NA
ATOM      5  C   UNL     1      -0.662  -1.668   0.000  0.00  0.00    +0.000 A 
ATOM      6  C   UNL     1       0.660  -1.640   0.000  0.00  0.00    +0.000 A 
ATOM      7  C   UNL     1      -0.689   1.635   0.000  0.00  0.00    +0.000 A 
ATOM      8  C   UNL     1       0.660   1.663   0.000  0.00  0.00    +0.000 A 
ATOM      9  C   UNL     1      -1.707  -0.649   0.000  0.00  0.00    +0.000 C 
ATOM     10  C   UNL     1       1.732  -0.622   0.000  0.00  0.00    +0.000 C 
ATOM     11  C   UNL     1      -1.707   0.617   0.000  0.00  0.00    +0.000 C 
ATOM     12  C   UNL     1       1.704   0.644   0.000  0.00  0.00    +0.000 C 
ATOM     13  C   UNL     1      -1.459  -1.419   0.000  0.00  0.00    +0.000 C 
ATOM     14  C   UNL     1       1.485  -1.419   0.000  0.00  0.00    +0.000 C 
ATOM     15  C   UNL     1      -1.486   1.414   0.000  0.00  0.00    +0.000 C 
ATOM     16  C   UNL     1       1.457   1.414   0.000  0.00  0.00    +0.000 C 
ATOM     17  C   UNL     1      -0.413  -2.437   0.000  0.00  0.00    +0.000 A 
ATOM     18  C   UNL     1       0.412  -2.437   0.000  0.00  0.00    +0.000 A 
ATOM     19  C   UNL     1      -0.441   2.432   0.000  0.00  0.00    +0.000 A 
ATOM     20  C   UNL     1       0.384   2.432   0.000  0.00  0.00    +0.000 A 
ATOM     21  C   UNL     1      -2.505  -0.429   0.000  0.00  0.00    +0.000 C 
ATOM     22  C   UNL     1       2.503  -0.401   0.000  0.00  0.00    +0.000 C 
ATOM     23  C   UNL     1      -2.505   0.396   0.000  0.00  0.00    +0.000 C 
ATOM     24  C   UNL     1       2.503   0.424   0.000  0.00  0.00    +0.000 C 
ENDROOT
TORSDOF 0
