REMARK  Name = 
REMARK  0 active torsions:
REMARK  status: ('A' for Active; 'I' for Inactive)
REMARK                            x       y       z     vdW  Elec       q    Type
REMARK                         _______ _______ _______ _____ _____    ______ ____
ROOT
ATOM      1  O   UNL     1       1.077  -0.003   0.000  0.00  0.00    +0.000 OA
ATOM      2  C   UNL     1       0.355   0.415   0.000  0.00  0.00    +0.000 A 
ATOM      3  C   UNL     1       1.077  -0.828   0.000  0.00  0.00    +0.000 A 
ATOM      4  C   UNL     1      -0.355  -0.003   0.000  0.00  0.00    +0.000 A 
ATOM      5  N   UNL     1       0.355  -1.240   0.000  0.00  0.00    +0.000 NA
ATOM      6  C   UNL     1      -0.355  -0.828   0.000  0.00  0.00    +0.000 A 
ATOM      7  O   UNL     1       0.355   1.240   0.000  0.00  0.00    +0.000 OA
ATOM      8  O   UNL     1       1.782  -1.240   0.000  0.00  0.00    +0.000 OA
ATOM      9  C   UNL     1      -1.071   0.410   0.000  0.00  0.00    +0.000 A 
ATOM     10  C   UNL     1      -1.071  -1.240   0.000  0.00  0.00    +0.000 A 
ATOM     11  C   UNL     1      -1.782  -0.003   0.000  0.00  0.00    +0.000 A 
ATOM     12  C   UNL     1      -1.782  -0.828   0.000  0.00  0.00    +0.000 A 
ENDROOT
TORSDOF 0
