REMARK  Name = 
REMARK  1 active torsions:
REMARK  status: ('A' for Active; 'I' for Inactive)
REMARK    1  A    between atoms: C_11  and  C_14
REMARK                            x       y       z     vdW  Elec       q    Type
REMARK                         _______ _______ _______ _____ _____    ______ ____
ROOT
ATOM      1  C   UNL     1      -1.072  -0.619   0.000  0.00  0.00    +0.000 A 
ATOM      2  C   UNL     1      -1.072   0.206   0.000  0.00  0.00    +0.000 A 
ATOM      3  C   UNL     1      -0.357  -1.031   0.000  0.00  0.00    +0.000 A 
ATOM      4  C   UNL     1      -1.786  -1.031   0.000  0.00  0.00    +0.000 A 
ATOM      5  O   UNL     1      -0.357   0.619   0.000  0.00  0.00    +0.000 OA
ATOM      6  C   UNL     1      -1.786   0.619   0.000  0.00  0.00    +0.000 A 
ATOM      7  C   UNL     1       0.357  -0.619   0.000  0.00  0.00    +0.000 A 
ATOM      8  O   UNL     1      -0.357  -1.856   0.000  0.00  0.00    +0.000 OA
ATOM      9  C   UNL     1      -2.501  -0.619   0.000  0.00  0.00    +0.000 A 
ATOM     10  O   UNL     1      -1.786  -1.856   0.000  0.00  0.00    +0.000 OA
ATOM     11  C   UNL     1       0.357   0.206   0.000  0.00  0.00    +0.000 A 
ATOM     12  C   UNL     1      -2.501   0.206   0.000  0.00  0.00    +0.000 A 
ATOM     13  O   UNL     1       1.072  -1.031   0.000  0.00  0.00    +0.000 OA
ATOM     14  O   UNL     1      -3.215   0.619   0.000  0.00  0.00    +0.000 OA
ENDROOT
BRANCH  11  15
ATOM     15  C   UNL     1       1.072   0.619   0.000  0.00  0.00    +0.000 A 
ATOM     16  C   UNL     1       1.072   1.444   0.000  0.00  0.00    +0.000 A 
ATOM     17  C   UNL     1       1.786   0.206   0.000  0.00  0.00    +0.000 A 
ATOM     18  C   UNL     1       1.786   1.856   0.000  0.00  0.00    +0.000 A 
ATOM     19  O   UNL     1       0.357   1.856   0.000  0.00  0.00    +0.000 OA
ATOM     20  C   UNL     1       2.501   0.619   0.000  0.00  0.00    +0.000 A 
ATOM     21  C   UNL     1       2.501   1.444   0.000  0.00  0.00    +0.000 A 
ATOM     22  O   UNL     1       3.215   1.856   0.000  0.00  0.00    +0.000 OA
ENDBRANCH  11  15
TORSDOF 1
