REMARK  Name = 
REMARK  1 active torsions:
REMARK  status: ('A' for Active; 'I' for Inactive)
REMARK    1  A    between atoms: CA_1  and  C_3
REMARK                            x       y       z     vdW  Elec       q    Type
REMARK                         _______ _______ _______ _____ _____    ______ ____
ROOT
ATOM      1  CA  PRO A   1      -0.032   0.139   0.000  0.00  0.00    +0.000 C 
ATOM      2  CB  PRO A   1      -0.286   0.923   0.000  0.00  0.00    +0.000 C 
ATOM      3  N   PRO A   1      -0.699  -0.346   0.000  0.00  0.00    +0.000 NA
ATOM      4  CG  PRO A   1      -1.111   0.923   0.000  0.00  0.00    +0.000 C 
ATOM      5  CD  PRO A   1      -1.366   0.139   0.000  0.00  0.00    +0.000 C 
ENDROOT
BRANCH   1   6
ATOM      6  C   PRO A   1       0.770  -0.122   0.000  0.00  0.00    +0.000 C 
ATOM      7  O   PRO A   1       0.925  -0.923   0.000  0.00  0.00    +0.000 OA
ATOM      8  OXT PRO A   1       1.366   0.436   0.000  0.00  0.00    +0.000 OA
ENDBRANCH   1   6
TORSDOF 1
