REMARK  Name = 
REMARK  6 active torsions:
REMARK  status: ('A' for Active; 'I' for Inactive)
REMARK    1  A    between atoms: C_5  and  N_8
REMARK    2  A    between atoms: C_14  and  C_16
REMARK    3  A    between atoms: C_16  and  C_17
REMARK    4  A    between atoms: C_16  and  N_28
REMARK    5  A    between atoms: C_17  and  C_18
REMARK    6  A    between atoms: C_34  and  C_37
REMARK                            x       y       z     vdW  Elec       q    Type
REMARK                         _______ _______ _______ _____ _____    ______ ____
ROOT
ATOM      1  C   UNL     1      -4.287  -1.650   0.000  0.00  0.00    +0.000 C 
ENDROOT
BRANCH   1   2
ATOM      2  N   UNL     1      -4.287  -2.475   0.000  0.00  0.00    +0.000 NA
ATOM      3  C   UNL     1      -3.572  -2.888   0.000  0.00  0.00    +0.000 C 
ATOM      4  O   UNL     1      -3.572  -3.712   0.000  0.00  0.00    +0.000 OA
ATOM      5  N   UNL     1      -2.858  -2.475   0.000  0.00  0.00    +0.000 N 
ATOM      6  C   UNL     1      -2.858  -1.650   0.000  0.00  0.00    +0.000 C 
ATOM      7  C   UNL     1      -2.143  -1.238   0.000  0.00  0.00    +0.000 C 
ATOM      8  C   UNL     1      -1.429  -1.650   0.000  0.00  0.00    +0.000 C 
ATOM      9  C   UNL     1      -1.429  -2.475   0.000  0.00  0.00    +0.000 C 
ATOM     10  C   UNL     1      -2.143  -2.888   0.000  0.00  0.00    +0.000 C 
BRANCH   8  11
ATOM     11  C   UNL     1      -0.715  -1.238   0.000  0.00  0.00    +0.000 A 
ATOM     12  C   UNL     1       0.000  -1.650   0.000  0.00  0.00    +0.000 A 
ATOM     13  C   UNL     1       0.715  -1.238   0.000  0.00  0.00    +0.000 A 
ATOM     14  C   UNL     1       0.715  -0.412   0.000  0.00  0.00    +0.000 A 
ATOM     15  N   UNL     1       0.000   0.000   0.000  0.00  0.00    +0.000 NA
ATOM     16  C   UNL     1      -0.715  -0.412   0.000  0.00  0.00    +0.000 A 
ATOM     17  O   UNL     1      -1.429   0.000   0.000  0.00  0.00    +0.000 OA
ATOM     18  C   UNL     1       1.429   0.000   0.000  0.00  0.00    +0.000 A 
ATOM     19  C   UNL     1       2.143  -0.412   0.000  0.00  0.00    +0.000 A 
ATOM     20  C   UNL     1       2.143  -1.238   0.000  0.00  0.00    +0.000 A 
ATOM     21  C   UNL     1       1.429  -1.650   0.000  0.00  0.00    +0.000 A 
ENDBRANCH   8  11
ENDBRANCH   1   2
BRANCH   1  28
ATOM     22  N   UNL     1      -7.145  -2.475   0.000  0.00  0.00    +0.000 NA
ATOM     23  C   UNL     1      -7.145  -1.650   0.000  0.00  0.00    +0.000 C 
ATOM     24  C   UNL     1      -6.430  -1.238   0.000  0.00  0.00    +0.000 C 
ATOM     25  N   UNL     1      -5.716  -1.650   0.000  0.00  0.00    +0.000 N 
ATOM     26  C   UNL     1      -5.716  -2.475   0.000  0.00  0.00    +0.000 C 
ATOM     27  C   UNL     1      -6.430  -2.888   0.000  0.00  0.00    +0.000 C 
ATOM     28  C   UNL     1      -5.001  -1.238   0.000  0.00  0.00    +0.000 C 
ATOM     29  O   UNL     1      -5.001  -0.412   0.000  0.00  0.00    +0.000 OA
BRANCH  22  34
ATOM     30  C   UNL     1     -10.003  -4.125   0.000  0.00  0.00    +0.000 C 
ATOM     31  N   UNL     1      -9.288  -3.712   0.000  0.00  0.00    +0.000 NA
ATOM     32  C   UNL     1      -9.288  -2.888   0.000  0.00  0.00    +0.000 C 
ATOM     33  C   UNL     1      -8.574  -2.475   0.000  0.00  0.00    +0.000 C 
ATOM     34  C   UNL     1      -7.859  -2.888   0.000  0.00  0.00    +0.000 C 
ATOM     35  C   UNL     1      -7.859  -3.712   0.000  0.00  0.00    +0.000 C 
ATOM     36  C   UNL     1      -8.574  -4.125   0.000  0.00  0.00    +0.000 C 
ENDBRANCH  22  34
ENDBRANCH   1  28
BRANCH   1  37
ATOM     37  C   UNL     1      -3.572  -1.238   0.000  0.00  0.00    +0.000 C 
BRANCH  37  38
ATOM     38  C   UNL     1      -3.572  -0.412   0.000  0.00  0.00    +0.000 A 
ATOM     39  C   UNL     1      -4.287   0.000   0.000  0.00  0.00    +0.000 A 
ATOM     40  C   UNL     1      -4.287   0.825   0.000  0.00  0.00    +0.000 A 
ATOM     41  C   UNL     1      -3.572   1.238   0.000  0.00  0.00    +0.000 A 
ATOM     42  N   UNL     1      -3.744   2.045   0.000  0.00  0.00    +0.000 NA
ATOM     43  N   UNL     1      -4.564   2.131   0.000  0.00  0.00    +0.000 NA
ATOM     44  C   UNL     1      -4.900   1.377   0.000  0.00  0.00    +0.000 A 
ATOM     45  C   UNL     1      -2.858   0.825   0.000  0.00  0.00    +0.000 A 
ATOM     46  C   UNL     1      -2.143   1.238   0.000  0.00  0.00    +0.000 C 
ATOM     47  C   UNL     1      -2.858   0.000   0.000  0.00  0.00    +0.000 A 
ENDBRANCH  37  38
ENDBRANCH   1  37
TORSDOF 6
