REMARK  Name = 
REMARK  6 active torsions:
REMARK  status: ('A' for Active; 'I' for Inactive)
REMARK    1  A    between atoms: N_4  and  C_24
REMARK    2  A    between atoms: N_7  and  S_8
REMARK    3  A    between atoms: S_8  and  C_11
REMARK    4  A    between atoms: C_15  and  C_17
REMARK    5  A    between atoms: C_17  and  C_19
REMARK    6  A    between atoms: C_29  and  C_30
REMARK                            x       y       z     vdW  Elec       q    Type
REMARK                         _______ _______ _______ _____ _____    ______ ____
ROOT
ATOM      1  C   UNL     1       0.715  -0.412   0.000  0.00  0.00    +0.000 C 
ATOM      2  C   UNL     1       0.715  -1.238   0.000  0.00  0.00    +0.000 C 
ATOM      3  C   UNL     1       1.429  -1.650   0.000  0.00  0.00    +0.000 C 
ATOM      4  N   UNL     1       1.429  -2.475   0.000  0.00  0.00    +0.000 N 
ATOM      5  C   UNL     1       0.715  -2.888   0.000  0.00  0.00    +0.000 C 
ATOM      6  C   UNL     1       0.000  -2.475   0.000  0.00  0.00    +0.000 C 
ATOM      7  N   UNL     1       0.000  -1.650   0.000  0.00  0.00    +0.000 NA
ENDROOT
BRANCH   4   8
ATOM      8  C   UNL     1       2.143  -2.888   0.000  0.00  0.00    +0.000 A 
ATOM      9  C   UNL     1       2.858  -2.475   0.000  0.00  0.00    +0.000 A 
ATOM     10  C   UNL     1       3.572  -2.888   0.000  0.00  0.00    +0.000 A 
ATOM     11  C   UNL     1       3.572  -3.712   0.000  0.00  0.00    +0.000 A 
ATOM     12  C   UNL     1       2.858  -4.125   0.000  0.00  0.00    +0.000 A 
ATOM     13  C   UNL     1       2.143  -3.712   0.000  0.00  0.00    +0.000 A 
ATOM     14  F   UNL     1       4.287  -4.125   0.000  0.00  0.00    +0.000 F 
BRANCH  13  15
ATOM     15  C   UNL     1       1.429  -4.125   0.000  0.00  0.00    +0.000 C 
ATOM     16  F   UNL     1       0.715  -4.537   0.000  0.00  0.00    +0.000 F 
ATOM     17  F   UNL     1       1.016  -3.410   0.000  0.00  0.00    +0.000 F 
ATOM     18  F   UNL     1       1.841  -4.840   0.000  0.00  0.00    +0.000 F 
ENDBRANCH  13  15
ENDBRANCH   4   8
BRANCH   7  19
ATOM     19  S   UNL     1      -0.715  -1.238   0.000  0.00  0.00    +0.000 S 
ATOM     20  O   UNL     1      -1.127  -1.952   0.000  0.00  0.00    +0.000 OA
ATOM     21  O   UNL     1      -0.302  -0.523   0.000  0.00  0.00    +0.000 OA
BRANCH  19  22
ATOM     22  C   UNL     1      -1.429  -0.825   0.000  0.00  0.00    +0.000 A 
ATOM     23  C   UNL     1      -2.143  -1.238   0.000  0.00  0.00    +0.000 A 
ATOM     24  C   UNL     1      -2.858  -0.825   0.000  0.00  0.00    +0.000 A 
ATOM     25  C   UNL     1      -2.858   0.000   0.000  0.00  0.00    +0.000 A 
ATOM     26  C   UNL     1      -2.143   0.412   0.000  0.00  0.00    +0.000 A 
ATOM     27  C   UNL     1      -1.429   0.000   0.000  0.00  0.00    +0.000 A 
BRANCH  26  28
ATOM     28  C   UNL     1      -2.143   1.238   0.000  0.00  0.00    +0.000 C 
ATOM     29  C   UNL     1      -1.318   1.238   0.000  0.00  0.00    +0.000 C 
ATOM     30  O   UNL     1      -2.968   1.238   0.000  0.00  0.00    +0.000 OA
BRANCH  28  31
ATOM     31  C   UNL     1      -2.143   2.062   0.000  0.00  0.00    +0.000 C 
ATOM     32  F   UNL     1      -2.143   2.888   0.000  0.00  0.00    +0.000 F 
ATOM     33  F   UNL     1      -2.968   2.062   0.000  0.00  0.00    +0.000 F 
ATOM     34  F   UNL     1      -1.318   2.062   0.000  0.00  0.00    +0.000 F 
ENDBRANCH  28  31
ENDBRANCH  26  28
ENDBRANCH  19  22
ENDBRANCH   7  19
TORSDOF 6
