REMARK  Name = 
REMARK  5 active torsions:
REMARK  status: ('A' for Active; 'I' for Inactive)
REMARK    1  A    between atoms: C_2  and  C_3
REMARK    2  A    between atoms: C_2  and  N_18
REMARK    3  A    between atoms: C_4  and  C_5
REMARK    4  A    between atoms: C_8  and  C_10
REMARK    5  A    between atoms: C_10  and  C_11
REMARK                            x       y       z     vdW  Elec       q    Type
REMARK                         _______ _______ _______ _____ _____    ______ ____
ROOT
ATOM      1  C   UNL     1      -0.608  -1.299   0.000  0.00  0.00    +0.000 A 
ATOM      2  C   UNL     1       0.060  -1.784   0.000  0.00  0.00    +0.000 A 
ATOM      3  C   UNL     1      -0.195  -2.569   0.000  0.00  0.00    +0.000 A 
ATOM      4  C   UNL     1      -1.020  -2.569   0.000  0.00  0.00    +0.000 A 
ATOM      5  S   UNL     1      -1.275  -1.784   0.000  0.00  0.00    +0.000 S 
ENDROOT
BRANCH   1   7
ATOM      6  C   UNL     1      -0.608   0.351   0.000  0.00  0.00    +0.000 C 
ATOM      7  C   UNL     1      -0.608  -0.474   0.000  0.00  0.00    +0.000 C 
BRANCH   6   9
ATOM      8  C   UNL     1       0.107   1.588   0.000  0.00  0.00    +0.000 C 
ATOM      9  C   UNL     1      -0.608   1.176   0.000  0.00  0.00    +0.000 C 
BRANCH   9  10
ATOM     10  N   UNL     1      -1.322   1.588   0.000  0.00  0.00    +0.000 N 
ATOM     11  C   UNL     1      -1.322   2.413   0.000  0.00  0.00    +0.000 C 
ATOM     12  O   UNL     1      -2.037   2.826   0.000  0.00  0.00    +0.000 OA
ATOM     13  N   UNL     1      -0.608   2.826   0.000  0.00  0.00    +0.000 NA
ATOM     14  O   UNL     1      -2.037   1.176   0.000  0.00  0.00    +0.000 OA
ENDBRANCH   9  10
ENDBRANCH   6   9
ENDBRANCH   1   7
BRANCH   4  15
ATOM     15  C   UNL     1      -1.505  -3.236   0.000  0.00  0.00    +0.000 C 
BRANCH  15  16
ATOM     16  C   UNL     1      -1.170  -3.990   0.000  0.00  0.00    +0.000 A 
ATOM     17  C   UNL     1      -0.349  -4.076   0.000  0.00  0.00    +0.000 A 
ATOM     18  C   UNL     1      -0.014  -4.830   0.000  0.00  0.00    +0.000 A 
ATOM     19  C   UNL     1      -0.498  -5.497   0.000  0.00  0.00    +0.000 A 
ATOM     20  C   UNL     1      -1.319  -5.411   0.000  0.00  0.00    +0.000 A 
ATOM     21  C   UNL     1      -1.655  -4.657   0.000  0.00  0.00    +0.000 A 
ATOM     22  F   UNL     1      -0.163  -6.251   0.000  0.00  0.00    +0.000 F 
ENDBRANCH  15  16
ENDBRANCH   4  15
TORSDOF 5
