REMARK  Name = 
REMARK  2 active torsions:
REMARK  status: ('A' for Active; 'I' for Inactive)
REMARK    1  A    between atoms: C_2  and  C_3
REMARK    2  A    between atoms: C_4  and  C_5
REMARK                            x       y       z     vdW  Elec       q    Type
REMARK                         _______ _______ _______ _____ _____    ______ ____
ROOT
ATOM      1  C   UNL     1       4.067   3.173   0.000  0.00  0.00    +0.000 C 
ATOM      2  C   UNL     1       4.067   2.348   0.000  0.00  0.00    +0.000 C 
ENDROOT
BRANCH   2   3
ATOM      3  C   UNL     1       3.352   1.935   0.000  0.00  0.00    +0.000 A 
ATOM      4  C   UNL     1       3.352   1.110   0.000  0.00  0.00    +0.000 A 
ATOM      5  C   UNL     1       2.638   0.698   0.000  0.00  0.00    +0.000 A 
ATOM      6  C   UNL     1       1.923   1.110   0.000  0.00  0.00    +0.000 A 
ATOM      7  O   UNL     1       1.139   0.856   0.000  0.00  0.00    +0.000 OA
ATOM      8  C   UNL     1       0.654   1.523   0.000  0.00  0.00    +0.000 C 
ATOM      9  O   UNL     1       1.139   2.190   0.000  0.00  0.00    +0.000 OA
ATOM     10  C   UNL     1       1.923   1.935   0.000  0.00  0.00    +0.000 A 
ATOM     11  C   UNL     1       2.638   2.348   0.000  0.00  0.00    +0.000 A 
ENDBRANCH   2   3
BRANCH   1  13
ATOM     12  O   UNL     1       4.781   4.410   0.000  0.00  0.00    +0.000 OA
ATOM     13  C   UNL     1       4.781   3.585   0.000  0.00  0.00    +0.000 C 
ATOM     14  N   UNL     1       5.496   3.173   0.000  0.00  0.00    +0.000 N 
ATOM     15  C   UNL     1       6.210   3.585   0.000  0.00  0.00    +0.000 C 
ATOM     16  C   UNL     1       6.925   3.173   0.000  0.00  0.00    +0.000 C 
ATOM     17  C   UNL     1       6.925   2.348   0.000  0.00  0.00    +0.000 C 
ATOM     18  C   UNL     1       6.210   1.935   0.000  0.00  0.00    +0.000 C 
ATOM     19  C   UNL     1       5.496   2.348   0.000  0.00  0.00    +0.000 C 
ENDBRANCH   1  13
TORSDOF 2
