REMARK  Name = 
REMARK  7 active torsions:
REMARK  status: ('A' for Active; 'I' for Inactive)
REMARK    1  A    between atoms: C_5  and  C_7
REMARK    2  A    between atoms: N_8  and  C_9
REMARK    3  A    between atoms: C_9  and  C_10
REMARK    4  A    between atoms: N_11  and  C_12
REMARK    5  A    between atoms: C_12  and  C_13
REMARK    6  A    between atoms: C_36  and  C_38
REMARK    7  A    between atoms: C_59  and  C_63
REMARK                            x       y       z     vdW  Elec       q    Type
REMARK                         _______ _______ _______ _____ _____    ______ ____
ROOT
ATOM      1  C   UNL     1       1.762   4.133   0.000  0.00  0.00    +0.000 A 
ATOM      2  C   UNL     1       1.427   3.379   0.000  0.00  0.00    +0.000 A 
ATOM      3  C   UNL     1       1.909   2.713   0.000  0.00  0.00    +0.000 A 
ATOM      4  N   UNL     1       2.739   2.795   0.000  0.00  0.00    +0.000 NA
ATOM      5  C   UNL     1       3.075   3.549   0.000  0.00  0.00    +0.000 A 
ATOM      6  C   UNL     1       2.580   4.221   0.000  0.00  0.00    +0.000 A 
ATOM      7  C   UNL     1       1.579   1.972   0.000  0.00  0.00    +0.000 A 
ATOM      8  C   UNL     1       0.609   3.292   0.000  0.00  0.00    +0.000 A 
ATOM      9  N   UNL     1       0.059   3.910   0.000  0.00  0.00    +0.000 NA
ATOM     10  C   UNL     1      -0.696   3.577   0.000  0.00  0.00    +0.000 A 
ATOM     11  C   UNL     1      -0.609   2.759   0.000  0.00  0.00    +0.000 A 
ATOM     12  S   UNL     1       0.202   2.586   0.000  0.00  0.00    +0.000 S 
ATOM     13  C   UNL     1      -1.402   3.985   0.000  0.00  0.00    +0.000 C 
ATOM     14  N   UNL     1      -2.116   3.571   0.000  0.00  0.00    +0.000 NA
ATOM     15  O   UNL     1      -1.407   4.812   0.000  0.00  0.00    +0.000 OA
ATOM     16  C   UNL     1       0.766   1.789   0.000  0.00  0.00    +0.000 A 
ATOM     17  O   UNL     1       0.681   0.970   0.000  0.00  0.00    +0.000 OA
ATOM     18  C   UNL     1       1.435   0.635   0.000  0.00  0.00    +0.000 A 
ATOM     19  N   UNL     1       1.987   1.245   0.000  0.00  0.00    +0.000 NA
ATOM     20  C   UNL     1       1.605  -0.173   0.000  0.00  0.00    +0.000 C 
ATOM     21  N   UNL     1       1.005  -0.715   0.000  0.00  0.00    +0.000 NA
ATOM     22  C   UNL     1       2.399  -0.417   0.000  0.00  0.00    +0.000 C 
ATOM     23  C   UNL     1      -2.835   3.984   0.000  0.00  0.00    +0.000 C 
ATOM     24  C   UNL     1      -3.549   3.570   0.000  0.00  0.00    +0.000 C 
ATOM     25  O   UNL     1      -3.557   2.748   0.000  0.00  0.00    +0.000 OA
ATOM     26  N   UNL     1      -4.268   3.984   0.000  0.00  0.00    +0.000 NA
ATOM     27  C   UNL     1      -4.976   3.583   0.000  0.00  0.00    +0.000 C 
ATOM     28  C   UNL     1      -5.682   3.990   0.000  0.00  0.00    +0.000 C 
ATOM     29  C   UNL     1      -5.687   4.818   0.000  0.00  0.00    +0.000 C 
ATOM     30  C   UNL     1      -4.971   2.755   0.000  0.00  0.00    +0.000 A 
ATOM     31  N   UNL     1      -5.643   2.260   0.000  0.00  0.00    +0.000 NA
ATOM     32  C   UNL     1      -5.385   1.476   0.000  0.00  0.00    +0.000 A 
ATOM     33  C   UNL     1      -4.557   1.481   0.000  0.00  0.00    +0.000 A 
ATOM     34  O   UNL     1      -4.312   2.275   0.000  0.00  0.00    +0.000 OA
ATOM     35  C   UNL     1      -5.938   0.897   0.000  0.00  0.00    +0.000 C 
ATOM     36  N   UNL     1      -5.630  -0.019   0.000  0.00  0.00    +0.000 NA
ATOM     37  O   UNL     1      -6.753   1.026   0.000  0.00  0.00    +0.000 OA
ATOM     38  C   UNL     1      -6.089  -0.702   0.000  0.00  0.00    +0.000 C 
ATOM     39  C   UNL     1      -5.724  -1.456   0.000  0.00  0.00    +0.000 C 
ATOM     40  C   UNL     1      -6.907  -0.649   0.000  0.00  0.00    +0.000 C 
ATOM     41  N   UNL     1      -4.907  -1.509   0.000  0.00  0.00    +0.000 NA
ATOM     42  O   UNL     1      -6.184  -2.139   0.000  0.00  0.00    +0.000 OA
ATOM     43  C   UNL     1      -4.536  -2.250   0.000  0.00  0.00    +0.000 C 
ATOM     44  C   UNL     1      -3.719  -2.303   0.000  0.00  0.00    +0.000 C 
ATOM     45  O   UNL     1      -3.361  -3.038   0.000  0.00  0.00    +0.000 OA
ATOM     46  N   UNL     1      -3.259  -1.620   0.000  0.00  0.00    +0.000 NA
ATOM     47  C   UNL     1      -2.442  -1.672   0.000  0.00  0.00    +0.000 C 
ATOM     48  C   UNL     1      -1.982  -0.989   0.000  0.00  0.00    +0.000 C 
ATOM     49  C   UNL     1      -2.071  -2.413   0.000  0.00  0.00    +0.000 A 
ATOM     50  O   UNL     1      -2.458  -3.144   0.000  0.00  0.00    +0.000 OA
ATOM     51  C   UNL     1      -1.878  -3.729   0.000  0.00  0.00    +0.000 A 
ATOM     52  C   UNL     1      -1.143  -3.372   0.000  0.00  0.00    +0.000 A 
ATOM     53  N   UNL     1      -1.262  -2.555   0.000  0.00  0.00    +0.000 NA
ATOM     54  C   UNL     1      -2.026  -4.551   0.000  0.00  0.00    +0.000 C 
ATOM     55  C   UNL     1      -0.412  -3.759   0.000  0.00  0.00    +0.000 C 
ATOM     56  N   UNL     1       0.281  -3.320   0.000  0.00  0.00    +0.000 NA
ATOM     57  O   UNL     1      -0.388  -4.580   0.000  0.00  0.00    +0.000 OA
ATOM     58  C   UNL     1       0.244  -2.494   0.000  0.00  0.00    +0.000 C 
ATOM     59  C   UNL     1       0.919  -1.923   0.000  0.00  0.00    +0.000 C 
ATOM     60  C   UNL     1      -0.473  -2.112   0.000  0.00  0.00    +0.000 C 
ATOM     61  O   UNL     1       1.673  -2.258   0.000  0.00  0.00    +0.000 OA
ENDROOT
BRANCH  43  62
ATOM     62  C   UNL     1      -4.996  -2.933   0.000  0.00  0.00    +0.000 C 
ATOM     63  O   UNL     1      -4.638  -3.668   0.000  0.00  0.00    +0.000 OA
ATOM     64  C   UNL     1      -5.826  -2.874   0.000  0.00  0.00    +0.000 C 
ATOM     65  C   UNL     1      -5.456  -3.616   0.000  0.00  0.00    +0.000 C 
ENDBRANCH  43  62
BRANCH   5  66
ATOM     66  C   UNL     1       3.892   3.636   0.000  0.00  0.00    +0.000 C 
ATOM     67  N   UNL     1       4.375   2.970   0.000  0.00  0.00    +0.000 NA
ATOM     68  O   UNL     1       4.228   4.390   0.000  0.00  0.00    +0.000 OA
BRANCH  67  69
ATOM     69  C   UNL     1       5.192   3.057   0.000  0.00  0.00    +0.000 C 
ATOM     70  C   UNL     1       5.528   3.811   0.000  0.00  0.00    +0.000 C 
BRANCH  69  71
ATOM     71  C   UNL     1       5.674   2.391   0.000  0.00  0.00    +0.000 C 
ATOM     72  N   UNL     1       6.492   2.479   0.000  0.00  0.00    +0.000 NA
ATOM     73  O   UNL     1       5.338   1.637   0.000  0.00  0.00    +0.000 OA
BRANCH  72  74
ATOM     74  C   UNL     1       6.987   1.807   0.000  0.00  0.00    +0.000 C 
ATOM     75  C   UNL     1       6.651   1.053   0.000  0.00  0.00    +0.000 C 
BRANCH  74  76
ATOM     76  C   UNL     1       7.804   1.894   0.000  0.00  0.00    +0.000 C 
ATOM     77  N   UNL     1       8.286   1.228   0.000  0.00  0.00    +0.000 NA
ATOM     78  O   UNL     1       8.140   2.648   0.000  0.00  0.00    +0.000 OA
ENDBRANCH  74  76
ENDBRANCH  72  74
ENDBRANCH  69  71
ENDBRANCH  67  69
ENDBRANCH   5  66
BRANCH  23  79
ATOM     79  C   UNL     1      -2.840   4.812   0.000  0.00  0.00    +0.000 C 
ATOM     80  C   UNL     1      -2.126   5.226   0.000  0.00  0.00    +0.000 C 
ATOM     81  O   UNL     1      -3.546   5.220   0.000  0.00  0.00    +0.000 OA
ENDBRANCH  23  79
TORSDOF 7
