REMARK  Name = 
REMARK  16 active torsions:
REMARK  status: ('A' for Active; 'I' for Inactive)
REMARK    1  A    between atoms: N_1  and  C_2
REMARK    2  A    between atoms: N_1  and  C_16
REMARK    3  A    between atoms: N_1  and  C_20
REMARK    4  A    between atoms: C_2  and  C_3
REMARK    5  A    between atoms: C_3  and  N_4
REMARK    6  A    between atoms: N_4  and  C_5
REMARK    7  A    between atoms: N_4  and  C_12
REMARK    8  A    between atoms: C_5  and  C_6
REMARK    9  A    between atoms: C_6  and  N_7
REMARK   10  A    between atoms: N_7  and  C_8
REMARK   11  A    between atoms: N_7  and  C_24
REMARK   12  A    between atoms: C_8  and  C_9
REMARK   13  A    between atoms: C_12  and  C_13
REMARK   14  A    between atoms: C_16  and  C_17
REMARK   15  A    between atoms: C_20  and  C_22
REMARK   16  A    between atoms: C_24  and  C_26
REMARK                            x       y       z     vdW  Elec       q    Type
REMARK                         _______ _______ _______ _____ _____    ______ ____
ROOT
ATOM      1  N   UNL     1      -0.357  -0.209   0.000  0.00  0.00    +0.000 NA
ENDROOT
BRANCH   1   2
ATOM      2  C   UNL     1      -1.072   0.204   0.000  0.00  0.00    +0.000 C 
BRANCH   2   3
ATOM      3  C   UNL     1      -1.786  -0.209   0.000  0.00  0.00    +0.000 C 
BRANCH   3   4
ATOM      4  N   UNL     1      -2.501   0.204   0.000  0.00  0.00    +0.000 NA
BRANCH   4   5
ATOM      5  C   UNL     1      -2.501   1.029   0.000  0.00  0.00    +0.000 C 
BRANCH   5   6
ATOM      6  C   UNL     1      -3.215   1.441   0.000  0.00  0.00    +0.000 C 
ATOM      7  O   UNL     1      -3.930   1.029   0.000  0.00  0.00    +0.000 OA
ATOM      8  O   UNL     1      -3.215   2.266   0.000  0.00  0.00    +0.000 OA
ENDBRANCH   5   6
ENDBRANCH   4   5
BRANCH   4   9
ATOM      9  C   UNL     1      -3.215  -0.209   0.000  0.00  0.00    +0.000 C 
BRANCH   9  11
ATOM     10  O   UNL     1      -2.501  -1.446   0.000  0.00  0.00    +0.000 OA
ATOM     11  C   UNL     1      -3.215  -1.034   0.000  0.00  0.00    +0.000 C 
ATOM     12  O   UNL     1      -3.930  -1.446   0.000  0.00  0.00    +0.000 OA
ENDBRANCH   9  11
ENDBRANCH   4   9
ENDBRANCH   3   4
ENDBRANCH   2   3
ENDBRANCH   1   2
BRANCH   1  13
ATOM     13  C   UNL     1      -0.357  -1.034   0.000  0.00  0.00    +0.000 C 
BRANCH  13  14
ATOM     14  C   UNL     1       0.357  -1.446   0.000  0.00  0.00    +0.000 C 
ATOM     15  O   UNL     1       1.072  -1.034   0.000  0.00  0.00    +0.000 OA
ATOM     16  O   UNL     1       0.357  -2.271   0.000  0.00  0.00    +0.000 OA
ENDBRANCH  13  14
ENDBRANCH   1  13
BRANCH   1  17
ATOM     17  C   UNL     1       0.357   0.204   0.000  0.00  0.00    +0.000 C 
BRANCH  17  18
ATOM     18  C   UNL     1       1.072  -0.209   0.000  0.00  0.00    +0.000 C 
BRANCH  18  19
ATOM     19  N   UNL     1       1.786   0.204   0.000  0.00  0.00    +0.000 NA
BRANCH  19  20
ATOM     20  C   UNL     1       2.501  -0.209   0.000  0.00  0.00    +0.000 C 
BRANCH  20  21
ATOM     21  C   UNL     1       3.215   0.204   0.000  0.00  0.00    +0.000 C 
ATOM     22  O   UNL     1       3.215   1.029   0.000  0.00  0.00    +0.000 OA
ATOM     23  O   UNL     1       3.930  -0.209   0.000  0.00  0.00    +0.000 OA
ENDBRANCH  20  21
ENDBRANCH  19  20
BRANCH  19  24
ATOM     24  C   UNL     1       1.786   1.029   0.000  0.00  0.00    +0.000 C 
BRANCH  24  26
ATOM     25  O   UNL     1       1.072   2.266   0.000  0.00  0.00    +0.000 OA
ATOM     26  C   UNL     1       1.072   1.441   0.000  0.00  0.00    +0.000 C 
ATOM     27  O   UNL     1       0.357   1.029   0.000  0.00  0.00    +0.000 OA
ENDBRANCH  24  26
ENDBRANCH  19  24
ENDBRANCH  18  19
ENDBRANCH  17  18
ENDBRANCH   1  17
TORSDOF 16
REMARK  Name = 
REMARK  16 active torsions:
REMARK  status: ('A' for Active; 'I' for Inactive)
REMARK    1  A    between atoms: N_1  and  C_2
REMARK    2  A    between atoms: N_1  and  C_16
REMARK    3  A    between atoms: N_1  and  C_20
REMARK    4  A    between atoms: C_2  and  C_3
REMARK    5  A    between atoms: C_3  and  N_4
REMARK    6  A    between atoms: N_4  and  C_5
REMARK    7  A    between atoms: N_4  and  C_12
REMARK    8  A    between atoms: C_5  and  C_6
REMARK    9  A    between atoms: C_6  and  N_7
REMARK   10  A    between atoms: N_7  and  C_8
REMARK   11  A    between atoms: N_7  and  C_24
REMARK   12  A    between atoms: C_8  and  C_9
REMARK   13  A    between atoms: C_12  and  C_13
REMARK   14  A    between atoms: C_16  and  C_17
REMARK   15  A    between atoms: C_20  and  C_22
REMARK   16  A    between atoms: C_24  and  C_26
REMARK                            x       y       z     vdW  Elec       q    Type
REMARK                         _______ _______ _______ _____ _____    ______ ____
ROOT
ATOM      1 GD   UNL     1      -1.133   2.271   0.000  0.00  0.00    +0.000 Gd
ENDROOT
TORSDOF 0
