REMARK  Name = 
REMARK  3 active torsions:
REMARK  status: ('A' for Active; 'I' for Inactive)
REMARK    1  A    between atoms: C_2  and  C_4
REMARK    2  A    between atoms: C_10  and  N_17
REMARK    3  A    between atoms: C_18  and  C_20
REMARK                            x       y       z     vdW  Elec       q    Type
REMARK                         _______ _______ _______ _____ _____    ______ ____
ROOT
ATOM      1  C   UNL     1      -0.715  -0.412   0.000  0.00  0.00    +0.000 A 
ATOM      2  C   UNL     1      -0.715  -1.238   0.000  0.00  0.00    +0.000 A 
ATOM      3  C   UNL     1       0.000  -1.650   0.000  0.00  0.00    +0.000 A 
ATOM      4  C   UNL     1       0.715  -1.238   0.000  0.00  0.00    +0.000 A 
ATOM      5  C   UNL     1       0.715  -0.412   0.000  0.00  0.00    +0.000 A 
ATOM      6  C   UNL     1       0.000   0.000   0.000  0.00  0.00    +0.000 A 
ATOM      7  C   UNL     1       1.429   0.000   0.000  0.00  0.00    +0.000 C 
ATOM      8  C   UNL     1       2.143  -0.412   0.000  0.00  0.00    +0.000 C 
ATOM      9  C   UNL     1       2.143  -1.238   0.000  0.00  0.00    +0.000 C 
ATOM     10  O   UNL     1       1.429  -1.650   0.000  0.00  0.00    +0.000 OA
ATOM     11  C   UNL     1       2.968  -1.266   0.000  0.00  0.00    +0.000 C 
ATOM     12  C   UNL     1       2.581  -1.937   0.000  0.00  0.00    +0.000 C 
ATOM     13  O   UNL     1       2.858   0.000   0.000  0.00  0.00    +0.000 OA
ENDROOT
BRANCH   1  15
ATOM     14  C   UNL     1      -2.143  -0.412   0.000  0.00  0.00    +0.000 C 
ATOM     15  C   UNL     1      -1.429   0.000   0.000  0.00  0.00    +0.000 C 
ATOM     16  O   UNL     1      -1.429   0.825   0.000  0.00  0.00    +0.000 OA
ENDBRANCH   1  15
BRANCH   7  17
ATOM     17  N   UNL     1       1.429   0.825   0.000  0.00  0.00    +0.000 NA
ATOM     18  C   UNL     1       0.715   1.238   0.000  0.00  0.00    +0.000 C 
ATOM     19  O   UNL     1       0.000   0.825   0.000  0.00  0.00    +0.000 OA
BRANCH  18  20
ATOM     20  C   UNL     1       0.715   2.062   0.000  0.00  0.00    +0.000 A 
ATOM     21  C   UNL     1       0.000   2.475   0.000  0.00  0.00    +0.000 A 
ATOM     22  C   UNL     1       0.000   3.300   0.000  0.00  0.00    +0.000 A 
ATOM     23  C   UNL     1       0.715   3.712   0.000  0.00  0.00    +0.000 A 
ATOM     24  C   UNL     1       1.429   3.300   0.000  0.00  0.00    +0.000 A 
ATOM     25  C   UNL     1       1.429   2.475   0.000  0.00  0.00    +0.000 A 
ATOM     26 CL   UNL     1       2.143   3.712   0.000  0.00  0.00    +0.000 Cl
ATOM     27  F   UNL     1       0.715   4.537   0.000  0.00  0.00    +0.000 F 
ENDBRANCH  18  20
ENDBRANCH   7  17
TORSDOF 3
