REMARK  Name = 
REMARK  11 active torsions:
REMARK  status: ('A' for Active; 'I' for Inactive)
REMARK    1  A    between atoms: C_6  and  C_7
REMARK    2  A    between atoms: C_7  and  C_8
REMARK    3  A    between atoms: C_8  and  C_9
REMARK    4  A    between atoms: C_9  and  C_10
REMARK    5  A    between atoms: C_10  and  C_11
REMARK    6  A    between atoms: C_11  and  C_12
REMARK    7  A    between atoms: C_12  and  C_13
REMARK    8  A    between atoms: C_13  and  O_14
REMARK    9  A    between atoms: O_14  and  C_15
REMARK   10  A    between atoms: C_18  and  C_21
REMARK   11  A    between atoms: C_23  and  C_24
REMARK                            x       y       z     vdW  Elec       q    Type
REMARK                         _______ _______ _______ _____ _____    ______ ____
ROOT
ATOM      1  O   UNL     1       1.261   0.825   0.000  0.00  0.00    +0.000 OA
ENDROOT
BRANCH   1   2
ATOM      2  C   UNL     1       1.976   0.412   0.000  0.00  0.00    +0.000 A 
ATOM      3  C   UNL     1       2.690   0.825   0.000  0.00  0.00    +0.000 A 
ATOM      4  C   UNL     1       3.405   0.412   0.000  0.00  0.00    +0.000 A 
ATOM      5  C   UNL     1       3.405  -0.412   0.000  0.00  0.00    +0.000 A 
ATOM      6  C   UNL     1       2.690  -0.825   0.000  0.00  0.00    +0.000 A 
ATOM      7  C   UNL     1       1.976  -0.412   0.000  0.00  0.00    +0.000 A 
BRANCH   5   8
ATOM      8  C   UNL     1       4.119  -0.825   0.000  0.00  0.00    +0.000 C 
ATOM      9  N   UNL     1       4.873  -0.489   0.000  0.00  0.00    +0.000 NA
ATOM     10  C   UNL     1       5.425  -1.103   0.000  0.00  0.00    +0.000 C 
ATOM     11  C   UNL     1       5.012  -1.817   0.000  0.00  0.00    +0.000 C 
ATOM     12  O   UNL     1       4.205  -1.645   0.000  0.00  0.00    +0.000 OA
BRANCH  10  13
ATOM     13  C   UNL     1       6.245  -1.016   0.000  0.00  0.00    +0.000 C 
ATOM     14  C   UNL     1       6.581  -0.263   0.000  0.00  0.00    +0.000 C 
ENDBRANCH  10  13
ENDBRANCH   5   8
ENDBRANCH   1   2
BRANCH   1  15
ATOM     15  C   UNL     1       0.547   0.412   0.000  0.00  0.00    +0.000 C 
BRANCH  15  16
ATOM     16  C   UNL     1      -0.168   0.825   0.000  0.00  0.00    +0.000 C 
BRANCH  16  17
ATOM     17  C   UNL     1      -0.882   0.412   0.000  0.00  0.00    +0.000 C 
BRANCH  17  18
ATOM     18  C   UNL     1      -1.597   0.825   0.000  0.00  0.00    +0.000 C 
BRANCH  18  19
ATOM     19  C   UNL     1      -2.311   0.412   0.000  0.00  0.00    +0.000 C 
BRANCH  19  20
ATOM     20  C   UNL     1      -3.026   0.825   0.000  0.00  0.00    +0.000 C 
BRANCH  20  21
ATOM     21  C   UNL     1      -3.740   0.412   0.000  0.00  0.00    +0.000 C 
BRANCH  21  27
ATOM     22  O   UNL     1      -4.541   1.645   0.000  0.00  0.00    +0.000 OA
ATOM     23  N   UNL     1      -5.348   1.817   0.000  0.00  0.00    +0.000 NA
ATOM     24  C   UNL     1      -5.760   1.103   0.000  0.00  0.00    +0.000 A 
ATOM     25  C   UNL     1      -6.581   1.016   0.000  0.00  0.00    +0.000 C 
ATOM     26  C   UNL     1      -5.208   0.489   0.000  0.00  0.00    +0.000 A 
ATOM     27  C   UNL     1      -4.455   0.825   0.000  0.00  0.00    +0.000 A 
ENDBRANCH  21  27
ENDBRANCH  20  21
ENDBRANCH  19  20
ENDBRANCH  18  19
ENDBRANCH  17  18
ENDBRANCH  16  17
ENDBRANCH  15  16
ENDBRANCH   1  15
TORSDOF 11
