REMARK  Name = 
REMARK  9 active torsions:
REMARK  status: ('A' for Active; 'I' for Inactive)
REMARK    1  A    between atoms: C_1  and  C_10
REMARK    2  A    between atoms: C_2  and  S_9
REMARK    3  A    between atoms: C_6  and  C_15
REMARK    4  A    between atoms: S_9  and  C_19
REMARK    5  A    between atoms: C_10  and  O_12
REMARK    6  A    between atoms: O_12  and  C_13
REMARK    7  A    between atoms: C_13  and  O_14
REMARK    8  A    between atoms: O_14  and  C_30
REMARK    9  A    between atoms: C_30  and  C_31
REMARK                            x       y       z     vdW  Elec       q    Type
REMARK                         _______ _______ _______ _____ _____    ______ ____
ROOT
ATOM      1  C   UNL     1      -0.377  -0.395   0.000  0.00  0.00    +0.000 C 
ATOM      2  C   UNL     1       0.107   0.274   0.000  0.00  0.00    +0.000 C 
ATOM      3  C   UNL     1      -0.381   0.941   0.000  0.00  0.00    +0.000 C 
ATOM      4  N   UNL     1      -1.162  -0.139   0.000  0.00  0.00    +0.000 N 
ATOM      5  C   UNL     1      -1.162   0.681   0.000  0.00  0.00    +0.000 C 
ATOM      6  C   UNL     1      -1.982   0.681   0.000  0.00  0.00    +0.000 C 
ATOM      7  C   UNL     1      -1.982  -0.139   0.000  0.00  0.00    +0.000 C 
ATOM      8  O   UNL     1      -2.567  -0.724   0.000  0.00  0.00    +0.000 OA
ATOM      9  C   UNL     1      -0.132   1.728   0.000  0.00  0.00    +0.000 C 
ENDROOT
BRANCH   6  10
ATOM     10  C   UNL     1      -2.567   1.262   0.000  0.00  0.00    +0.000 C 
ATOM     11  C   UNL     1      -2.354   2.059   0.000  0.00  0.00    +0.000 C 
ATOM     12  O   UNL     1      -3.365   1.049   0.000  0.00  0.00    +0.000 OA
ENDBRANCH   6  10
BRANCH   1  13
ATOM     13  C   UNL     1      -0.121  -1.179   0.000  0.00  0.00    +0.000 C 
ATOM     14  O   UNL     1      -0.668  -1.791   0.000  0.00  0.00    +0.000 OA
BRANCH  13  15
ATOM     15  O   UNL     1       0.688  -1.347   0.000  0.00  0.00    +0.000 OA
BRANCH  15  16
ATOM     16  C   UNL     1       0.948  -2.132   0.000  0.00  0.00    +0.000 C 
BRANCH  16  17
ATOM     17  O   UNL     1       1.756  -2.301   0.000  0.00  0.00    +0.000 OA
BRANCH  17  18
ATOM     18  C   UNL     1       2.013  -3.081   0.000  0.00  0.00    +0.000 C 
ATOM     19  O   UNL     1       1.466  -3.694   0.000  0.00  0.00    +0.000 OA
BRANCH  18  20
ATOM     20  C   UNL     1       2.817  -3.248   0.000  0.00  0.00    +0.000 C 
ATOM     21  C   UNL     1       3.074  -4.029   0.000  0.00  0.00    +0.000 C 
ATOM     22  C   UNL     1       3.365  -2.636   0.000  0.00  0.00    +0.000 C 
ATOM     23  C   UNL     1       2.447  -3.982   0.000  0.00  0.00    +0.000 C 
ENDBRANCH  18  20
ENDBRANCH  17  18
ENDBRANCH  16  17
ENDBRANCH  15  16
ENDBRANCH  13  15
ENDBRANCH   1  13
BRANCH   2  24
ATOM     24  S   UNL     1       0.933   0.277   0.000  0.00  0.00    +0.000 S 
BRANCH  24  25
ATOM     25  C   UNL     1       1.342   0.994   0.000  0.00  0.00    +0.000 C 
ATOM     26  C   UNL     1       2.137   1.212   0.000  0.00  0.00    +0.000 C 
ATOM     27  N   UNL     1       1.922   2.005   0.000  0.00  0.00    +0.000 N 
ATOM     28  C   UNL     1       1.125   1.790   0.000  0.00  0.00    +0.000 C 
ATOM     29  C   UNL     1       2.329   2.719   0.000  0.00  0.00    +0.000 C 
ATOM     30  N   UNL     1       3.150   2.812   0.000  0.00  0.00    +0.000 NA
ATOM     31  C   UNL     1       3.319   3.620   0.000  0.00  0.00    +0.000 C 
ATOM     32  C   UNL     1       2.602   4.029   0.000  0.00  0.00    +0.000 C 
ATOM     33  S   UNL     1       1.993   3.473   0.000  0.00  0.00    +0.000 S 
ENDBRANCH  24  25
ENDBRANCH   2  24
TORSDOF 9
