REMARK  Name = 
REMARK  5 active torsions:
REMARK  status: ('A' for Active; 'I' for Inactive)
REMARK    1  A    between atoms: C_4  and  C_34
REMARK    2  A    between atoms: C_19  and  C_20
REMARK    3  A    between atoms: C_19  and  C_31
REMARK    4  A    between atoms: C_20  and  C_22
REMARK    5  A    between atoms: C_22  and  C_23
REMARK                            x       y       z     vdW  Elec       q    Type
REMARK                         _______ _______ _______ _____ _____    ______ ____
ROOT
ATOM      1  C   UNL     1      -2.536  -0.127   0.000  0.00  0.00    +0.000 C 
ATOM      2  C   UNL     1      -3.250  -0.540   0.000  0.00  0.00    +0.000 C 
ATOM      3  C   UNL     1      -2.536  -1.777   0.000  0.00  0.00    +0.000 C 
ATOM      4  C   UNL     1      -1.107  -1.777   0.000  0.00  0.00    +0.000 C 
ATOM      5  C   UNL     1      -1.821  -0.540   0.000  0.00  0.00    +0.000 C 
ATOM      6  C   UNL     1      -1.107   0.698   0.000  0.00  0.00    +0.000 C 
ATOM      7  C   UNL     1      -0.392   1.110   0.000  0.00  0.00    +0.000 C 
ATOM      8  C   UNL     1       1.107  -0.382   0.000  0.00  0.00    +0.000 C 
ATOM      9  C   UNL     1       1.592   0.285   0.000  0.00  0.00    +0.000 C 
ATOM     10  C   UNL     1      -1.821   0.285   0.000  0.00  0.00    +0.000 C 
ATOM     11  C   UNL     1      -1.107  -0.127   0.000  0.00  0.00    +0.000 C 
ATOM     12  C   UNL     1      -0.392  -0.540   0.000  0.00  0.00    +0.000 C 
ATOM     13  C   UNL     1       0.322  -0.127   0.000  0.00  0.00    +0.000 C 
ATOM     14  C   UNL     1       0.322   0.698   0.000  0.00  0.00    +0.000 C 
ATOM     15  C   UNL     1       0.322   1.522   0.000  0.00  0.00    +0.000 C 
ATOM     16  C   UNL     1       1.107   0.952   0.000  0.00  0.00    +0.000 C 
ATOM     17  C   UNL     1      -3.250  -1.365   0.000  0.00  0.00    +0.000 C 
ATOM     18  O   UNL     1      -3.965  -1.777   0.000  0.00  0.00    +0.000 OA
ATOM     19  C   UNL     1      -0.392  -1.365   0.000  0.00  0.00    +0.000 C 
ATOM     20  O   UNL     1       0.322  -1.777   0.000  0.00  0.00    +0.000 OA
ATOM     21  C   UNL     1      -1.821  -1.365   0.000  0.00  0.00    +0.000 C 
ENDROOT
BRANCH  16  23
ATOM     22  C   UNL     1       0.392   2.190   0.000  0.00  0.00    +0.000 C 
ATOM     23  C   UNL     1       1.107   1.777   0.000  0.00  0.00    +0.000 C 
BRANCH  23  24
ATOM     24  C   UNL     1       1.821   2.190   0.000  0.00  0.00    +0.000 C 
BRANCH  24  25
ATOM     25  C   UNL     1       2.536   1.777   0.000  0.00  0.00    +0.000 C 
BRANCH  25  26
ATOM     26  C   UNL     1       3.250   2.190   0.000  0.00  0.00    +0.000 C 
ATOM     27  O   UNL     1       3.250   3.015   0.000  0.00  0.00    +0.000 OA
ATOM     28  O   UNL     1       3.965   1.777   0.000  0.00  0.00    +0.000 OA
ENDBRANCH  25  26
ENDBRANCH  24  25
ENDBRANCH  23  24
ENDBRANCH  16  23
BRANCH   4  29
ATOM     29  C   UNL     1      -1.107  -2.602   0.000  0.00  0.00    +0.000 C 
ATOM     30  C   UNL     1      -0.392  -3.015   0.000  0.00  0.00    +0.000 C 
ENDBRANCH   4  29
TORSDOF 5
