REMARK  Name = 
REMARK  9 active torsions:
REMARK  status: ('A' for Active; 'I' for Inactive)
REMARK    1  A    between atoms: C_4  and  O_16
REMARK    2  A    between atoms: C_5  and  N_8
REMARK    3  A    between atoms: N_8  and  C_27
REMARK    4  A    between atoms: C_9  and  N_14
REMARK    5  A    between atoms: C_10  and  O_19
REMARK    6  A    between atoms: O_16  and  C_21
REMARK    7  A    between atoms: O_19  and  C_22
REMARK    8  A    between atoms: C_21  and  C_35
REMARK    9  A    between atoms: C_26  and  C_27
REMARK                            x       y       z     vdW  Elec       q    Type
REMARK                         _______ _______ _______ _____ _____    ______ ____
ROOT
ATOM      1  C   UNL     1       1.105   0.690   0.000  0.00  0.00    +0.000 C 
ATOM      2  C   UNL     1      -1.047  -0.534   0.000  0.00  0.00    +0.000 C 
ATOM      3  C   UNL     1       1.095  -0.126   0.000  0.00  0.00    +0.000 C 
ATOM      4  C   UNL     1       1.892   0.938   0.000  0.00  0.00    +0.000 C 
ATOM      5  C   UNL     1       2.364   0.267   0.000  0.00  0.00    +0.000 C 
ATOM      6  C   UNL     1      -0.333  -0.121   0.000  0.00  0.00    +0.000 C 
ATOM      7  C   UNL     1       0.381  -0.534   0.000  0.00  0.00    +0.000 C 
ATOM      8  C   UNL     1      -2.475  -0.534   0.000  0.00  0.00    +0.000 C 
ATOM      9  C   UNL     1      -2.475  -1.360   0.000  0.00  0.00    +0.000 C 
ATOM     10  C   UNL     1       1.878  -0.398   0.000  0.00  0.00    +0.000 C 
ATOM     11  C   UNL     1      -1.761  -0.121   0.000  0.00  0.00    +0.000 C 
ATOM     12  C   UNL     1      -1.047  -1.360   0.000  0.00  0.00    +0.000 C 
ATOM     13  C   UNL     1       0.391   1.113   0.000  0.00  0.00    +0.000 C 
ATOM     14  C   UNL     1      -1.761  -1.773   0.000  0.00  0.00    +0.000 C 
ATOM     15  C   UNL     1      -0.333   0.704   0.000  0.00  0.00    +0.000 C 
ATOM     16  C   UNL     1       0.377  -1.365   0.000  0.00  0.00    +0.000 C 
ATOM     17  C   UNL     1      -0.338  -1.773   0.000  0.00  0.00    +0.000 C 
ATOM     18  C   UNL     1       1.095   1.521   0.000  0.00  0.00    +0.000 C 
ATOM     19  C   UNL     1      -1.052   0.296   0.000  0.00  0.00    +0.000 C 
ENDROOT
BRANCH   5  20
ATOM     20  N   UNL     1       3.194   0.258   0.000  0.00  0.00    +0.000 N 
ATOM     21  C   UNL     1       3.194   1.083   0.000  0.00  0.00    +0.000 C 
ATOM     22  C   UNL     1       3.904  -0.155   0.000  0.00  0.00    +0.000 C 
ATOM     23  C   UNL     1       4.618   0.258   0.000  0.00  0.00    +0.000 C 
ATOM     24  C   UNL     1       3.904   1.496   0.000  0.00  0.00    +0.000 C 
ATOM     25  C   UNL     1       4.618   1.083   0.000  0.00  0.00    +0.000 C 
BRANCH  20  26
ATOM     26  C   UNL     1       3.189  -0.564   0.000  0.00  0.00    +0.000 C 
BRANCH  26  27
ATOM     27  C   UNL     1       2.466  -0.972   0.000  0.00  0.00    +0.000 C 
ATOM     28  C   UNL     1       2.466  -1.802   0.000  0.00  0.00    +0.000 C 
ENDBRANCH  26  27
ENDBRANCH  20  26
ENDBRANCH   5  20
BRANCH   8  29
ATOM     29  N   UNL     1      -3.189  -0.121   0.000  0.00  0.00    +0.000 NA
ATOM     30  C   UNL     1      -3.189   0.709   0.000  0.00  0.00    +0.000 C 
ATOM     31  C   UNL     1      -3.904  -0.534   0.000  0.00  0.00    +0.000 C 
ATOM     32  C   UNL     1      -3.894   1.117   0.000  0.00  0.00    +0.000 C 
ATOM     33  C   UNL     1      -4.618  -0.112   0.000  0.00  0.00    +0.000 C 
ATOM     34  C   UNL     1      -4.618   0.709   0.000  0.00  0.00    +0.000 C 
ENDBRANCH   8  29
BRANCH   9  35
ATOM     35  O   UNL     1      -3.189  -1.768   0.000  0.00  0.00    +0.000 OA
BRANCH  35  36
ATOM     36  C   UNL     1      -3.189  -2.590   0.000  0.00  0.00    +0.000 C 
ATOM     37  O   UNL     1      -2.475  -3.012   0.000  0.00  0.00    +0.000 OA
ATOM     38  C   UNL     1      -3.904  -3.007   0.000  0.00  0.00    +0.000 C 
ENDBRANCH  35  36
ENDBRANCH   9  35
BRANCH   4  39
ATOM     39  O   UNL     1       1.883   1.768   0.000  0.00  0.00    +0.000 OA
BRANCH  39  40
ATOM     40  C   UNL     1       2.597   2.191   0.000  0.00  0.00    +0.000 C 
ATOM     41  O   UNL     1       2.592   3.012   0.000  0.00  0.00    +0.000 OA
BRANCH  40  42
ATOM     42  C   UNL     1       3.311   1.783   0.000  0.00  0.00    +0.000 C 
ATOM     43  C   UNL     1       4.025   2.196   0.000  0.00  0.00    +0.000 C 
ENDBRANCH  40  42
ENDBRANCH  39  40
ENDBRANCH   4  39
TORSDOF 9
