REMARK  Name = 
REMARK  5 active torsions:
REMARK  status: ('A' for Active; 'I' for Inactive)
REMARK    1  A    between atoms: C_2  and  N_4
REMARK    2  A    between atoms: C_2  and  C_16
REMARK    3  A    between atoms: C_5  and  O_7
REMARK    4  A    between atoms: O_7  and  C_8
REMARK    5  A    between atoms: C_19  and  C_21
REMARK                            x       y       z     vdW  Elec       q    Type
REMARK                         _______ _______ _______ _____ _____    ______ ____
ROOT
ATOM      1  C   UNL     1      -2.254  -2.475   0.000  0.00  0.00    +0.000 C 
ATOM      2  C   UNL     1      -1.429  -2.475   0.000  0.00  0.00    +0.000 C 
ATOM      3  C   UNL     1      -0.604  -2.475   0.000  0.00  0.00    +0.000 C 
ENDROOT
BRANCH   2   4
ATOM      4  C   UNL     1      -1.429  -3.300   0.000  0.00  0.00    +0.000 A 
ATOM      5  C   UNL     1      -0.761  -3.785   0.000  0.00  0.00    +0.000 A 
ATOM      6  S   UNL     1      -1.016  -4.569   0.000  0.00  0.00    +0.000 S 
ATOM      7  C   UNL     1      -1.841  -4.569   0.000  0.00  0.00    +0.000 A 
ATOM      8  N   UNL     1      -2.096  -3.785   0.000  0.00  0.00    +0.000 NA
BRANCH   7   9
ATOM      9  C   UNL     1      -2.326  -5.237   0.000  0.00  0.00    +0.000 A 
ATOM     10  C   UNL     1      -1.991  -5.991   0.000  0.00  0.00    +0.000 A 
ATOM     11  C   UNL     1      -2.476  -6.658   0.000  0.00  0.00    +0.000 A 
ATOM     12  C   UNL     1      -3.296  -6.572   0.000  0.00  0.00    +0.000 A 
ATOM     13  F   UNL     1      -3.781  -7.239   0.000  0.00  0.00    +0.000 F 
ATOM     14  C   UNL     1      -3.632  -5.818   0.000  0.00  0.00    +0.000 A 
ATOM     15  C   UNL     1      -3.147  -5.151   0.000  0.00  0.00    +0.000 A 
ENDBRANCH   7   9
ENDBRANCH   2   4
BRANCH   2  16
ATOM     16  N   UNL     1      -1.429  -1.650   0.000  0.00  0.00    +0.000 NA
ATOM     17  C   UNL     1      -0.715  -1.238   0.000  0.00  0.00    +0.000 C 
ATOM     18  O   UNL     1       0.000  -1.650   0.000  0.00  0.00    +0.000 OA
BRANCH  17  19
ATOM     19  O   UNL     1      -0.715  -0.412   0.000  0.00  0.00    +0.000 OA
BRANCH  19  20
ATOM     20  C   UNL     1       0.000   0.000   0.000  0.00  0.00    +0.000 C 
ATOM     21  C   UNL     1       0.000   0.825   0.000  0.00  0.00    +0.000 C 
ATOM     22  N   UNL     1       0.715   1.238   0.000  0.00  0.00    +0.000 NA
ATOM     23  C   UNL     1       1.429   0.825   0.000  0.00  0.00    +0.000 C 
ATOM     24  C   UNL     1       1.429   0.000   0.000  0.00  0.00    +0.000 C 
ATOM     25  C   UNL     1       0.715  -0.412   0.000  0.00  0.00    +0.000 C 
ATOM     26  C   UNL     1       0.852   0.138   0.000  0.00  0.00    +0.000 C 
ATOM     27  C   UNL     1       0.852   0.688   0.000  0.00  0.00    +0.000 C 
ENDBRANCH  19  20
ENDBRANCH  17  19
ENDBRANCH   2  16
TORSDOF 5
