REMARK  Name = 
REMARK  3 active torsions:
REMARK  status: ('A' for Active; 'I' for Inactive)
REMARK    1  A    between atoms: C_7  and  C_8
REMARK    2  A    between atoms: N_10  and  C_11
REMARK    3  A    between atoms: C_14  and  C_18
REMARK                            x       y       z     vdW  Elec       q    Type
REMARK                         _______ _______ _______ _____ _____    ______ ____
ROOT
ATOM      1  C   UNL     1       0.589   1.884   0.000  0.00  0.00    +0.000 A 
ATOM      2  C   UNL     1       0.939   1.137   0.000  0.00  0.00    +0.000 A 
ATOM      3  C   UNL     1       1.761   1.066   0.000  0.00  0.00    +0.000 A 
ATOM      4  C   UNL     1       2.233   1.742   0.000  0.00  0.00    +0.000 A 
ATOM      5  C   UNL     1       1.883   2.490   0.000  0.00  0.00    +0.000 A 
ATOM      6  C   UNL     1       1.061   2.561   0.000  0.00  0.00    +0.000 A 
ATOM      7 CL   UNL     1       2.356   3.166   0.000  0.00  0.00    +0.000 Cl
ENDROOT
BRANCH   4   8
ATOM      8  C   UNL     1       3.055   1.672   0.000  0.00  0.00    +0.000 C 
ATOM      9  O   UNL     1       3.527   2.348   0.000  0.00  0.00    +0.000 OA
ATOM     10  N   UNL     1       3.405   0.924   0.000  0.00  0.00    +0.000 N 
ATOM     11  C   UNL     1       4.229   0.915   0.000  0.00  0.00    +0.000 C 
ATOM     12  C   UNL     1       4.737   0.265   0.000  0.00  0.00    +0.000 A 
ATOM     13  C   UNL     1       5.559   0.329   0.000  0.00  0.00    +0.000 A 
ATOM     14  C   UNL     1       5.875  -0.433   0.000  0.00  0.00    +0.000 A 
ATOM     15  C   UNL     1       5.248  -0.969   0.000  0.00  0.00    +0.000 A 
ATOM     16  N   UNL     1       4.544  -0.538   0.000  0.00  0.00    +0.000 N 
ATOM     17  C   UNL     1       3.797  -0.887   0.000  0.00  0.00    +0.000 C 
ATOM     18  C   UNL     1       3.058  -0.521   0.000  0.00  0.00    +0.000 A 
ATOM     19  C   UNL     1       2.883   0.285   0.000  0.00  0.00    +0.000 A 
ATOM     20  C   UNL     1       2.097   0.537   0.000  0.00  0.00    +0.000 A 
ATOM     21  C   UNL     1       1.486  -0.017   0.000  0.00  0.00    +0.000 A 
ATOM     22  C   UNL     1       1.661  -0.824   0.000  0.00  0.00    +0.000 A 
ATOM     23  C   UNL     1       2.447  -1.075   0.000  0.00  0.00    +0.000 A 
ENDBRANCH   4   8
BRANCH   1  26
ATOM     24  C   UNL     1      -0.583   2.702   0.000  0.00  0.00    +0.000 C 
ATOM     25  O   UNL     1      -0.110   3.379   0.000  0.00  0.00    +0.000 OA
ATOM     26  N   UNL     1      -0.233   1.955   0.000  0.00  0.00    +0.000 NA
BRANCH  24  33
ATOM     27  C   UNL     1      -1.527   1.349   0.000  0.00  0.00    +0.000 C 
ATOM     28  C   UNL     1      -1.877   2.097   0.000  0.00  0.00    +0.000 A 
ATOM     29  C   UNL     1      -2.699   2.168   0.000  0.00  0.00    +0.000 A 
ATOM     30  C   UNL     1      -3.048   2.915   0.000  0.00  0.00    +0.000 A 
ATOM     31  C   UNL     1      -2.576   3.591   0.000  0.00  0.00    +0.000 A 
ATOM     32  C   UNL     1      -1.754   3.520   0.000  0.00  0.00    +0.000 A 
ATOM     33  C   UNL     1      -1.404   2.773   0.000  0.00  0.00    +0.000 A 
ATOM     34  F   UNL     1      -2.926   4.338   0.000  0.00  0.00    +0.000 F 
ENDBRANCH  24  33
ENDBRANCH   1  26
TORSDOF 3
