REMARK  Name = 
REMARK  1 active torsions:
REMARK  status: ('A' for Active; 'I' for Inactive)
REMARK    1  A    between atoms: C_23  and  O_24
REMARK                            x       y       z     vdW  Elec       q    Type
REMARK                         _______ _______ _______ _____ _____    ______ ____
ROOT
ATOM      1  C   UNL     1       2.651  -0.362   0.000  0.00  0.00    +0.000 C 
ATOM      2  C   UNL     1       1.151  -1.345   0.000  0.00  0.00    +0.000 C 
ATOM      3  C   UNL     1       2.651   0.973   0.000  0.00  0.00    +0.000 C 
ATOM      4  C   UNL     1       1.151   1.130   0.000  0.00  0.00    +0.000 C 
ATOM      5  C   UNL     1       3.135   0.305   0.000  0.00  0.00    +0.000 C 
ATOM      6  C   UNL     1      -0.278  -0.520   0.000  0.00  0.00    +0.000 A 
ATOM      7  C   UNL     1       0.437   0.718   0.000  0.00  0.00    +0.000 C 
ATOM      8  C   UNL     1       0.437  -1.757   0.000  0.00  0.00    +0.000 C 
ATOM      9  O   UNL     1       2.905   1.757   0.000  0.00  0.00    +0.000 OA
ATOM     10  C   UNL     1      -0.278  -1.345   0.000  0.00  0.00    +0.000 A 
ATOM     11  C   UNL     1      -0.992  -0.107   0.000  0.00  0.00    +0.000 A 
ATOM     12  C   UNL     1      -0.992  -1.757   0.000  0.00  0.00    +0.000 A 
ATOM     13  C   UNL     1      -1.706  -1.345   0.000  0.00  0.00    +0.000 A 
ATOM     14  O   UNL     1      -2.421  -1.757   0.000  0.00  0.00    +0.000 OA
ATOM     15  C   UNL     1       1.151  -0.520   0.000  0.00  0.00    +0.000 C 
ATOM     16  C   UNL     1       0.437  -0.107   0.000  0.00  0.00    +0.000 C 
ATOM     17  C   UNL     1       1.866   0.718   0.000  0.00  0.00    +0.000 C 
ATOM     18  C   UNL     1       1.866   1.543   0.000  0.00  0.00    +0.000 C 
ATOM     19  C   UNL     1       1.866  -0.107   0.000  0.00  0.00    +0.000 C 
ATOM     20  C   UNL     1      -1.706  -0.520   0.000  0.00  0.00    +0.000 A 
ENDROOT
BRANCH  20  21
ATOM     21  O   UNL     1      -2.421  -0.107   0.000  0.00  0.00    +0.000 OA
ATOM     22  C   UNL     1      -3.135  -0.520   0.000  0.00  0.00    +0.000 C 
ENDBRANCH  20  21
TORSDOF 1
