REMARK  Name = 
REMARK  5 active torsions:
REMARK  status: ('A' for Active; 'I' for Inactive)
REMARK    1  A    between atoms: C_7  and  O_12
REMARK    2  A    between atoms: O_12  and  C_13
REMARK    3  A    between atoms: C_13  and  C_15
REMARK    4  A    between atoms: C_15  and  C_16
REMARK    5  A    between atoms: C_15  and  C_21
REMARK                            x       y       z     vdW  Elec       q    Type
REMARK                         _______ _______ _______ _____ _____    ______ ____
ROOT
ATOM      1  C   UNL     1       3.607  -0.744   0.000  0.00  0.00    +0.000 C 
ATOM      2  O   UNL     1       4.432  -0.744   0.000  0.00  0.00    +0.000 OA
ENDROOT
BRANCH   1   3
ATOM      3  C   UNL     1       3.194  -1.459   0.000  0.00  0.00    +0.000 C 
ATOM      4  O   UNL     1       2.480  -1.046   0.000  0.00  0.00    +0.000 OA
BRANCH   3   5
ATOM      5  C   UNL     1       3.909  -1.871   0.000  0.00  0.00    +0.000 A 
ATOM      6  C   UNL     1       4.662  -1.536   0.000  0.00  0.00    +0.000 A 
ATOM      7  C   UNL     1       5.214  -2.149   0.000  0.00  0.00    +0.000 A 
ATOM      8  C   UNL     1       4.802  -2.863   0.000  0.00  0.00    +0.000 A 
ATOM      9  S   UNL     1       3.995  -2.692   0.000  0.00  0.00    +0.000 S 
ENDBRANCH   3   5
BRANCH   3  10
ATOM     10  C   UNL     1       2.782  -2.173   0.000  0.00  0.00    +0.000 A 
ATOM     11  C   UNL     1       1.961  -2.259   0.000  0.00  0.00    +0.000 A 
ATOM     12  C   UNL     1       1.790  -3.066   0.000  0.00  0.00    +0.000 A 
ATOM     13  C   UNL     1       2.504  -3.479   0.000  0.00  0.00    +0.000 A 
ATOM     14  S   UNL     1       3.117  -2.927   0.000  0.00  0.00    +0.000 S 
ENDBRANCH   3  10
ENDBRANCH   1   3
BRANCH   1  15
ATOM     15  O   UNL     1       3.194  -0.030   0.000  0.00  0.00    +0.000 OA
BRANCH  15  22
ATOM     16  C   UNL     1      -0.289   0.840   0.000  0.00  0.00    +0.000 C 
ATOM     17  C   UNL     1       0.529   0.733   0.000  0.00  0.00    +0.000 C 
ATOM     18  C   UNL     1       0.213  -0.030   0.000  0.00  0.00    +0.000 C 
ATOM     19  C   UNL     1       0.529  -0.792   0.000  0.00  0.00    +0.000 C 
ATOM     20  C   UNL     1       1.291  -1.108   0.000  0.00  0.00    +0.000 C 
ATOM     21  C   UNL     1       2.054  -0.792   0.000  0.00  0.00    +0.000 C 
ATOM     22  C   UNL     1       2.369  -0.030   0.000  0.00  0.00    +0.000 C 
ATOM     23  C   UNL     1       2.054   0.733   0.000  0.00  0.00    +0.000 C 
ATOM     24  C   UNL     1       1.291   1.048   0.000  0.00  0.00    +0.000 C 
ATOM     25  N   UNL     1       1.022  -0.030   0.000  0.00  0.00    +0.000 NA
ATOM     26  C   UNL     1       0.354   0.455   0.000  0.00  0.00    +0.000 C 
ATOM     27  C   UNL     1       0.421   1.550   0.000  0.00  0.00    +0.000 C 
ENDBRANCH  15  22
ENDBRANCH   1  15
TORSDOF 5
