REMARK  Name = 
REMARK  4 active torsions:
REMARK  status: ('A' for Active; 'I' for Inactive)
REMARK    1  A    between atoms: C_4  and  C_6
REMARK    2  A    between atoms: N_14  and  C_15
REMARK    3  A    between atoms: N_20  and  C_21
REMARK    4  A    between atoms: C_24  and  N_27
REMARK                            x       y       z     vdW  Elec       q    Type
REMARK                         _______ _______ _______ _____ _____    ______ ____
ROOT
ATOM      1  C   UNL     1       0.654  -0.698   0.000  0.00  0.00    +0.000 A 
ATOM      2  C   UNL     1       1.139  -0.030   0.000  0.00  0.00    +0.000 A 
ATOM      3  C   UNL     1       1.923  -0.285   0.000  0.00  0.00    +0.000 A 
ATOM      4  C   UNL     1       2.638   0.127   0.000  0.00  0.00    +0.000 A 
ATOM      5  N   UNL     1       3.352  -0.285   0.000  0.00  0.00    +0.000 NA
ATOM      6  C   UNL     1       3.352  -1.110   0.000  0.00  0.00    +0.000 A 
ATOM      7  N   UNL     1       2.638  -1.523   0.000  0.00  0.00    +0.000 NA
ATOM      8  C   UNL     1       1.923  -1.110   0.000  0.00  0.00    +0.000 A 
ATOM      9  N   UNL     1       1.139  -1.365   0.000  0.00  0.00    +0.000 N 
ATOM     10  N   UNL     1       4.067  -1.523   0.000  0.00  0.00    +0.000 NA
ENDROOT
BRANCH  10  11
ATOM     11  C   UNL     1       4.067  -2.348   0.000  0.00  0.00    +0.000 A 
ATOM     12  C   UNL     1       4.781  -2.760   0.000  0.00  0.00    +0.000 A 
ATOM     13  C   UNL     1       4.781  -3.585   0.000  0.00  0.00    +0.000 A 
ATOM     14  C   UNL     1       4.067  -3.998   0.000  0.00  0.00    +0.000 A 
ATOM     15  C   UNL     1       3.352  -3.585   0.000  0.00  0.00    +0.000 A 
ATOM     16  N   UNL     1       3.352  -2.760   0.000  0.00  0.00    +0.000 NA
BRANCH  14  17
ATOM     17  N   UNL     1       4.067  -4.823   0.000  0.00  0.00    +0.000 N 
ATOM     18  C   UNL     1       4.781  -5.235   0.000  0.00  0.00    +0.000 C 
ATOM     19  C   UNL     1       4.781  -6.060   0.000  0.00  0.00    +0.000 C 
ATOM     20  N   UNL     1       4.067  -6.473   0.000  0.00  0.00    +0.000 NA
ATOM     21  C   UNL     1       3.352  -6.060   0.000  0.00  0.00    +0.000 C 
ATOM     22  C   UNL     1       3.352  -5.235   0.000  0.00  0.00    +0.000 C 
ENDBRANCH  14  17
ENDBRANCH  10  11
BRANCH   1  26
ATOM     23  C   UNL     1      -1.409   0.017   0.000  0.00  0.00    +0.000 C 
ATOM     24  N   UNL     1      -0.584   0.017   0.000  0.00  0.00    +0.000 N 
ATOM     25  C   UNL     1      -0.171   0.731   0.000  0.00  0.00    +0.000 C 
ATOM     26  C   UNL     1      -0.171  -0.698   0.000  0.00  0.00    +0.000 C 
ATOM     27  O   UNL     1      -0.584  -1.412   0.000  0.00  0.00    +0.000 OA
ENDBRANCH   1  26
BRANCH   9  28
ATOM     28  C   UNL     1       0.884  -2.150   0.000  0.00  0.00    +0.000 C 
ATOM     29  C   UNL     1       1.369  -2.817   0.000  0.00  0.00    +0.000 C 
ATOM     30  C   UNL     1       0.884  -3.485   0.000  0.00  0.00    +0.000 C 
ATOM     31  C   UNL     1       0.099  -3.230   0.000  0.00  0.00    +0.000 C 
ATOM     32  C   UNL     1       0.099  -2.405   0.000  0.00  0.00    +0.000 C 
ENDBRANCH   9  28
TORSDOF 4
