REMARK  Name = 
REMARK  1 active torsions:
REMARK  status: ('A' for Active; 'I' for Inactive)
REMARK    1  A    between atoms: C_2  and  S_11
REMARK                            x       y       z     vdW  Elec       q    Type
REMARK                         _______ _______ _______ _____ _____    ______ ____
ROOT
ATOM      1  C   UNL     1       0.000   0.468   0.000  0.00  0.00    +0.000 A 
ATOM      2  C   UNL     1       0.715   0.055   0.000  0.00  0.00    +0.000 A 
ATOM      3  C   UNL     1       0.715  -0.770   0.000  0.00  0.00    +0.000 A 
ATOM      4  C   UNL     1       0.000  -1.182   0.000  0.00  0.00    +0.000 A 
ATOM      5  C   UNL     1      -1.429  -1.182   0.000  0.00  0.00    +0.000 A 
ATOM      6  C   UNL     1      -2.143  -0.770   0.000  0.00  0.00    +0.000 A 
ATOM      7  C   UNL     1      -2.143   0.055   0.000  0.00  0.00    +0.000 A 
ATOM      8  C   UNL     1      -1.429   0.468   0.000  0.00  0.00    +0.000 A 
ATOM      9  C   UNL     1      -0.714   0.055   0.000  0.00  0.00    +0.000 A 
ATOM     10  C   UNL     1      -0.714  -0.770   0.000  0.00  0.00    +0.000 A 
ENDROOT
BRANCH   2  11
ATOM     11  S   UNL     1       1.429   0.468   0.000  0.00  0.00    +0.000 S 
ATOM     12  O   UNL     1       1.016   1.182   0.000  0.00  0.00    +0.000 OA
ATOM     13  O   UNL     1       1.841  -0.247   0.000  0.00  0.00    +0.000 OA
ATOM     14  O   UNL     1       2.143   0.880   0.000  0.00  0.00    +0.000 OA
ENDBRANCH   2  11
TORSDOF 1
