REMARK  Name = 
REMARK  18 active torsions:
REMARK  status: ('A' for Active; 'I' for Inactive)
REMARK    1  A    between atoms: O_8  and  C_48
REMARK    2  A    between atoms: O_9  and  C_49
REMARK    3  A    between atoms: O_10  and  C_50
REMARK    4  A    between atoms: O_10  and  C_51
REMARK    5  A    between atoms: N_11  and  C_21
REMARK    6  A    between atoms: N_11  and  C_23
REMARK    7  A    between atoms: N_12  and  C_26
REMARK    8  A    between atoms: N_13  and  C_29
REMARK    9  A    between atoms: C_14  and  C_20
REMARK   10  A    between atoms: C_20  and  C_21
REMARK   11  A    between atoms: C_23  and  C_24
REMARK   12  A    between atoms: C_24  and  C_26
REMARK   13  A    between atoms: C_25  and  C_27
REMARK   14  A    between atoms: C_26  and  C_28
REMARK   15  A    between atoms: C_27  and  C_29
REMARK   16  A    between atoms: C_28  and  C_30
REMARK   17  A    between atoms: C_31  and  C_38
REMARK   18  A    between atoms: C_51  and  C_54
REMARK                            x       y       z     vdW  Elec       q    Type
REMARK                         _______ _______ _______ _____ _____    ______ ____
ROOT
ATOM      1  O   UNL     1       0.280  -1.901   0.000  0.00  0.00    +0.000 OA
ATOM      2  C   UNL     1       0.693  -1.186   0.000  0.00  0.00    +0.000 C 
ENDROOT
BRANCH   2   3
ATOM      3  C   UNL     1       0.280  -0.472   0.000  0.00  0.00    +0.000 C 
BRANCH   3   5
ATOM      4  O   UNL     1      -0.545   0.957   0.000  0.00  0.00    +0.000 OA
ATOM      5  N   UNL     1      -0.545  -0.472   0.000  0.00  0.00    +0.000 N 
ATOM      6  C   UNL     1      -0.957   0.242   0.000  0.00  0.00    +0.000 C 
BRANCH   6   7
ATOM      7  C   UNL     1      -1.782   0.242   0.000  0.00  0.00    +0.000 C 
BRANCH   7   8
ATOM      8  C   UNL     1      -2.195   0.957   0.000  0.00  0.00    +0.000 C 
BRANCH   8  11
ATOM      9  O   UNL     1      -3.245   2.405   0.000  0.00  0.00    +0.000 OA
ATOM     10  O   UNL     1      -3.245  -0.491   0.000  0.00  0.00    +0.000 OA
ATOM     11  N   UNL     1      -3.020   0.957   0.000  0.00  0.00    +0.000 N 
ATOM     12  C   UNL     1      -3.501   1.621   0.000  0.00  0.00    +0.000 C 
ATOM     13  C   UNL     1      -3.501   0.293   0.000  0.00  0.00    +0.000 C 
ATOM     14  C   UNL     1      -4.282   1.369   0.000  0.00  0.00    +0.000 A 
ATOM     15  C   UNL     1      -4.282   0.544   0.000  0.00  0.00    +0.000 A 
ATOM     16  C   UNL     1      -4.996   1.782   0.000  0.00  0.00    +0.000 A 
ATOM     17  C   UNL     1      -4.996   0.132   0.000  0.00  0.00    +0.000 A 
ATOM     18  C   UNL     1      -5.711   1.369   0.000  0.00  0.00    +0.000 A 
ATOM     19  C   UNL     1      -5.711   0.544   0.000  0.00  0.00    +0.000 A 
ENDBRANCH   8  11
ENDBRANCH   7   8
ENDBRANCH   6   7
BRANCH   5  20
ATOM     20  C   UNL     1      -0.957  -1.186   0.000  0.00  0.00    +0.000 C 
BRANCH  20  21
ATOM     21  C   UNL     1      -0.545  -1.901   0.000  0.00  0.00    +0.000 C 
BRANCH  21  24
ATOM     22  O   UNL     1      -0.706  -4.825   0.000  0.00  0.00    +0.000 OA
ATOM     23  O   UNL     1      -2.034  -4.825   0.000  0.00  0.00    +0.000 OA
ATOM     24  C   UNL     1      -0.957  -2.615   0.000  0.00  0.00    +0.000 C 
ATOM     25  C   UNL     1      -0.957  -4.044   0.000  0.00  0.00    +0.000 C 
ATOM     26  C   UNL     1      -1.782  -4.044   0.000  0.00  0.00    +0.000 C 
ATOM     27  C   UNL     1      -0.545  -3.330   0.000  0.00  0.00    +0.000 C 
ATOM     28  C   UNL     1      -1.782  -2.615   0.000  0.00  0.00    +0.000 C 
ATOM     29  C   UNL     1      -2.195  -3.330   0.000  0.00  0.00    +0.000 C 
ATOM     30  C   UNL     1      -1.370  -5.306   0.000  0.00  0.00    +0.000 C 
ENDBRANCH  21  24
ENDBRANCH  20  21
ENDBRANCH   5  20
ENDBRANCH   3   5
ENDBRANCH   2   3
BRANCH   2  31
ATOM     31  C   UNL     1       1.518  -1.186   0.000  0.00  0.00    +0.000 C 
BRANCH  31  33
ATOM     32  O   UNL     1       0.693   0.242   0.000  0.00  0.00    +0.000 OA
ATOM     33  N   UNL     1       1.930  -0.472   0.000  0.00  0.00    +0.000 NA
ATOM     34  C   UNL     1       1.518   0.242   0.000  0.00  0.00    +0.000 C 
BRANCH  34  35
ATOM     35  C   UNL     1       1.930   0.957   0.000  0.00  0.00    +0.000 A 
ATOM     36  C   UNL     1       2.755   0.957   0.000  0.00  0.00    +0.000 A 
ATOM     37  C   UNL     1       1.518   1.671   0.000  0.00  0.00    +0.000 A 
ATOM     38  C   UNL     1       1.930   2.386   0.000  0.00  0.00    +0.000 A 
ATOM     39  C   UNL     1       3.168   1.671   0.000  0.00  0.00    +0.000 A 
ATOM     40  C   UNL     1       2.755   2.386   0.000  0.00  0.00    +0.000 A 
BRANCH  38  41
ATOM     41  O   UNL     1       1.518   3.100   0.000  0.00  0.00    +0.000 OA
ATOM     42  C   UNL     1       1.930   3.815   0.000  0.00  0.00    +0.000 C 
ENDBRANCH  38  41
BRANCH  39  43
ATOM     43  O   UNL     1       3.993   1.671   0.000  0.00  0.00    +0.000 OA
ATOM     44  C   UNL     1       4.405   0.957   0.000  0.00  0.00    +0.000 C 
ENDBRANCH  39  43
BRANCH  40  45
ATOM     45  O   UNL     1       3.168   3.100   0.000  0.00  0.00    +0.000 OA
BRANCH  45  46
ATOM     46  C   UNL     1       3.993   3.100   0.000  0.00  0.00    +0.000 C 
BRANCH  46  47
ATOM     47  C   UNL     1       4.405   3.815   0.000  0.00  0.00    +0.000 A 
ATOM     48  C   UNL     1       5.230   3.815   0.000  0.00  0.00    +0.000 A 
ATOM     49  C   UNL     1       3.993   4.529   0.000  0.00  0.00    +0.000 A 
ATOM     50  C   UNL     1       5.643   4.529   0.000  0.00  0.00    +0.000 A 
ATOM     51  C   UNL     1       4.405   5.244   0.000  0.00  0.00    +0.000 A 
ATOM     52  C   UNL     1       5.230   5.244   0.000  0.00  0.00    +0.000 A 
ENDBRANCH  46  47
ENDBRANCH  45  46
ENDBRANCH  40  45
ENDBRANCH  34  35
ENDBRANCH  31  33
BRANCH  31  53
ATOM     53  C   UNL     1       1.930  -1.901   0.000  0.00  0.00    +0.000 C 
BRANCH  53  54
ATOM     54  C   UNL     1       2.755  -1.901   0.000  0.00  0.00    +0.000 A 
ATOM     55  C   UNL     1       3.168  -2.615   0.000  0.00  0.00    +0.000 A 
ATOM     56  C   UNL     1       3.168  -1.186   0.000  0.00  0.00    +0.000 A 
ATOM     57  C   UNL     1       3.993  -2.615   0.000  0.00  0.00    +0.000 A 
ATOM     58  C   UNL     1       3.993  -1.186   0.000  0.00  0.00    +0.000 A 
ATOM     59  C   UNL     1       4.405  -1.901   0.000  0.00  0.00    +0.000 A 
ENDBRANCH  53  54
ENDBRANCH  31  53
ENDBRANCH   2  31
TORSDOF 18
