REMARK  Name = 
REMARK  1 active torsions:
REMARK  status: ('A' for Active; 'I' for Inactive)
REMARK    1  A    between atoms: C_9  and  C_11
REMARK                            x       y       z     vdW  Elec       q    Type
REMARK                         _______ _______ _______ _____ _____    ______ ____
ROOT
ATOM      1  O   UNL     1      -1.429  -1.650   0.000  0.00  0.00    +0.000 OA
ATOM      2  C   UNL     1      -0.715  -1.238   0.000  0.00  0.00    +0.000 A 
ATOM      3  C   UNL     1       0.000  -1.650   0.000  0.00  0.00    +0.000 A 
ATOM      4  C   UNL     1       0.715  -1.238   0.000  0.00  0.00    +0.000 A 
ATOM      5  C   UNL     1       0.715  -0.412   0.000  0.00  0.00    +0.000 A 
ATOM      6  C   UNL     1       1.429   0.000   0.000  0.00  0.00    +0.000 A 
ATOM      7  O   UNL     1       1.429   0.825   0.000  0.00  0.00    +0.000 OA
ATOM      8  C   UNL     1       2.143  -0.412   0.000  0.00  0.00    +0.000 A 
ATOM      9  C   UNL     1       2.143  -1.238   0.000  0.00  0.00    +0.000 A 
ATOM     10  O   UNL     1       1.429  -1.650   0.000  0.00  0.00    +0.000 OA
ATOM     11  C   UNL     1       0.000   0.000   0.000  0.00  0.00    +0.000 A 
ATOM     12  O   UNL     1       0.000   0.825   0.000  0.00  0.00    +0.000 OA
ATOM     13  C   UNL     1      -0.715  -0.412   0.000  0.00  0.00    +0.000 A 
ATOM     14  O   UNL     1      -1.429   0.000   0.000  0.00  0.00    +0.000 OA
ENDROOT
BRANCH   9  15
ATOM     15  C   UNL     1       2.858  -1.650   0.000  0.00  0.00    +0.000 A 
ATOM     16  C   UNL     1       3.572  -1.238   0.000  0.00  0.00    +0.000 A 
ATOM     17  C   UNL     1       4.287  -1.650   0.000  0.00  0.00    +0.000 A 
ATOM     18  C   UNL     1       4.287  -2.475   0.000  0.00  0.00    +0.000 A 
ATOM     19  C   UNL     1       3.572  -2.888   0.000  0.00  0.00    +0.000 A 
ATOM     20  C   UNL     1       2.858  -2.475   0.000  0.00  0.00    +0.000 A 
ENDBRANCH   9  15
TORSDOF 1
