REMARK  Name = 
REMARK  0 active torsions:
REMARK  status: ('A' for Active; 'I' for Inactive)
REMARK                            x       y       z     vdW  Elec       q    Type
REMARK                         _______ _______ _______ _____ _____    ______ ____
ROOT
ATOM      1 AG   UNL     1      -1.040  -0.206   0.000  0.00  0.00    +0.000 Ag
ENDROOT
TORSDOF 0
REMARK  Name = 
REMARK  0 active torsions:
REMARK  status: ('A' for Active; 'I' for Inactive)
REMARK                            x       y       z     vdW  Elec       q    Type
REMARK                         _______ _______ _______ _____ _____    ______ ____
ROOT
ATOM      1  O   UNL     1       0.325   0.619   0.000  0.00  0.00    +0.000 OA
ATOM      2  O   UNL     1       1.040  -0.619   0.000  0.00  0.00    +0.000 OA
ATOM      3  N   UNL     1       0.325  -0.206   0.000  0.00  0.00    +0.000 N 
ATOM      4  O   UNL     1      -0.389  -0.619   0.000  0.00  0.00    +0.000 OA
ENDROOT
TORSDOF 0
