REMARK  Name = 
REMARK  2 active torsions:
REMARK  status: ('A' for Active; 'I' for Inactive)
REMARK    1  A    between atoms: N_13  and  C_14
REMARK    2  A    between atoms: C_14  and  C_15
REMARK                            x       y       z     vdW  Elec       q    Type
REMARK                         _______ _______ _______ _____ _____    ______ ____
ROOT
ATOM      1  C   UNL     1      -0.357  -0.997   0.000  0.00  0.00    +0.000 A 
ATOM      2  C   UNL     1      -0.357  -1.821   0.000  0.00  0.00    +0.000 A 
ATOM      3  C   UNL     1      -1.072  -0.584   0.000  0.00  0.00    +0.000 A 
ATOM      4  C   UNL     1      -1.072  -2.234   0.000  0.00  0.00    +0.000 A 
ATOM      5  C   UNL     1      -1.786  -0.997   0.000  0.00  0.00    +0.000 A 
ATOM      6  C   UNL     1      -1.786  -1.821   0.000  0.00  0.00    +0.000 A 
ATOM      7  C   UNL     1       1.072  -0.997   0.000  0.00  0.00    +0.000 A 
ATOM      8  C   UNL     1       1.072  -1.821   0.000  0.00  0.00    +0.000 A 
ATOM      9  C   UNL     1       0.357  -0.584   0.000  0.00  0.00    +0.000 A 
ATOM     10  N   UNL     1       0.357  -2.234   0.000  0.00  0.00    +0.000 NA
ATOM     11  N   UNL     1       1.685  -0.444   0.000  0.00  0.00    +0.000 NA
ATOM     12  C   UNL     1       1.349   0.309   0.000  0.00  0.00    +0.000 A 
ATOM     13  N   UNL     1       0.529   0.223   0.000  0.00  0.00    +0.000 N 
ATOM     14  N   UNL     1       1.786  -2.234   0.000  0.00  0.00    +0.000 NA
ENDROOT
BRANCH  13  15
ATOM     15  C   UNL     1      -0.023   0.836   0.000  0.00  0.00    +0.000 C 
BRANCH  15  16
ATOM     16  C   UNL     1       0.232   1.621   0.000  0.00  0.00    +0.000 C 
ATOM     17  C   UNL     1       1.039   1.792   0.000  0.00  0.00    +0.000 C 
ATOM     18  C   UNL     1      -0.320   2.234   0.000  0.00  0.00    +0.000 C 
ENDBRANCH  15  16
ENDBRANCH  13  15
TORSDOF 2
