REMARK  Name = 
REMARK  3 active torsions:
REMARK  status: ('A' for Active; 'I' for Inactive)
REMARK    1  A    between atoms: C_3  and  C_4
REMARK    2  A    between atoms: C_3  and  C_12
REMARK    3  A    between atoms: C_5  and  C_11
REMARK                            x       y       z     vdW  Elec       q    Type
REMARK                         _______ _______ _______ _____ _____    ______ ____
ROOT
ATOM      1  C   UNL     1      -1.035  -0.355   0.000  0.00  0.00    +0.000 A 
ATOM      2  C   UNL     1       0.624  -0.355   0.000  0.00  0.00    +0.000 A 
ATOM      3  C   UNL     1      -0.617  -1.074   0.000  0.00  0.00    +0.000 A 
ATOM      4  C   UNL     1      -0.617   0.355   0.000  0.00  0.00    +0.000 A 
ATOM      5  C   UNL     1       0.206  -1.074   0.000  0.00  0.00    +0.000 A 
ATOM      6  C   UNL     1       0.206   0.355   0.000  0.00  0.00    +0.000 A 
ENDROOT
BRANCH   2   7
ATOM      7  C   UNL     1       1.447  -0.355   0.000  0.00  0.00    +0.000 A 
ATOM      8  C   UNL     1       1.865   0.355   0.000  0.00  0.00    +0.000 A 
ATOM      9  C   UNL     1       1.865  -1.074   0.000  0.00  0.00    +0.000 A 
ATOM     10  C   UNL     1       2.688   0.355   0.000  0.00  0.00    +0.000 A 
ATOM     11  C   UNL     1       2.688  -1.074   0.000  0.00  0.00    +0.000 A 
ATOM     12  C   UNL     1       3.099  -0.355   0.000  0.00  0.00    +0.000 A 
ENDBRANCH   2   7
BRANCH   1  13
ATOM     13  C   UNL     1      -1.858  -0.355   0.000  0.00  0.00    +0.000 C 
ATOM     14  C   UNL     1      -2.276  -1.074   0.000  0.00  0.00    +0.000 C 
BRANCH  13  17
ATOM     15  O   UNL     1      -3.099   0.355   0.000  0.00  0.00    +0.000 OA
ATOM     16  O   UNL     1      -1.858   1.074   0.000  0.00  0.00    +0.000 OA
ATOM     17  C   UNL     1      -2.276   0.355   0.000  0.00  0.00    +0.000 C 
ENDBRANCH  13  17
ENDBRANCH   1  13
TORSDOF 3
