REMARK  Name = 
REMARK  7 active torsions:
REMARK  status: ('A' for Active; 'I' for Inactive)
REMARK    1  A    between atoms: C_1  and  C_2
REMARK    2  A    between atoms: C_1  and  O_3
REMARK    3  A    between atoms: C_1  and  C_4
REMARK    4  A    between atoms: O_3  and  C_7
REMARK    5  A    between atoms: C_4  and  C_8
REMARK    6  A    between atoms: C_8  and  N_13
REMARK    7  A    between atoms: C_12  and  O_19
REMARK                            x       y       z     vdW  Elec       q    Type
REMARK                         _______ _______ _______ _____ _____    ______ ____
ROOT
ATOM      1  C   UNL     1      -0.003   0.424   0.000  0.00  0.00    +0.000 C 
ENDROOT
BRANCH   1   2
ATOM      2  C   UNL     1      -0.003  -0.399   0.000  0.00  0.00    +0.000 A 
ATOM      3  C   UNL     1      -0.724  -0.812   0.000  0.00  0.00    +0.000 A 
ATOM      4  C   UNL     1       0.711  -0.812   0.000  0.00  0.00    +0.000 A 
ATOM      5  C   UNL     1      -0.724  -1.639   0.000  0.00  0.00    +0.000 A 
ATOM      6  C   UNL     1       0.711  -1.639   0.000  0.00  0.00    +0.000 A 
ATOM      7  C   UNL     1      -0.003  -2.052   0.000  0.00  0.00    +0.000 A 
ENDBRANCH   1   2
BRANCH   1   8
ATOM      8  C   UNL     1      -0.720   0.838   0.000  0.00  0.00    +0.000 C 
BRANCH   8   9
ATOM      9  C   UNL     1      -1.431   0.428   0.000  0.00  0.00    +0.000 C 
BRANCH   9  10
ATOM     10  N   UNL     1      -2.148   0.841   0.000  0.00  0.00    +0.000 NA
ATOM     11  C   UNL     1      -2.862   0.428   0.000  0.00  0.00    +0.000 C 
ENDBRANCH   9  10
ENDBRANCH   8   9
ENDBRANCH   1   8
BRANCH   1  12
ATOM     12  O   UNL     1       0.714   0.838   0.000  0.00  0.00    +0.000 OA
BRANCH  12  13
ATOM     13  C   UNL     1       1.428   0.424   0.000  0.00  0.00    +0.000 A 
ATOM     14  C   UNL     1       1.428  -0.399   0.000  0.00  0.00    +0.000 A 
ATOM     15  C   UNL     1       2.142   0.838   0.000  0.00  0.00    +0.000 A 
ATOM     16  C   UNL     1       2.139  -0.812   0.000  0.00  0.00    +0.000 A 
ATOM     17  C   UNL     1       2.856   0.424   0.000  0.00  0.00    +0.000 A 
ATOM     18  C   UNL     1       2.856  -0.402   0.000  0.00  0.00    +0.000 A 
BRANCH  15  19
ATOM     19  O   UNL     1       2.142   1.637   0.000  0.00  0.00    +0.000 OA
ATOM     20  C   UNL     1       2.862   2.052   0.000  0.00  0.00    +0.000 C 
ENDBRANCH  15  19
ENDBRANCH  12  13
ENDBRANCH   1  12
TORSDOF 7
