REMARK  Name = 
REMARK  4 active torsions:
REMARK  status: ('A' for Active; 'I' for Inactive)
REMARK    1  A    between atoms: C_1  and  C_2
REMARK    2  A    between atoms: C_2  and  C_3
REMARK    3  A    between atoms: C_3  and  C_4
REMARK    4  A    between atoms: C_4  and  C_5
REMARK                            x       y       z     vdW  Elec       q    Type
REMARK                         _______ _______ _______ _____ _____    ______ ____
ROOT
ATOM      1  C   UNL     1      -0.360   0.211   0.000  0.00  0.00    +0.000 C 
ATOM      2  O   UNL     1      -0.360   1.036   0.000  0.00  0.00    +0.000 OA
ENDROOT
BRANCH   1   3
ATOM      3  C   UNL     1       0.360  -0.199   0.000  0.00  0.00    +0.000 C 
ATOM      4  O   UNL     1       0.360  -1.024   0.000  0.00  0.00    +0.000 OA
BRANCH   3   5
ATOM      5  C   UNL     1       1.069   0.223   0.000  0.00  0.00    +0.000 C 
ATOM      6  O   UNL     1       1.789  -0.187   0.000  0.00  0.00    +0.000 OA
ENDBRANCH   3   5
ENDBRANCH   1   3
BRANCH   1   7
ATOM      7  C   UNL     1      -1.069  -0.211   0.000  0.00  0.00    +0.000 C 
ATOM      8  O   UNL     1      -1.069  -1.036   0.000  0.00  0.00    +0.000 OA
BRANCH   7   9
ATOM      9  C   UNL     1      -1.789   0.199   0.000  0.00  0.00    +0.000 C 
ATOM     10  O   UNL     1      -1.789   1.024   0.000  0.00  0.00    +0.000 OA
ENDBRANCH   7   9
ENDBRANCH   1   7
TORSDOF 4
