REMARK  Name = 
REMARK  11 active torsions:
REMARK  status: ('A' for Active; 'I' for Inactive)
REMARK    1  A    between atoms: C_4  and  S_5
REMARK    2  A    between atoms: S_5  and  C_6
REMARK    3  A    between atoms: C_12  and  C_21
REMARK    4  A    between atoms: C_16  and  C_18
REMARK    5  A    between atoms: C_21  and  O_23
REMARK    6  A    between atoms: O_23  and  C_24
REMARK    7  A    between atoms: C_24  and  O_25
REMARK    8  A    between atoms: O_25  and  C_26
REMARK    9  A    between atoms: C_26  and  C_28
REMARK   10  A    between atoms: C_28  and  C_29
REMARK   11  A    between atoms: C_28  and  C_31
REMARK                            x       y       z     vdW  Elec       q    Type
REMARK                         _______ _______ _______ _____ _____    ______ ____
ROOT
ATOM      1  C   UNL     1      -0.643   3.178   0.000  0.00  0.00    +0.000 C 
ATOM      2  S   UNL     1      -0.020   3.718   0.000  0.00  0.00    +0.000 S 
ATOM      3  C   UNL     1       0.687   3.292   0.000  0.00  0.00    +0.000 C 
ATOM      4  C   UNL     1       0.499   2.488   0.000  0.00  0.00    +0.000 C 
ATOM      5  N   UNL     1      -0.323   2.418   0.000  0.00  0.00    +0.000 N 
ATOM      6  C   UNL     1      -1.083   2.097   0.000  0.00  0.00    +0.000 C 
ATOM      7  O   UNL     1      -1.393   1.333   0.000  0.00  0.00    +0.000 OA
ATOM      8  C   UNL     1      -1.403   2.857   0.000  0.00  0.00    +0.000 C 
ENDROOT
BRANCH   8   9
ATOM      9  C   UNL     1      -2.168   3.167   0.000  0.00  0.00    +0.000 C 
ATOM     10  C   UNL     1      -2.281   3.985   0.000  0.00  0.00    +0.000 C 
ATOM     11  O   UNL     1      -2.819   2.661   0.000  0.00  0.00    +0.000 OA
ENDBRANCH   8   9
BRANCH   4  12
ATOM     12  C   UNL     1       1.040   1.865   0.000  0.00  0.00    +0.000 C 
ATOM     13  O   UNL     1       0.769   1.085   0.000  0.00  0.00    +0.000 OA
BRANCH  12  14
ATOM     14  O   UNL     1       1.850   2.021   0.000  0.00  0.00    +0.000 OA
BRANCH  14  15
ATOM     15  C   UNL     1       2.390   1.397   0.000  0.00  0.00    +0.000 C 
BRANCH  15  16
ATOM     16  O   UNL     1       3.200   1.553   0.000  0.00  0.00    +0.000 OA
BRANCH  16  17
ATOM     17  C   UNL     1       3.740   0.929   0.000  0.00  0.00    +0.000 C 
ATOM     18  O   UNL     1       3.470   0.149   0.000  0.00  0.00    +0.000 OA
BRANCH  17  19
ATOM     19  C   UNL     1       4.550   1.085   0.000  0.00  0.00    +0.000 C 
BRANCH  19  20
ATOM     20  C   UNL     1       4.820   1.865   0.000  0.00  0.00    +0.000 C 
ATOM     21  C   UNL     1       5.630   2.021   0.000  0.00  0.00    +0.000 C 
ENDBRANCH  19  20
BRANCH  19  22
ATOM     22  C   UNL     1       5.090   0.461   0.000  0.00  0.00    +0.000 C 
ATOM     23  C   UNL     1       5.900   0.617   0.000  0.00  0.00    +0.000 C 
ENDBRANCH  19  22
ENDBRANCH  17  19
ENDBRANCH  16  17
ENDBRANCH  15  16
ENDBRANCH  14  15
ENDBRANCH  12  14
ENDBRANCH   4  12
BRANCH   3  24
ATOM     24  S   UNL     1       1.447   3.613   0.000  0.00  0.00    +0.000 S 
BRANCH  24  25
ATOM     25  C   UNL     1       1.549   4.431   0.000  0.00  0.00    +0.000 C 
ATOM     26  C   UNL     1       0.946   4.995   0.000  0.00  0.00    +0.000 C 
ATOM     27  C   UNL     1       1.296   5.742   0.000  0.00  0.00    +0.000 C 
ATOM     28  S   UNL     1       2.115   5.640   0.000  0.00  0.00    +0.000 S 
ATOM     29  O   UNL     1       2.679   6.242   0.000  0.00  0.00    +0.000 OA
ATOM     30  C   UNL     1       2.271   4.830   0.000  0.00  0.00    +0.000 C 
ENDBRANCH  24  25
ENDBRANCH   3  24
TORSDOF 11
