REMARK  Name = 
REMARK  3 active torsions:
REMARK  status: ('A' for Active; 'I' for Inactive)
REMARK    1  A    between atoms: CG_1  and  CB_2
REMARK    2  A    between atoms: CB_2  and  CA_3
REMARK    3  A    between atoms: CA_3  and  C_10
REMARK                            x       y       z     vdW  Elec       q    Type
REMARK                         _______ _______ _______ _____ _____    ______ ____
ROOT
ATOM      1  CB  HIS A   1      -0.080   0.334   0.000  0.00  0.00    +0.000 C 
ENDROOT
BRANCH   1   2
ATOM      2  CG  HIS A   1      -0.794  -0.079   0.000  0.00  0.00    +0.000 A 
ATOM      3  CD2 HIS A   1      -0.794  -0.904   0.000  0.00  0.00    +0.000 A 
ATOM      4  ND1 HIS A   1      -1.579   0.176   0.000  0.00  0.00    +0.000 NA
ATOM      5  CE1 HIS A   1      -2.063  -0.491   0.000  0.00  0.00    +0.000 A 
ATOM      6  NE2 HIS A   1      -1.579  -1.159   0.000  0.00  0.00    +0.000 NA
ENDBRANCH   1   2
BRANCH   1   7
ATOM      7  CA  HIS A   1       0.635  -0.079   0.000  0.00  0.00    +0.000 C 
ATOM      8  N   HIS A   1       0.635  -0.904   0.000  0.00  0.00    +0.000 NA
BRANCH   7  10
ATOM      9  O   HIS A   1       1.349   1.159   0.000  0.00  0.00    +0.000 OA
ATOM     10  C   HIS A   1       1.349   0.334   0.000  0.00  0.00    +0.000 C 
ATOM     11  OXT HIS A   1       2.064  -0.079   0.000  0.00  0.00    +0.000 OA
ENDBRANCH   7  10
ENDBRANCH   1   7
TORSDOF 3
