REMARK  Name = 
REMARK  6 active torsions:
REMARK  status: ('A' for Active; 'I' for Inactive)
REMARK    1  A    between atoms: C_1  and  O_9
REMARK    2  A    between atoms: C_5  and  C_22
REMARK    3  A    between atoms: O_9  and  C_10
REMARK    4  A    between atoms: C_10  and  C_15
REMARK    5  A    between atoms: C_15  and  S_16
REMARK    6  A    between atoms: S_16  and  C_27
REMARK                            x       y       z     vdW  Elec       q    Type
REMARK                         _______ _______ _______ _____ _____    ______ ____
ROOT
ATOM      1  C   UNL     1       1.445  -0.104   0.000  0.00  0.00    +0.000 C 
ATOM      2  C   UNL     1       1.716   0.689   0.000  0.00  0.00    +0.000 C 
ATOM      3  C   UNL     1       2.225  -1.231   0.000  0.00  0.00    +0.000 C 
ATOM      4  C   UNL     1       2.995  -1.438   0.000  0.00  0.00    +0.000 C 
ATOM      5  C   UNL     1       1.398  -1.431   0.000  0.00  0.00    +0.000 C 
ATOM      6  O   UNL     1       1.995  -2.420   0.000  0.00  0.00    +0.000 OA
ATOM      7  C   UNL     1       2.648  -1.863   0.000  0.00  0.00    +0.000 C 
ATOM      8  C   UNL     1       3.275   0.784   0.000  0.00  0.00    +0.000 C 
ATOM      9  O   UNL     1       3.834   1.375   0.000  0.00  0.00    +0.000 OA
ATOM     10  C   UNL     1       1.779  -0.807   0.000  0.00  0.00    +0.000 C 
ATOM     11  C   UNL     1       3.316  -0.775   0.000  0.00  0.00    +0.000 C 
ATOM     12  C   UNL     1       2.491   1.023   0.000  0.00  0.00    +0.000 C 
ATOM     13  C   UNL     1       0.580  -1.167   0.000  0.00  0.00    +0.000 C 
ATOM     14  C   UNL     1       3.627   0.022   0.000  0.00  0.00    +0.000 C 
ATOM     15  C   UNL     1       2.572  -1.086   0.000  0.00  0.00    +0.000 C 
ATOM     16  C   UNL     1       3.879  -1.384   0.000  0.00  0.00    +0.000 C 
ATOM     17  C   UNL     1       3.446  -2.105   0.000  0.00  0.00    +0.000 C 
ATOM     18  C   UNL     1       3.032   1.645   0.000  0.00  0.00    +0.000 C 
ATOM     19  C   UNL     1       4.450  -0.023   0.000  0.00  0.00    +0.000 C 
ATOM     20  C   UNL     1       0.979  -0.604   0.000  0.00  0.00    +0.000 C 
ENDROOT
BRANCH  12  21
ATOM     21  C   UNL     1       2.097   1.741   0.000  0.00  0.00    +0.000 C 
ATOM     22  C   UNL     1       2.509   2.420   0.000  0.00  0.00    +0.000 C 
ENDBRANCH  12  21
BRANCH   1  23
ATOM     23  O   UNL     1       0.580  -0.022   0.000  0.00  0.00    +0.000 OA
BRANCH  23  24
ATOM     24  C   UNL     1      -0.123   0.590   0.000  0.00  0.00    +0.000 C 
ATOM     25  O   UNL     1      -0.123   1.431   0.000  0.00  0.00    +0.000 OA
BRANCH  24  26
ATOM     26  C   UNL     1      -0.718   0.113   0.000  0.00  0.00    +0.000 C 
BRANCH  26  27
ATOM     27  S   UNL     1      -1.476   0.554   0.000  0.00  0.00    +0.000 S 
BRANCH  27  34
ATOM     28  C   UNL     1      -2.940   0.514   0.000  0.00  0.00    +0.000 C 
ATOM     29  O   UNL     1      -2.927   1.384   0.000  0.00  0.00    +0.000 OA
ATOM     30  N   UNL     1      -4.450  -1.222   0.000  0.00  0.00    +0.000 NA
ATOM     31  C   UNL     1      -3.625  -0.730   0.000  0.00  0.00    +0.000 C 
ATOM     32  C   UNL     1      -3.639   0.095   0.000  0.00  0.00    +0.000 C 
ATOM     33  C   UNL     1      -2.196  -0.717   0.000  0.00  0.00    +0.000 C 
ATOM     34  C   UNL     1      -2.196   0.095   0.000  0.00  0.00    +0.000 C 
ATOM     35  C   UNL     1      -2.900  -1.131   0.000  0.00  0.00    +0.000 C 
ENDBRANCH  27  34
ENDBRANCH  26  27
ENDBRANCH  24  26
ENDBRANCH  23  24
ENDBRANCH   1  23
TORSDOF 6
