REMARK  Name = 
REMARK  9 active torsions:
REMARK  status: ('A' for Active; 'I' for Inactive)
REMARK    1  A    between atoms: C_1  and  C_2
REMARK    2  A    between atoms: C_1  and  C_6
REMARK    3  A    between atoms: C_6  and  C_7
REMARK    4  A    between atoms: C_6  and  C_8
REMARK    5  A    between atoms: C_8  and  C_9
REMARK    6  A    between atoms: N_12  and  C_14
REMARK    7  A    between atoms: C_14  and  C_15
REMARK    8  A    between atoms: C_14  and  C_16
REMARK    9  A    between atoms: C_16  and  C_17
REMARK                            x       y       z     vdW  Elec       q    Type
REMARK                         _______ _______ _______ _____ _____    ______ ____
ROOT
ATOM      1  C   UNL     1       1.334   0.550   0.000  0.00  0.00    +0.000 C 
ENDROOT
BRANCH   1   2
ATOM      2  C   UNL     1       2.038   0.968   0.000  0.00  0.00    +0.000 C 
ATOM      3  N   UNL     1       2.750   0.567   0.000  0.00  0.00    +0.000 NA
ATOM      4  O   UNL     1       2.029   1.794   0.000  0.00  0.00    +0.000 OA
ATOM      5  C   UNL     1       3.469   0.994   0.000  0.00  0.00    +0.000 C 
ENDBRANCH   1   2
BRANCH   1   7
ATOM      6  C   UNL     1      -0.102   0.529   0.000  0.00  0.00    +0.000 C 
ATOM      7  N   UNL     1       0.615   0.954   0.000  0.00  0.00    +0.000 NA
ATOM      8  O   UNL     1      -0.092  -0.315   0.000  0.00  0.00    +0.000 OA
BRANCH   6   9
ATOM      9  C   UNL     1      -0.819   0.933   0.000  0.00  0.00    +0.000 C 
BRANCH   9  10
ATOM     10  C   UNL     1      -0.787   1.793   0.000  0.00  0.00    +0.000 C 
BRANCH  10  11
ATOM     11  C   UNL     1      -0.075   2.215   0.000  0.00  0.00    +0.000 C 
ATOM     12  C   UNL     1       0.642   1.811   0.000  0.00  0.00    +0.000 C 
ATOM     13  C   UNL     1      -0.085   3.034   0.000  0.00  0.00    +0.000 C 
ENDBRANCH  10  11
ENDBRANCH   9  10
BRANCH   9  14
ATOM     14  C   UNL     1      -1.531   0.512   0.000  0.00  0.00    +0.000 C 
BRANCH  14  15
ATOM     15  C   UNL     1      -2.192   0.884   0.000  0.00  0.00    +0.000 C 
ATOM     16  N   UNL     1      -2.895   0.512   0.000  0.00  0.00    +0.000 NA
ATOM     17  O   UNL     1      -2.192   1.669   0.000  0.00  0.00    +0.000 OA
ATOM     18  O   UNL     1      -3.557   0.884   0.000  0.00  0.00    +0.000 OA
ENDBRANCH  14  15
ENDBRANCH   9  14
ENDBRANCH   6   9
ENDBRANCH   1   7
BRANCH   1  19
ATOM     19  C   UNL     1       1.343  -0.397   0.000  0.00  0.00    +0.000 C 
BRANCH  19  20
ATOM     20  C   UNL     1       2.079  -0.811   0.000  0.00  0.00    +0.000 A 
ATOM     21  C   UNL     1       2.325  -1.594   0.000  0.00  0.00    +0.000 A 
ATOM     22  C   UNL     1       3.149  -1.601   0.000  0.00  0.00    +0.000 A 
ATOM     23  N   UNL     1       3.411  -0.819   0.000  0.00  0.00    +0.000 NA
ATOM     24  C   UNL     1       2.748  -0.328   0.000  0.00  0.00    +0.000 A 
ATOM     25  C   UNL     1       1.905  -2.307   0.000  0.00  0.00    +0.000 A 
ATOM     26  C   UNL     1       2.312  -3.027   0.000  0.00  0.00    +0.000 A 
ATOM     27  C   UNL     1       3.137  -3.034   0.000  0.00  0.00    +0.000 A 
ATOM     28  C   UNL     1       3.557  -2.321   0.000  0.00  0.00    +0.000 A 
ENDBRANCH  19  20
ENDBRANCH   1  19
TORSDOF 9
