REMARK  Name = 
REMARK  3 active torsions:
REMARK  status: ('A' for Active; 'I' for Inactive)
REMARK    1  A    between atoms: C_1  and  C_4
REMARK    2  A    between atoms: C_2  and  O_6
REMARK    3  A    between atoms: O_6  and  C_11
REMARK                            x       y       z     vdW  Elec       q    Type
REMARK                         _______ _______ _______ _____ _____    ______ ____
ROOT
ATOM      1  C   UNL     1       0.000  -0.619   0.000  0.00  0.00    +0.000 A 
ATOM      2  C   UNL     1      -0.714  -0.206   0.000  0.00  0.00    +0.000 A 
ATOM      3  C   UNL     1       0.000  -1.444   0.000  0.00  0.00    +0.000 A 
ATOM      4  C   UNL     1      -1.429  -0.619   0.000  0.00  0.00    +0.000 A 
ATOM      5  C   UNL     1      -0.714  -1.856   0.000  0.00  0.00    +0.000 A 
ATOM      6  C   UNL     1      -1.429  -1.444   0.000  0.00  0.00    +0.000 A 
ENDROOT
BRANCH   1   7
ATOM      7  C   UNL     1       0.714  -0.206   0.000  0.00  0.00    +0.000 C 
ATOM      8  N   UNL     1       1.429  -0.619   0.000  0.00  0.00    +0.000 NA
ATOM      9  O   UNL     1       0.714   0.619   0.000  0.00  0.00    +0.000 OA
ENDBRANCH   1   7
BRANCH   2  10
ATOM     10  O   UNL     1      -0.714   0.619   0.000  0.00  0.00    +0.000 OA
BRANCH  10  11
ATOM     11  C   UNL     1      -1.429   1.031   0.000  0.00  0.00    +0.000 C 
ATOM     12  C   UNL     1      -1.429   1.856   0.000  0.00  0.00    +0.000 C 
ENDBRANCH  10  11
ENDBRANCH   2  10
TORSDOF 3
