REMARK  Name = 
REMARK  9 active torsions:
REMARK  status: ('A' for Active; 'I' for Inactive)
REMARK    1  A    between atoms: C_2  and  C_3
REMARK    2  A    between atoms: C_7  and  C_8
REMARK    3  A    between atoms: N_10  and  C_11
REMARK    4  A    between atoms: C_11  and  C_17
REMARK    5  A    between atoms: C_13  and  C_14
REMARK    6  A    between atoms: N_19  and  S_20
REMARK    7  A    between atoms: S_20  and  C_23
REMARK    8  A    between atoms: C_29  and  C_57
REMARK    9  A    between atoms: C_47  and  O_52
REMARK                            x       y       z     vdW  Elec       q    Type
REMARK                         _______ _______ _______ _____ _____    ______ ____
ROOT
ATOM      1  C   UNL     1       2.245  -1.098   0.000  0.00  0.00    +0.000 C 
ATOM      2  C   UNL     1       2.858  -1.650   0.000  0.00  0.00    +0.000 C 
ATOM      3  C   UNL     1       3.572  -1.238   0.000  0.00  0.00    +0.000 C 
ATOM      4  N   UNL     1       3.572  -0.412   0.000  0.00  0.00    +0.000 N 
ATOM      5  C   UNL     1       2.580  -0.344   0.000  0.00  0.00    +0.000 C 
ATOM      6  C   UNL     1       4.287   0.000   0.000  0.00  0.00    +0.000 C 
ATOM      7  O   UNL     1       4.287   0.825   0.000  0.00  0.00    +0.000 OA
ATOM      8  C   UNL     1       5.001  -0.412   0.000  0.00  0.00    +0.000 C 
ATOM      9  N   UNL     1       5.001  -1.238   0.000  0.00  0.00    +0.000 NA
ATOM     10  C   UNL     1       5.716  -1.650   0.000  0.00  0.00    +0.000 C 
ATOM     11  O   UNL     1       6.430  -1.238   0.000  0.00  0.00    +0.000 OA
ATOM     12  O   UNL     1       5.716  -2.475   0.000  0.00  0.00    +0.000 OA
ATOM     13  C   UNL     1       6.430  -2.888   0.000  0.00  0.00    +0.000 C 
ATOM     14  C   UNL     1       7.145  -3.300   0.000  0.00  0.00    +0.000 C 
ATOM     15  C   UNL     1       6.430  -3.712   0.000  0.00  0.00    +0.000 C 
ATOM     16  C   UNL     1       5.716  -4.125   0.000  0.00  0.00    +0.000 C 
ATOM     17  C   UNL     1       5.716  -4.950   0.000  0.00  0.00    +0.000 C 
ATOM     18  C   UNL     1       5.001  -5.362   0.000  0.00  0.00    +0.000 C 
ATOM     19  C   UNL     1       4.287  -4.950   0.000  0.00  0.00    +0.000 C 
ATOM     20  C   UNL     1       4.287  -4.125   0.000  0.00  0.00    +0.000 C 
ATOM     21  C   UNL     1       3.572  -3.712   0.000  0.00  0.00    +0.000 A 
ATOM     22  C   UNL     1       3.572  -2.888   0.000  0.00  0.00    +0.000 A 
ATOM     23  N   UNL     1       2.949  -2.137   0.000  0.00  0.00    +0.000 NA
ATOM     24  C   UNL     1       2.143  -2.888   0.000  0.00  0.00    +0.000 A 
ATOM     25  C   UNL     1       1.429  -2.475   0.000  0.00  0.00    +0.000 A 
ATOM     26  C   UNL     1       0.715  -2.888   0.000  0.00  0.00    +0.000 A 
ATOM     27  C   UNL     1       0.715  -3.712   0.000  0.00  0.00    +0.000 A 
ATOM     28  C   UNL     1       1.429  -4.125   0.000  0.00  0.00    +0.000 A 
ATOM     29  C   UNL     1       2.143  -3.712   0.000  0.00  0.00    +0.000 A 
ATOM     30  N   UNL     1       2.858  -4.125   0.000  0.00  0.00    +0.000 NA
ATOM     31  O   UNL     1       2.858  -2.475   0.000  0.00  0.00    +0.000 OA
ATOM     32  F   UNL     1       3.693  -4.698   0.000  0.00  0.00    +0.000 F 
ATOM     33  F   UNL     1       3.494  -4.352   0.000  0.00  0.00    +0.000 F 
ENDROOT
BRANCH   8  34
ATOM     34  C   UNL     1       5.716   0.000   0.000  0.00  0.00    +0.000 C 
ATOM     35  C   UNL     1       6.430   0.412   0.000  0.00  0.00    +0.000 C 
ATOM     36  C   UNL     1       6.128  -0.715   0.000  0.00  0.00    +0.000 C 
ATOM     37  C   UNL     1       5.303   0.715   0.000  0.00  0.00    +0.000 C 
ENDBRANCH   8  34
BRANCH   5  38
ATOM     38  C   UNL     1       2.155   0.363   0.000  0.00  0.00    +0.000 C 
ATOM     39  O   UNL     1       1.330   0.348   0.000  0.00  0.00    +0.000 OA
ATOM     40  N   UNL     1       2.555   1.084   0.000  0.00  0.00    +0.000 NA
BRANCH  40  41
ATOM     41  C   UNL     1       2.129   1.791   0.000  0.00  0.00    +0.000 C 
ATOM     42  C   UNL     1       1.971   2.601   0.000  0.00  0.00    +0.000 C 
ATOM     43  C   UNL     1       2.752   2.333   0.000  0.00  0.00    +0.000 C 
BRANCH  43  44
ATOM     44  C   UNL     1       3.561   2.491   0.000  0.00  0.00    +0.000 C 
ATOM     45  F   UNL     1       4.103   1.869   0.000  0.00  0.00    +0.000 F 
ATOM     46  F   UNL     1       3.829   3.271   0.000  0.00  0.00    +0.000 F 
ENDBRANCH  43  44
BRANCH  41  47
ATOM     47  C   UNL     1       1.359   1.495   0.000  0.00  0.00    +0.000 C 
ATOM     48  O   UNL     1       1.231   0.680   0.000  0.00  0.00    +0.000 OA
ATOM     49  N   UNL     1       0.718   2.014   0.000  0.00  0.00    +0.000 NA
BRANCH  49  50
ATOM     50  S   UNL     1      -0.052   1.718   0.000  0.00  0.00    +0.000 S 
ATOM     51  O   UNL     1       0.244   0.948   0.000  0.00  0.00    +0.000 OA
ATOM     52  O   UNL     1      -0.348   2.488   0.000  0.00  0.00    +0.000 OA
BRANCH  50  53
ATOM     53  C   UNL     1      -0.822   1.422   0.000  0.00  0.00    +0.000 C 
ATOM     54  C   UNL     1      -1.647   1.407   0.000  0.00  0.00    +0.000 C 
ATOM     55  C   UNL     1      -1.248   2.129   0.000  0.00  0.00    +0.000 C 
ATOM     56  C   UNL     1      -0.664   0.612   0.000  0.00  0.00    +0.000 C 
ENDBRANCH  50  53
ENDBRANCH  49  50
ENDBRANCH  41  47
ENDBRANCH  40  41
ENDBRANCH   5  38
BRANCH  26  57
ATOM     57  O   UNL     1       0.000  -2.475   0.000  0.00  0.00    +0.000 OA
ATOM     58  C   UNL     1      -0.715  -2.888   0.000  0.00  0.00    +0.000 C 
ENDBRANCH  26  57
BRANCH   1  60
ATOM     59  C   UNL     1       0.886  -0.656   0.000  0.00  0.00    +0.000 C 
ATOM     60  C   UNL     1       1.438  -1.270   0.000  0.00  0.00    +0.000 C 
ENDBRANCH   1  60
TORSDOF 9
