REMARK  Name = 
REMARK  7 active torsions:
REMARK  status: ('A' for Active; 'I' for Inactive)
REMARK    1  A    between atoms: C_1  and  C_2
REMARK    2  A    between atoms: C_5  and  C_8
REMARK    3  A    between atoms: C_8  and  N_9
REMARK    4  A    between atoms: C_12  and  C_15
REMARK    5  A    between atoms: C_15  and  N_16
REMARK    6  A    between atoms: N_16  and  C_17
REMARK    7  A    between atoms: C_18  and  C_20
REMARK                            x       y       z     vdW  Elec       q    Type
REMARK                         _______ _______ _______ _____ _____    ______ ____
ROOT
ATOM      1  N   UNL     1       1.127  -0.824   0.000  0.00  0.00    +0.000 NA
ATOM      2  C   UNL     1       0.412  -1.236   0.000  0.00  0.00    +0.000 C 
ATOM      3  C   UNL     1      -0.303  -0.824   0.000  0.00  0.00    +0.000 C 
ATOM      4  C   UNL     1      -0.303   0.000   0.000  0.00  0.00    +0.000 C 
ATOM      5  C   UNL     1       0.412   0.412   0.000  0.00  0.00    +0.000 C 
ATOM      6  C   UNL     1       1.127   0.000   0.000  0.00  0.00    +0.000 C 
ENDROOT
BRANCH   1   7
ATOM      7  C   UNL     1       1.841  -1.236   0.000  0.00  0.00    +0.000 C 
BRANCH   7  11
ATOM      8  C   UNL     1       3.982   0.000   0.000  0.00  0.00    +0.000 A 
ATOM      9  C   UNL     1       3.982  -0.824   0.000  0.00  0.00    +0.000 A 
ATOM     10  C   UNL     1       3.271  -1.236   0.000  0.00  0.00    +0.000 A 
ATOM     11  C   UNL     1       2.557  -0.824   0.000  0.00  0.00    +0.000 A 
ATOM     12  C   UNL     1       2.557   0.000   0.000  0.00  0.00    +0.000 A 
ATOM     13  C   UNL     1       3.271   0.412   0.000  0.00  0.00    +0.000 A 
BRANCH   8  14
ATOM     14  C   UNL     1       4.697   0.412   0.000  0.00  0.00    +0.000 C 
ATOM     15  O   UNL     1       4.697   1.236   0.000  0.00  0.00    +0.000 OA
ATOM     16  O   UNL     1       5.412   0.000   0.000  0.00  0.00    +0.000 OA
ENDBRANCH   8  14
ENDBRANCH   7  11
ENDBRANCH   1   7
BRANCH   4  17
ATOM     17  C   UNL     1      -1.018   0.412   0.000  0.00  0.00    +0.000 C 
BRANCH  17  18
ATOM     18  N   UNL     1      -1.728   0.000   0.000  0.00  0.00    +0.000 NA
BRANCH  18  19
ATOM     19  C   UNL     1      -2.443   0.412   0.000  0.00  0.00    +0.000 C 
ATOM     20  C   UNL     1      -3.272   0.412   0.000  0.00  0.00    +0.000 C 
ATOM     21  C   UNL     1      -2.855   1.127   0.000  0.00  0.00    +0.000 C 
BRANCH  20  22
ATOM     22  C   UNL     1      -3.982   0.000   0.000  0.00  0.00    +0.000 A 
ATOM     23  C   UNL     1      -3.982  -0.824   0.000  0.00  0.00    +0.000 A 
ATOM     24  C   UNL     1      -4.697  -1.236   0.000  0.00  0.00    +0.000 A 
ATOM     25  C   UNL     1      -5.412  -0.824   0.000  0.00  0.00    +0.000 A 
ATOM     26  C   UNL     1      -5.412   0.000   0.000  0.00  0.00    +0.000 A 
ATOM     27  C   UNL     1      -4.697   0.412   0.000  0.00  0.00    +0.000 A 
ENDBRANCH  20  22
ENDBRANCH  18  19
ENDBRANCH  17  18
ENDBRANCH   4  17
TORSDOF 7
