REMARK  Name = 
REMARK  2 active torsions:
REMARK  status: ('A' for Active; 'I' for Inactive)
REMARK    1  A    between atoms: C_9  and  C_10
REMARK    2  A    between atoms: C_12  and  C_13
REMARK                            x       y       z     vdW  Elec       q    Type
REMARK                         _______ _______ _______ _____ _____    ______ ____
ROOT
ATOM      1  C   UNK     1      -0.177   1.492   0.000  0.00  0.00    +0.000 A 
ATOM      2  C   UNK     1      -0.177   0.667   0.000  0.00  0.00    +0.000 A 
ATOM      3  C   UNK     1       1.093   1.080   0.000  0.00  0.00    +0.000 A 
ATOM      4  C   UNK     1      -0.891   1.905   0.000  0.00  0.00    +0.000 A 
ATOM      5  O   UNK     1      -0.891   2.730   0.000  0.00  0.00    +0.000 OA
ATOM      6  N   UNK     1      -1.606   1.492   0.000  0.00  0.00    +0.000 NA
ATOM      7  N   UNK     1      -0.891   0.255   0.000  0.00  0.00    +0.000 NA
ATOM      8  N   UNK     1       0.608   1.747   0.000  0.00  0.00    +0.000 NA
ATOM      9  C   UNK     1       0.608   0.412   0.000  0.00  0.00    +0.000 A 
ATOM     10  C   UNK     1      -1.606   0.667   0.000  0.00  0.00    +0.000 A 
ATOM     11  N   UNK     1      -2.320   0.255   0.000  0.00  0.00    +0.000 NA
ENDROOT
BRANCH   9  12
ATOM     12  C   UNK     1       0.821  -0.385   0.000  0.00  0.00    +0.000 C 
ATOM     13  N   UNK     1       0.336  -1.052   0.000  0.00  0.00    +0.000 NA
ATOM     14  C   UNK     1       0.821  -1.719   0.000  0.00  0.00    +0.000 C 
ATOM     15  C   UNK     1       1.606  -0.639   0.000  0.00  0.00    +0.000 C 
ATOM     16  O   UNK     1       2.320  -0.227   0.000  0.00  0.00    +0.000 OA
ATOM     17  C   UNK     1       1.606  -1.464   0.000  0.00  0.00    +0.000 C 
ATOM     18  O   UNK     1       2.320  -1.877   0.000  0.00  0.00    +0.000 OA
BRANCH  14  19
ATOM     19  C   UNK     1       0.608  -2.516   0.000  0.00  0.00    +0.000 C 
ATOM     20  O   UNK     1      -0.189  -2.730   0.000  0.00  0.00    +0.000 OA
ENDBRANCH  14  19
ENDBRANCH   9  12
TORSDOF 2
