REMARK  Name = 
REMARK  12 active torsions:
REMARK  status: ('A' for Active; 'I' for Inactive)
REMARK    1  A    between atoms: C_13  and  C_36
REMARK    2  A    between atoms: C_21  and  C_25
REMARK    3  A    between atoms: C_25  and  N_26
REMARK    4  A    between atoms: N_26  and  C_27
REMARK    5  A    between atoms: N_26  and  C_31
REMARK    6  A    between atoms: C_27  and  C_28
REMARK    7  A    between atoms: C_31  and  C_32
REMARK    8  A    between atoms: C_36  and  N_37
REMARK    9  A    between atoms: N_37  and  C_38
REMARK   10  A    between atoms: N_37  and  C_42
REMARK   11  A    between atoms: C_38  and  C_39
REMARK   12  A    between atoms: C_42  and  C_43
REMARK                            x       y       z     vdW  Elec       q    Type
REMARK                         _______ _______ _______ _____ _____    ______ ____
ROOT
ATOM      1  C   UNL     1       4.794   0.241   0.000  0.00  0.00    +0.000 A 
ATOM      2  C   UNL     1       4.540   1.025   0.000  0.00  0.00    +0.000 A 
ATOM      3  C   UNL     1       3.733   1.197   0.000  0.00  0.00    +0.000 A 
ATOM      4  C   UNL     1       3.180   0.584   0.000  0.00  0.00    +0.000 A 
ATOM      5  C   UNL     1       3.435  -0.200   0.000  0.00  0.00    +0.000 A 
ATOM      6  C   UNL     1       4.242  -0.372   0.000  0.00  0.00    +0.000 A 
ATOM      7  C   UNL     1       2.768  -0.685   0.000  0.00  0.00    +0.000 C 
ATOM      8  O   UNL     1       2.767  -1.510   0.000  0.00  0.00    +0.000 OA
ATOM      9  O   UNL     1       2.100  -0.200   0.000  0.00  0.00    +0.000 OA
ATOM     10  C   UNL     1       2.356   0.585   0.000  0.00  0.00    +0.000 C 
ATOM     11  C   UNL     1       2.691   1.338   0.000  0.00  0.00    +0.000 A 
ATOM     12  C   UNL     1       3.512   1.424   0.000  0.00  0.00    +0.000 A 
ATOM     13  C   UNL     1       3.848   2.178   0.000  0.00  0.00    +0.000 A 
ATOM     14  C   UNL     1       3.363   2.845   0.000  0.00  0.00    +0.000 A 
ATOM     15  C   UNL     1       2.542   2.759   0.000  0.00  0.00    +0.000 A 
ATOM     16  C   UNL     1       2.207   2.006   0.000  0.00  0.00    +0.000 A 
ATOM     17  O   UNL     1       1.386   1.920   0.000  0.00  0.00    +0.000 OA
ATOM     18  C   UNL     1       1.050   1.166   0.000  0.00  0.00    +0.000 A 
ATOM     19  C   UNL     1       1.535   0.498   0.000  0.00  0.00    +0.000 A 
ATOM     20  C   UNL     1       1.199  -0.255   0.000  0.00  0.00    +0.000 A 
ATOM     21  C   UNL     1       0.379  -0.341   0.000  0.00  0.00    +0.000 A 
ATOM     22  C   UNL     1      -0.106   0.327   0.000  0.00  0.00    +0.000 A 
ATOM     23  C   UNL     1       0.230   1.080   0.000  0.00  0.00    +0.000 A 
ATOM     24  O   UNL     1      -0.926   0.240   0.000  0.00  0.00    +0.000 OA
ATOM     25  O   UNL     1       3.699   3.599   0.000  0.00  0.00    +0.000 OA
ENDROOT
BRANCH  21  26
ATOM     26  C   UNL     1       0.043  -1.095   0.000  0.00  0.00    +0.000 C 
BRANCH  26  27
ATOM     27  N   UNL     1      -0.778  -1.181   0.000  0.00  0.00    +0.000 NA
BRANCH  27  28
ATOM     28  C   UNL     1      -1.262  -0.513   0.000  0.00  0.00    +0.000 C 
BRANCH  28  29
ATOM     29  C   UNL     1      -2.083  -0.599   0.000  0.00  0.00    +0.000 C 
ATOM     30  O   UNL     1      -2.568   0.069   0.000  0.00  0.00    +0.000 OA
ATOM     31  O   UNL     1      -2.797  -1.011   0.000  0.00  0.00    +0.000 OA
ENDBRANCH  28  29
ENDBRANCH  27  28
BRANCH  27  32
ATOM     32  C   UNL     1      -1.113  -1.934   0.000  0.00  0.00    +0.000 C 
BRANCH  32  33
ATOM     33  C   UNL     1      -1.934  -2.020   0.000  0.00  0.00    +0.000 C 
ATOM     34  O   UNL     1      -2.270  -2.774   0.000  0.00  0.00    +0.000 OA
ATOM     35  O   UNL     1      -2.419  -1.353   0.000  0.00  0.00    +0.000 OA
ENDBRANCH  32  33
ENDBRANCH  27  32
ENDBRANCH  26  27
ENDBRANCH  21  26
BRANCH  13  36
ATOM     36  C   UNL     1       4.668   2.264   0.000  0.00  0.00    +0.000 C 
BRANCH  36  37
ATOM     37  N   UNL     1       5.004   3.017   0.000  0.00  0.00    +0.000 NA
BRANCH  37  38
ATOM     38  C   UNL     1       4.519   3.685   0.000  0.00  0.00    +0.000 C 
BRANCH  38  39
ATOM     39  C   UNL     1       4.855   4.438   0.000  0.00  0.00    +0.000 C 
ATOM     40  O   UNL     1       4.370   5.106   0.000  0.00  0.00    +0.000 OA
ATOM     41  O   UNL     1       5.675   4.524   0.000  0.00  0.00    +0.000 OA
ENDBRANCH  38  39
ENDBRANCH  37  38
BRANCH  37  42
ATOM     42  C   UNL     1       5.824   3.103   0.000  0.00  0.00    +0.000 C 
BRANCH  42  43
ATOM     43  C   UNL     1       6.160   3.857   0.000  0.00  0.00    +0.000 C 
ATOM     44  O   UNL     1       6.160   4.682   0.000  0.00  0.00    +0.000 OA
ATOM     45  O   UNL     1       6.981   3.943   0.000  0.00  0.00    +0.000 OA
ENDBRANCH  42  43
ENDBRANCH  37  42
ENDBRANCH  36  37
ENDBRANCH  13  36
TORSDOF 12
