REMARK  Name = 
REMARK  13 active torsions:
REMARK  status: ('A' for Active; 'I' for Inactive)
REMARK    1  A    between atoms: C_2  and  C_13
REMARK    2  A    between atoms: C_5  and  C_7
REMARK    3  A    between atoms: C_10  and  C_49
REMARK    4  A    between atoms: C_13  and  N_14
REMARK    5  A    between atoms: N_14  and  C_16
REMARK    6  A    between atoms: C_15  and  C_17
REMARK    7  A    between atoms: C_17  and  N_19
REMARK    8  A    between atoms: C_24  and  S_29
REMARK    9  A    between atoms: S_29  and  C_30
REMARK   10  A    between atoms: C_30  and  C_31
REMARK   11  A    between atoms: N_42  and  C_45
REMARK   12  A    between atoms: C_45  and  C_46
REMARK   13  A    between atoms: C_46  and  O_47
REMARK                            x       y       z     vdW  Elec       q    Type
REMARK                         _______ _______ _______ _____ _____    ______ ____
ROOT
ATOM      1  N   UNL     1       0.000   0.412   0.000  0.00  0.00    +0.000 N 
ATOM      2  C   UNL     1      -0.714   0.825   0.000  0.00  0.00    +0.000 C 
ATOM      3  O   UNL     1      -0.714   1.650   0.000  0.00  0.00    +0.000 OA
ENDROOT
BRANCH   1   4
ATOM      4  C   UNL     1       0.000  -0.412   0.000  0.00  0.00    +0.000 C 
ATOM      5  C   UNL     1      -0.714  -0.825   0.000  0.00  0.00    +0.000 C 
ATOM      6  C   UNL     1      -0.714  -1.650   0.000  0.00  0.00    +0.000 C 
ATOM      7  N   UNL     1       0.000  -2.062   0.000  0.00  0.00    +0.000 NA
ATOM      8  C   UNL     1       0.714  -1.650   0.000  0.00  0.00    +0.000 C 
ATOM      9  C   UNL     1       0.714  -0.825   0.000  0.00  0.00    +0.000 C 
BRANCH   7  10
ATOM     10  C   UNL     1       0.000  -2.887   0.000  0.00  0.00    +0.000 C 
BRANCH  10  11
ATOM     11  C   UNL     1       0.714  -3.300   0.000  0.00  0.00    +0.000 C 
BRANCH  11  12
ATOM     12  O   UNL     1       1.429  -2.887   0.000  0.00  0.00    +0.000 OA
ATOM     13  C   UNL     1       2.143  -3.300   0.000  0.00  0.00    +0.000 C 
ENDBRANCH  11  12
ENDBRANCH  10  11
ENDBRANCH   7  10
ENDBRANCH   1   4
BRANCH   1  14
ATOM     14  C   UNL     1       0.714   0.825   0.000  0.00  0.00    +0.000 C 
BRANCH  14  16
ATOM     15  C   UNL     1       2.143   0.825   0.000  0.00  0.00    +0.000 A 
ATOM     16  C   UNL     1       1.429   0.412   0.000  0.00  0.00    +0.000 A 
ATOM     17  C   UNL     1       1.429  -0.412   0.000  0.00  0.00    +0.000 A 
ATOM     18  C   UNL     1       2.143  -0.825   0.000  0.00  0.00    +0.000 A 
ATOM     19  C   UNL     1       2.858  -0.412   0.000  0.00  0.00    +0.000 A 
ATOM     20  C   UNL     1       2.858   0.412   0.000  0.00  0.00    +0.000 A 
BRANCH  19  21
ATOM     21  C   UNL     1       3.572  -0.825   0.000  0.00  0.00    +0.000 A 
ATOM     22  C   UNL     1       3.572  -1.650   0.000  0.00  0.00    +0.000 A 
ATOM     23  C   UNL     1       4.287  -2.062   0.000  0.00  0.00    +0.000 A 
ATOM     24  C   UNL     1       5.001  -1.650   0.000  0.00  0.00    +0.000 A 
ATOM     25  C   UNL     1       5.001  -0.825   0.000  0.00  0.00    +0.000 A 
ATOM     26  C   UNL     1       4.287  -0.412   0.000  0.00  0.00    +0.000 A 
BRANCH  24  27
ATOM     27  C   UNL     1       5.716  -2.062   0.000  0.00  0.00    +0.000 C 
ATOM     28  F   UNL     1       6.430  -1.650   0.000  0.00  0.00    +0.000 F 
ATOM     29  F   UNL     1       5.716  -2.887   0.000  0.00  0.00    +0.000 F 
ATOM     30  F   UNL     1       6.430  -2.475   0.000  0.00  0.00    +0.000 F 
ENDBRANCH  24  27
ENDBRANCH  19  21
ENDBRANCH  14  16
ENDBRANCH   1  14
BRANCH   2  31
ATOM     31  C   UNL     1      -1.429   0.412   0.000  0.00  0.00    +0.000 C 
BRANCH  31  32
ATOM     32  N   UNL     1      -2.143   0.825   0.000  0.00  0.00    +0.000 N 
ATOM     33  C   UNL     1      -2.143   1.650   0.000  0.00  0.00    +0.000 A 
ATOM     34  C   UNL     1      -2.858   2.062   0.000  0.00  0.00    +0.000 A 
ATOM     35  C   UNL     1      -3.572   1.650   0.000  0.00  0.00    +0.000 A 
ATOM     36  C   UNL     1      -3.572   0.825   0.000  0.00  0.00    +0.000 A 
ATOM     37  C   UNL     1      -2.858   0.412   0.000  0.00  0.00    +0.000 A 
ATOM     38  C   UNL     1      -2.858   2.888   0.000  0.00  0.00    +0.000 A 
ATOM     39  C   UNL     1      -2.143   3.300   0.000  0.00  0.00    +0.000 A 
ATOM     40  C   UNL     1      -1.429   2.888   0.000  0.00  0.00    +0.000 A 
ATOM     41  C   UNL     1      -1.429   2.062   0.000  0.00  0.00    +0.000 A 
ATOM     42  O   UNL     1      -4.287   2.062   0.000  0.00  0.00    +0.000 OA
BRANCH  37  43
ATOM     43  S   UNL     1      -2.858  -0.412   0.000  0.00  0.00    +0.000 S 
BRANCH  43  44
ATOM     44  C   UNL     1      -3.572  -0.825   0.000  0.00  0.00    +0.000 C 
BRANCH  44  45
ATOM     45  C   UNL     1      -4.287  -0.412   0.000  0.00  0.00    +0.000 A 
ATOM     46  C   UNL     1      -4.287   0.412   0.000  0.00  0.00    +0.000 A 
ATOM     47  C   UNL     1      -5.001   0.825   0.000  0.00  0.00    +0.000 A 
ATOM     48  C   UNL     1      -5.716   0.412   0.000  0.00  0.00    +0.000 A 
ATOM     49  C   UNL     1      -5.716  -0.412   0.000  0.00  0.00    +0.000 A 
ATOM     50  C   UNL     1      -5.001  -0.825   0.000  0.00  0.00    +0.000 A 
ATOM     51  F   UNL     1      -5.001  -1.650   0.000  0.00  0.00    +0.000 F 
ATOM     52  F   UNL     1      -6.430  -0.825   0.000  0.00  0.00    +0.000 F 
ENDBRANCH  44  45
ENDBRANCH  43  44
ENDBRANCH  37  43
ENDBRANCH  31  32
ENDBRANCH   2  31
TORSDOF 13
