REMARK  Name = 
REMARK  8 active torsions:
REMARK  status: ('A' for Active; 'I' for Inactive)
REMARK    1  A    between atoms: C_1  and  C_4
REMARK    2  A    between atoms: C_2  and  O_6
REMARK    3  A    between atoms: C_5  and  O_11
REMARK    4  A    between atoms: C_7  and  S_13
REMARK    5  A    between atoms: N_8  and  C_14
REMARK    6  A    between atoms: C_14  and  C_19
REMARK    7  A    between atoms: N_20  and  C_23
REMARK    8  A    between atoms: C_23  and  C_25
REMARK                            x       y       z     vdW  Elec       q    Type
REMARK                         _______ _______ _______ _____ _____    ______ ____
ROOT
ATOM      1  C   UNL     1      -0.941   0.135   0.000  0.00  0.00    +0.000 A 
ATOM      2  C   UNL     1      -0.941  -0.690   0.000  0.00  0.00    +0.000 A 
ATOM      3  C   UNL     1      -1.655   0.548   0.000  0.00  0.00    +0.000 A 
ATOM      4  C   UNL     1      -1.655  -1.102   0.000  0.00  0.00    +0.000 A 
ATOM      5  C   UNL     1      -2.369   0.135   0.000  0.00  0.00    +0.000 A 
ATOM      6  C   UNL     1      -2.369  -0.690   0.000  0.00  0.00    +0.000 A 
ENDROOT
BRANCH   5   7
ATOM      7  S   UNL     1      -3.084   0.548   0.000  0.00  0.00    +0.000 S 
ATOM      8  N   UNL     1      -3.799   0.960   0.000  0.00  0.00    +0.000 NA
ATOM      9  O   UNL     1      -3.497  -0.167   0.000  0.00  0.00    +0.000 OA
ATOM     10  O   UNL     1      -2.671   1.262   0.000  0.00  0.00    +0.000 OA
ENDBRANCH   5   7
BRANCH   1  11
ATOM     11  C   UNL     1      -0.226   0.548   0.000  0.00  0.00    +0.000 C 
ATOM     12  N   UNL     1       0.488   0.135   0.000  0.00  0.00    +0.000 NA
ATOM     13  O   UNL     1      -0.226   1.373   0.000  0.00  0.00    +0.000 OA
BRANCH  12  14
ATOM     14  C   UNL     1       1.203   0.548   0.000  0.00  0.00    +0.000 C 
BRANCH  14  15
ATOM     15  C   UNL     1       1.917   0.135   0.000  0.00  0.00    +0.000 C 
ATOM     16  N   UNL     1       2.671   0.471   0.000  0.00  0.00    +0.000 NA
ATOM     17  C   UNL     1       2.003  -0.685   0.000  0.00  0.00    +0.000 C 
ATOM     18  C   UNL     1       3.223  -0.142   0.000  0.00  0.00    +0.000 C 
ATOM     19  C   UNL     1       2.810  -0.857   0.000  0.00  0.00    +0.000 C 
BRANCH  16  20
ATOM     20  C   UNL     1       2.842   1.278   0.000  0.00  0.00    +0.000 C 
BRANCH  20  21
ATOM     21  C   UNL     1       3.627   1.533   0.000  0.00  0.00    +0.000 C 
ATOM     22  C   UNL     1       3.799   2.340   0.000  0.00  0.00    +0.000 C 
ENDBRANCH  20  21
ENDBRANCH  16  20
ENDBRANCH  14  15
ENDBRANCH  12  14
ENDBRANCH   1  11
BRANCH   4  23
ATOM     23  O   UNL     1      -1.655  -1.927   0.000  0.00  0.00    +0.000 OA
ATOM     24  C   UNL     1      -2.369  -2.340   0.000  0.00  0.00    +0.000 C 
ENDBRANCH   4  23
BRANCH   2  25
ATOM     25  O   UNL     1      -0.226  -1.102   0.000  0.00  0.00    +0.000 OA
ATOM     26  C   UNL     1      -0.226  -1.927   0.000  0.00  0.00    +0.000 C 
ENDBRANCH   2  25
TORSDOF 8
