REMARK  Name = 
REMARK  2 active torsions:
REMARK  status: ('A' for Active; 'I' for Inactive)
REMARK    1  A    between atoms: O_1  and  BI_2
REMARK    2  A    between atoms: O_1  and  BI_3
REMARK                            x       y       z     vdW  Elec       q    Type
REMARK                         _______ _______ _______ _____ _____    ______ ____
ROOT
ATOM      1  O   UNL     1      -0.002   0.200   0.000  0.00  0.00    +0.000 OA
ENDROOT
BRANCH   1   2
ATOM      2 BI   UNL     1      -0.712  -0.211   0.000  0.00  0.00    +0.000 Bi
ATOM      3  O   UNL     1      -1.429   0.211   0.000  0.00  0.00    +0.000 OA
ENDBRANCH   1   2
BRANCH   1   4
ATOM      4 BI   UNL     1       0.701  -0.201   0.000  0.00  0.00    +0.000 Bi
ATOM      5  O   UNL     1       1.429   0.195   0.000  0.00  0.00    +0.000 OA
ENDBRANCH   1   4
TORSDOF 2
