REMARK  Name = 
REMARK  7 active torsions:
REMARK  status: ('A' for Active; 'I' for Inactive)
REMARK    1  A    between atoms: C_1  and  O_4
REMARK    2  A    between atoms: C_2  and  C_6
REMARK    3  A    between atoms: O_4  and  C_8
REMARK    4  A    between atoms: C_8  and  C_11
REMARK    5  A    between atoms: C_9  and  O_12
REMARK    6  A    between atoms: C_11  and  N_13
REMARK    7  A    between atoms: O_12  and  C_14
REMARK                            x       y       z     vdW  Elec       q    Type
REMARK                         _______ _______ _______ _____ _____    ______ ____
ROOT
ATOM      1  C   UNL     1      -0.021  -0.208   0.000  0.00  0.00    +0.000 A 
ATOM      2  C   UNL     1      -0.727  -0.623   0.000  0.00  0.00    +0.000 A 
ATOM      3  C   UNL     1      -0.021   0.623   0.000  0.00  0.00    +0.000 A 
ATOM      4  C   UNL     1      -1.475  -0.208   0.000  0.00  0.00    +0.000 A 
ATOM      5  C   UNL     1      -0.727   1.038   0.000  0.00  0.00    +0.000 A 
ATOM      6  C   UNL     1      -1.475   0.623   0.000  0.00  0.00    +0.000 A 
ATOM      7  C   UNL     1      -0.727   1.869   0.000  0.00  0.00    +0.000 C 
ENDROOT
BRANCH   2   8
ATOM      8  C   UNL     1      -0.727  -1.454   0.000  0.00  0.00    +0.000 C 
ATOM      9  C   UNL     1      -1.433  -1.869   0.000  0.00  0.00    +0.000 C 
ATOM     10  C   UNL     1      -0.021  -1.869   0.000  0.00  0.00    +0.000 C 
ENDBRANCH   2   8
BRANCH   1  11
ATOM     11  O   UNL     1       0.685  -0.623   0.000  0.00  0.00    +0.000 OA
BRANCH  11  12
ATOM     12  C   UNL     1       1.433  -0.208   0.000  0.00  0.00    +0.000 C 
BRANCH  12  13
ATOM     13  C   UNL     1       2.139  -0.623   0.000  0.00  0.00    +0.000 C 
BRANCH  13  14
ATOM     14  N   UNL     1       2.887  -0.208   0.000  0.00  0.00    +0.000 NA
ATOM     15  C   UNL     1       2.887   0.623   0.000  0.00  0.00    +0.000 C 
ATOM     16  C   UNL     1       3.593  -0.623   0.000  0.00  0.00    +0.000 C 
ENDBRANCH  13  14
ENDBRANCH  12  13
ENDBRANCH  11  12
ENDBRANCH   1  11
BRANCH   6  17
ATOM     17  O   UNL     1      -2.181   1.038   0.000  0.00  0.00    +0.000 OA
BRANCH  17  18
ATOM     18  C   UNL     1      -2.887   0.623   0.000  0.00  0.00    +0.000 C 
ATOM     19  C   UNL     1      -3.593   1.038   0.000  0.00  0.00    +0.000 C 
ATOM     20  O   UNL     1      -2.887  -0.208   0.000  0.00  0.00    +0.000 OA
ENDBRANCH  17  18
ENDBRANCH   6  17
TORSDOF 7
