REMARK  Name = 
REMARK  10 active torsions:
REMARK  status: ('A' for Active; 'I' for Inactive)
REMARK    1  A    between atoms: C_21  and  C_23
REMARK    2  A    between atoms: C_23  and  O_24
REMARK    3  A    between atoms: C_25  and  O_26
REMARK    4  A    between atoms: C_27  and  O_28
REMARK    5  A    between atoms: C_29  and  O_39
REMARK    6  A    between atoms: C_34  and  O_42
REMARK    7  A    between atoms: C_35  and  C_41
REMARK    8  A    between atoms: C_37  and  O_44
REMARK    9  A    between atoms: C_38  and  O_46
REMARK   10  A    between atoms: O_39  and  C_41
REMARK                            x       y       z     vdW  Elec       q    Type
REMARK                         _______ _______ _______ _____ _____    ______ ____
ROOT
ATOM      1  C   UNL     1      -0.752   0.623   0.000  0.00  0.00    +0.000 C 
ATOM      2  C   UNL     1      -0.752  -0.202   0.000  0.00  0.00    +0.000 C 
ATOM      3  C   UNL     1      -1.467  -0.615   0.000  0.00  0.00    +0.000 C 
ATOM      4  C   UNL     1      -1.467   1.035   0.000  0.00  0.00    +0.000 C 
ATOM      5  N   UNL     1      -2.181   0.623   0.000  0.00  0.00    +0.000 NA
ATOM      6  C   UNL     1      -2.181  -0.202   0.000  0.00  0.00    +0.000 C 
ATOM      7  C   UNL     1      -2.896   1.035   0.000  0.00  0.00    +0.000 C 
ATOM      8  C   UNL     1      -3.610   0.623   0.000  0.00  0.00    +0.000 C 
ATOM      9  C   UNL     1      -0.038   1.035   0.000  0.00  0.00    +0.000 C 
ATOM     10  C   UNL     1      -2.896  -0.615   0.000  0.00  0.00    +0.000 A 
ATOM     11  C   UNL     1      -3.610  -0.202   0.000  0.00  0.00    +0.000 A 
ATOM     12  N   UNL     1      -3.067  -1.422   0.000  0.00  0.00    +0.000 NA
ATOM     13  C   UNL     1      -3.888  -1.508   0.000  0.00  0.00    +0.000 A 
ATOM     14  C   UNL     1      -4.223  -0.754   0.000  0.00  0.00    +0.000 A 
ATOM     15  C   UNL     1      -4.373  -2.175   0.000  0.00  0.00    +0.000 A 
ATOM     16  C   UNL     1      -5.044  -0.668   0.000  0.00  0.00    +0.000 A 
ATOM     17  C   UNL     1      -5.529  -1.335   0.000  0.00  0.00    +0.000 A 
ATOM     18  C   UNL     1      -0.038  -0.615   0.000  0.00  0.00    +0.000 C 
ATOM     19  C   UNL     1       0.677  -0.202   0.000  0.00  0.00    +0.000 C 
ATOM     20  C   UNL     1      -5.193  -2.089   0.000  0.00  0.00    +0.000 A 
ATOM     21  C   UNL     1       0.677   0.623   0.000  0.00  0.00    +0.000 C 
ENDROOT
BRANCH  19  22
ATOM     22  O   UNL     1       1.391  -0.615   0.000  0.00  0.00    +0.000 OA
ATOM     23  C   UNL     1       1.391  -1.440   0.000  0.00  0.00    +0.000 C 
ENDBRANCH  19  22
BRANCH  20  24
ATOM     24  O   UNL     1      -5.678  -2.756   0.000  0.00  0.00    +0.000 OA
ATOM     25  C   UNL     1      -5.342  -3.510   0.000  0.00  0.00    +0.000 C 
ENDBRANCH  20  24
BRANCH  18  27
ATOM     26  O   UNL     1       0.677  -1.852   0.000  0.00  0.00    +0.000 OA
ATOM     27  C   UNL     1      -0.038  -1.440   0.000  0.00  0.00    +0.000 C 
BRANCH  27  28
ATOM     28  O   UNL     1      -0.752  -1.852   0.000  0.00  0.00    +0.000 OA
ATOM     29  C   UNL     1      -0.752  -2.677   0.000  0.00  0.00    +0.000 C 
ENDBRANCH  27  28
ENDBRANCH  18  27
BRANCH  21  30
ATOM     30  O   UNL     1       1.391   1.035   0.000  0.00  0.00    +0.000 OA
BRANCH  30  32
ATOM     31  O   UNL     1       2.106  -0.202   0.000  0.00  0.00    +0.000 OA
ATOM     32  C   UNL     1       2.106   0.623   0.000  0.00  0.00    +0.000 C 
BRANCH  32  35
ATOM     33  C   UNL     1       3.534   0.623   0.000  0.00  0.00    +0.000 A 
ATOM     34  C   UNL     1       4.249   1.035   0.000  0.00  0.00    +0.000 A 
ATOM     35  C   UNL     1       2.820   1.035   0.000  0.00  0.00    +0.000 A 
ATOM     36  C   UNL     1       2.820   1.860   0.000  0.00  0.00    +0.000 A 
ATOM     37  C   UNL     1       4.249   1.860   0.000  0.00  0.00    +0.000 A 
ATOM     38  C   UNL     1       3.534   2.273   0.000  0.00  0.00    +0.000 A 
BRANCH  38  39
ATOM     39  O   UNL     1       3.534   3.098   0.000  0.00  0.00    +0.000 OA
ATOM     40  C   UNL     1       4.249   3.510   0.000  0.00  0.00    +0.000 C 
ENDBRANCH  38  39
BRANCH  34  41
ATOM     41  O   UNL     1       4.963   0.623   0.000  0.00  0.00    +0.000 OA
ATOM     42  C   UNL     1       4.963  -0.202   0.000  0.00  0.00    +0.000 C 
ENDBRANCH  34  41
BRANCH  37  43
ATOM     43  O   UNL     1       4.963   2.273   0.000  0.00  0.00    +0.000 OA
ATOM     44  C   UNL     1       5.678   1.860   0.000  0.00  0.00    +0.000 C 
ENDBRANCH  37  43
ENDBRANCH  32  35
ENDBRANCH  30  32
ENDBRANCH  21  30
TORSDOF 10
