REMARK  Name = 
REMARK  14 active torsions:
REMARK  status: ('A' for Active; 'I' for Inactive)
REMARK    1  A    between atoms: O_1  and  C_2
REMARK    2  A    between atoms: O_1  and  C_3
REMARK    3  A    between atoms: C_4  and  O_8
REMARK    4  A    between atoms: C_5  and  C_10
REMARK    5  A    between atoms: C_9  and  O_16
REMARK    6  A    between atoms: C_10  and  C_18
REMARK    7  A    between atoms: C_13  and  N_20
REMARK    8  A    between atoms: O_16  and  C_23
REMARK    9  A    between atoms: C_21  and  O_30
REMARK   10  A    between atoms: C_23  and  C_31
REMARK   11  A    between atoms: O_30  and  C_37
REMARK   12  A    between atoms: C_51  and  O_53
REMARK   13  A    between atoms: O_53  and  C_54
REMARK   14  A    between atoms: C_54  and  C_55
REMARK                            x       y       z     vdW  Elec       q    Type
REMARK                         _______ _______ _______ _____ _____    ______ ____
ROOT
ATOM      1  C   UNL     1      -1.398  -1.640   0.000  0.00  0.00    +0.000 C 
ATOM      2  C   UNL     1      -0.148  -1.640   0.000  0.00  0.00    +0.000 C 
ATOM      3  C   UNL     1      -2.282  -2.523   0.000  0.00  0.00    +0.000 C 
ATOM      4  C   UNL     1       0.735  -2.523   0.000  0.00  0.00    +0.000 C 
ATOM      5  C   UNL     1      -2.282  -3.771   0.000  0.00  0.00    +0.000 C 
ATOM      6  C   UNL     1       1.815  -1.897   0.000  0.00  0.00    +0.000 C 
ATOM      7  C   UNL     1      -1.398  -4.655   0.000  0.00  0.00    +0.000 C 
ATOM      8  C   UNL     1       2.898  -2.523   0.000  0.00  0.00    +0.000 C 
ATOM      9  C   UNL     1      -1.719  -5.416   0.000  0.00  0.00    +0.000 C 
ATOM     10  C   UNL     1      -0.148  -4.655   0.000  0.00  0.00    +0.000 C 
ATOM     11  O   UNL     1       2.898  -1.699   0.000  0.00  0.00    +0.000 OA
ATOM     12  O   UNL     1       3.978  -1.897   0.000  0.00  0.00    +0.000 OA
ATOM     13  O   UNL     1       0.161  -5.420   0.000  0.00  0.00    +0.000 OA
ATOM     14  C   UNL     1       0.735  -3.771   0.000  0.00  0.00    +0.000 C 
ATOM     15  C   UNL     1       5.058  -2.523   0.000  0.00  0.00    +0.000 C 
ATOM     16  C   UNL     1       1.815  -4.395   0.000  0.00  0.00    +0.000 C 
ATOM     17  C   UNL     1       5.772  -2.110   0.000  0.00  0.00    +0.000 C 
ATOM     18  C   UNL     1       5.058  -3.771   0.000  0.00  0.00    +0.000 C 
ATOM     19  C   UNL     1       2.898  -3.771   0.000  0.00  0.00    +0.000 C 
ATOM     20  C   UNL     1       3.978  -4.395   0.000  0.00  0.00    +0.000 C 
ENDROOT
BRANCH   2  21
ATOM     21  O   UNL     1      -0.148  -0.647   0.000  0.00  0.00    +0.000 OA
ATOM     22  C   UNL     1      -0.862  -0.234   0.000  0.00  0.00    +0.000 C 
ENDBRANCH   2  21
BRANCH   4  23
ATOM     23  O   UNL     1       0.819  -1.562   0.000  0.00  0.00    +0.000 OA
BRANCH  23  24
ATOM     24  C   UNL     1       1.531  -1.149   0.000  0.00  0.00    +0.000 C 
ATOM     25  O   UNL     1       1.531  -0.324   0.000  0.00  0.00    +0.000 OA
BRANCH  24  26
ATOM     26  C   UNL     1       2.245  -1.562   0.000  0.00  0.00    +0.000 C 
ATOM     27  C   UNL     1       2.951  -1.138   0.000  0.00  0.00    +0.000 C 
ENDBRANCH  24  26
ENDBRANCH  23  24
ENDBRANCH   4  23
BRANCH   3  28
ATOM     28  C   UNL     1      -2.996  -2.110   0.000  0.00  0.00    +0.000 C 
BRANCH  28  29
ATOM     29  C   UNL     1      -3.710  -2.523   0.000  0.00  0.00    +0.000 C 
ATOM     30  O   UNL     1      -4.424  -2.110   0.000  0.00  0.00    +0.000 OA
ENDBRANCH  28  29
ENDBRANCH   3  28
BRANCH   1  31
ATOM     31  O   UNL     1      -1.398  -0.815   0.000  0.00  0.00    +0.000 OA
BRANCH  31  32
ATOM     32  C   UNL     1      -2.204  -0.351   0.000  0.00  0.00    +0.000 C 
ATOM     33  C   UNL     1      -2.916  -0.762   0.000  0.00  0.00    +0.000 C 
ATOM     34  O   UNL     1      -2.204   0.473   0.000  0.00  0.00    +0.000 OA
ATOM     35  O   UNL     1      -2.916  -1.587   0.000  0.00  0.00    +0.000 OA
ATOM     36  C   UNL     1      -3.632  -0.351   0.000  0.00  0.00    +0.000 C 
ATOM     37  C   UNL     1      -2.916   0.887   0.000  0.00  0.00    +0.000 C 
ATOM     38  C   UNL     1      -3.632   0.473   0.000  0.00  0.00    +0.000 C 
ATOM     39  C   UNL     1      -2.916   1.711   0.000  0.00  0.00    +0.000 C 
BRANCH  36  40
ATOM     40  N   UNL     1      -4.346  -0.762   0.000  0.00  0.00    +0.000 NA
ATOM     41  C   UNL     1      -5.060  -0.351   0.000  0.00  0.00    +0.000 C 
ATOM     42  C   UNL     1      -4.346  -1.587   0.000  0.00  0.00    +0.000 C 
ENDBRANCH  36  40
BRANCH  38  43
ATOM     43  O   UNL     1      -4.344   0.887   0.000  0.00  0.00    +0.000 OA
BRANCH  43  44
ATOM     44  C   UNL     1      -4.344   1.711   0.000  0.00  0.00    +0.000 C 
ATOM     45  C   UNL     1      -3.632   2.122   0.000  0.00  0.00    +0.000 C 
ATOM     46  O   UNL     1      -5.058   2.122   0.000  0.00  0.00    +0.000 OA
ATOM     47  C   UNL     1      -3.630   2.947   0.000  0.00  0.00    +0.000 C 
ATOM     48  C   UNL     1      -5.058   2.947   0.000  0.00  0.00    +0.000 C 
ATOM     49  C   UNL     1      -2.916   2.536   0.000  0.00  0.00    +0.000 C 
ATOM     50  O   UNL     1      -3.219   3.661   0.000  0.00  0.00    +0.000 OA
ATOM     51  C   UNL     1      -4.344   3.360   0.000  0.00  0.00    +0.000 C 
ATOM     52  C   UNL     1      -5.772   3.358   0.000  0.00  0.00    +0.000 C 
BRANCH  51  53
ATOM     53  O   UNL     1      -4.344   4.184   0.000  0.00  0.00    +0.000 OA
BRANCH  53  54
ATOM     54  C   UNL     1      -3.630   4.596   0.000  0.00  0.00    +0.000 C 
ATOM     55  O   UNL     1      -3.630   5.420   0.000  0.00  0.00    +0.000 OA
BRANCH  54  56
ATOM     56  C   UNL     1      -2.922   4.172   0.000  0.00  0.00    +0.000 C 
ATOM     57  C   UNL     1      -2.208   4.583   0.000  0.00  0.00    +0.000 C 
ENDBRANCH  54  56
ENDBRANCH  53  54
ENDBRANCH  51  53
ENDBRANCH  43  44
ENDBRANCH  38  43
ENDBRANCH  31  32
ENDBRANCH   1  31
TORSDOF 14
