REMARK  Name = 
REMARK  6 active torsions:
REMARK  status: ('A' for Active; 'I' for Inactive)
REMARK    1  A    between atoms: N_4  and  C_5
REMARK    2  A    between atoms: C_8  and  O_11
REMARK    3  A    between atoms: O_11  and  C_12
REMARK    4  A    between atoms: C_12  and  C_14
REMARK    5  A    between atoms: C_19  and  O_20
REMARK    6  A    between atoms: O_20  and  C_21
REMARK                            x       y       z     vdW  Elec       q    Type
REMARK                         _______ _______ _______ _____ _____    ______ ____
ROOT
ATOM      1  C   UNL     1      -0.715  -5.362   0.000  0.00  0.00    +0.000 C 
ATOM      2  O   UNL     1      -1.429  -4.950   0.000  0.00  0.00    +0.000 OA
ENDROOT
BRANCH   1   3
ATOM      3  C   UNL     1      -0.715  -6.188   0.000  0.00  0.00    +0.000 A 
ATOM      4  C   UNL     1       0.000  -6.600   0.000  0.00  0.00    +0.000 A 
ATOM      5  C   UNL     1       0.000  -7.425   0.000  0.00  0.00    +0.000 A 
ATOM      6  C   UNL     1      -0.715  -7.838   0.000  0.00  0.00    +0.000 A 
ATOM      7  C   UNL     1      -1.429  -7.425   0.000  0.00  0.00    +0.000 A 
ATOM      8  C   UNL     1      -1.429  -6.600   0.000  0.00  0.00    +0.000 A 
BRANCH   8   9
ATOM      9  O   UNL     1      -2.143  -6.188   0.000  0.00  0.00    +0.000 OA
BRANCH   9  10
ATOM     10  C   UNL     1      -2.858  -6.600   0.000  0.00  0.00    +0.000 C 
ATOM     11  O   UNL     1      -2.858  -7.425   0.000  0.00  0.00    +0.000 OA
ATOM     12  C   UNL     1      -3.572  -6.188   0.000  0.00  0.00    +0.000 C 
ENDBRANCH   9  10
ENDBRANCH   8   9
ENDBRANCH   1   3
BRANCH   1  13
ATOM     13  O   UNL     1       0.000  -4.950   0.000  0.00  0.00    +0.000 OA
BRANCH  13  17
ATOM     14  C   UNL     1       0.000  -2.475   0.000  0.00  0.00    +0.000 A 
ATOM     15  C   UNL     1       0.715  -2.888   0.000  0.00  0.00    +0.000 A 
ATOM     16  C   UNL     1       0.715  -3.712   0.000  0.00  0.00    +0.000 A 
ATOM     17  C   UNL     1       0.000  -4.125   0.000  0.00  0.00    +0.000 A 
ATOM     18  C   UNL     1      -0.715  -3.712   0.000  0.00  0.00    +0.000 A 
ATOM     19  C   UNL     1      -0.715  -2.888   0.000  0.00  0.00    +0.000 A 
BRANCH  14  23
ATOM     20  C   UNL     1      -0.715  -0.412   0.000  0.00  0.00    +0.000 C 
ATOM     21  C   UNL     1      -0.715  -1.238   0.000  0.00  0.00    +0.000 C 
ATOM     22  O   UNL     1      -1.429  -1.650   0.000  0.00  0.00    +0.000 OA
ATOM     23  N   UNL     1       0.000  -1.650   0.000  0.00  0.00    +0.000 NA
ENDBRANCH  14  23
ENDBRANCH  13  17
ENDBRANCH   1  13
TORSDOF 6
