REMARK  Name = 
REMARK  4 active torsions:
REMARK  status: ('A' for Active; 'I' for Inactive)
REMARK    1  A    between atoms: C_9  and  O_11
REMARK    2  A    between atoms: O_11  and  C_12
REMARK    3  A    between atoms: N_14  and  C_15
REMARK    4  A    between atoms: C_16  and  C_17
REMARK                            x       y       z     vdW  Elec       q    Type
REMARK                         _______ _______ _______ _____ _____    ______ ____
ROOT
ATOM      1  C   UNL     1       2.302  -0.706   0.000  0.00  0.00    +0.000 C 
ATOM      2  C   UNL     1       2.047   0.078   0.000  0.00  0.00    +0.000 C 
ATOM      3  C   UNL     1       1.222   0.078   0.000  0.00  0.00    +0.000 A 
ATOM      4  C   UNL     1       0.968  -0.706   0.000  0.00  0.00    +0.000 A 
ATOM      5  N   UNL     1       1.635  -1.191   0.000  0.00  0.00    +0.000 N 
ATOM      6  C   UNL     1       1.635  -2.016   0.000  0.00  0.00    +0.000 C 
ATOM      7  C   UNL     1       0.161  -0.878   0.000  0.00  0.00    +0.000 A 
ATOM      8  C   UNL     1      -0.391  -0.265   0.000  0.00  0.00    +0.000 A 
ATOM      9  C   UNL     1      -0.136   0.520   0.000  0.00  0.00    +0.000 A 
ATOM     10  C   UNL     1       0.670   0.691   0.000  0.00  0.00    +0.000 A 
ATOM     11  C   UNL     1       2.599   0.691   0.000  0.00  0.00    +0.000 C 
ATOM     12  C   UNL     1       3.406   0.520   0.000  0.00  0.00    +0.000 C 
ATOM     13  N   UNL     1       3.661  -0.265   0.000  0.00  0.00    +0.000 NA
ATOM     14  O   UNL     1       3.109  -0.878   0.000  0.00  0.00    +0.000 OA
ATOM     15  C   UNL     1       4.468  -0.436   0.000  0.00  0.00    +0.000 C 
ATOM     16  C   UNL     1       1.712   0.832   0.000  0.00  0.00    +0.000 C 
ENDROOT
BRANCH   9  17
ATOM     17  O   UNL     1      -0.689   1.133   0.000  0.00  0.00    +0.000 OA
BRANCH  17  18
ATOM     18  C   UNL     1      -1.495   0.962   0.000  0.00  0.00    +0.000 C 
ATOM     19  O   UNL     1      -1.750   0.177   0.000  0.00  0.00    +0.000 OA
ATOM     20  N   UNL     1      -2.047   1.575   0.000  0.00  0.00    +0.000 NA
BRANCH  20  21
ATOM     21  C   UNL     1      -2.854   1.403   0.000  0.00  0.00    +0.000 A 
ATOM     22  C   UNL     1      -3.109   0.618   0.000  0.00  0.00    +0.000 A 
ATOM     23  C   UNL     1      -3.916   0.447   0.000  0.00  0.00    +0.000 A 
ATOM     24  C   UNL     1      -4.468   1.060   0.000  0.00  0.00    +0.000 A 
ATOM     25  C   UNL     1      -4.213   1.845   0.000  0.00  0.00    +0.000 A 
ATOM     26  C   UNL     1      -3.406   2.016   0.000  0.00  0.00    +0.000 A 
BRANCH  22  27
ATOM     27  C   UNL     1      -2.557   0.005   0.000  0.00  0.00    +0.000 C 
ATOM     28  C   UNL     1      -2.812  -0.779   0.000  0.00  0.00    +0.000 C 
ENDBRANCH  22  27
ENDBRANCH  20  21
ENDBRANCH  17  18
ENDBRANCH   9  17
TORSDOF 4
