REMARK  Name = 
REMARK  33 active torsions:
REMARK  status: ('A' for Active; 'I' for Inactive)
REMARK    1  A    between atoms: C_1  and  C_6
REMARK    2  A    between atoms: N_7  and  C_74
REMARK    3  A    between atoms: C_15  and  C_60
REMARK    4  A    between atoms: C_18  and  C_33
REMARK    5  A    between atoms: C_18  and  C_84
REMARK    6  A    between atoms: C_19  and  C_53
REMARK    7  A    between atoms: N_20  and  C_21
REMARK    8  A    between atoms: C_21  and  C_22
REMARK    9  A    between atoms: C_21  and  C_69
REMARK   10  A    between atoms: N_23  and  C_24
REMARK   11  A    between atoms: C_24  and  C_25
REMARK   12  A    between atoms: C_24  and  C_36
REMARK   13  A    between atoms: N_26  and  C_27
REMARK   14  A    between atoms: C_27  and  C_28
REMARK   15  A    between atoms: C_27  and  C_45
REMARK   16  A    between atoms: N_29  and  C_30
REMARK   17  A    between atoms: C_30  and  C_31
REMARK   18  A    between atoms: C_30  and  C_47
REMARK   19  A    between atoms: N_32  and  C_33
REMARK   20  A    between atoms: C_33  and  C_34
REMARK   21  A    between atoms: C_36  and  C_37
REMARK   22  A    between atoms: C_45  and  O_71
REMARK   23  A    between atoms: C_47  and  C_48
REMARK   24  A    between atoms: C_53  and  N_54
REMARK   25  A    between atoms: C_53  and  C_60
REMARK   26  A    between atoms: C_55  and  C_56
REMARK   27  A    between atoms: C_56  and  N_57
REMARK   28  A    between atoms: C_56  and  C_62
REMARK   29  A    between atoms: C_58  and  C_76
REMARK   30  A    between atoms: C_62  and  C_63
REMARK   31  A    between atoms: O_71  and  C_72
REMARK   32  A    between atoms: C_84  and  C_85
REMARK   33  A    between atoms: C_85  and  N_86
REMARK                            x       y       z     vdW  Elec       q    Type
REMARK                         _______ _______ _______ _____ _____    ______ ____
ROOT
ATOM      1  C   UNK     1      -0.732  -0.209   0.000  0.00  0.00    +0.000 C 
ENDROOT
BRANCH   1   2
ATOM      2  C   UNK     1      -0.021  -0.627   0.000  0.00  0.00    +0.000 C 
ATOM      3  N   UNK     1       0.690  -0.209   0.000  0.00  0.00    +0.000 NA
ATOM      4  O   UNK     1      -0.021  -1.464   0.000  0.00  0.00    +0.000 OA
BRANCH   3   5
ATOM      5  C   UNK     1       1.401  -0.627   0.000  0.00  0.00    +0.000 C 
BRANCH   5   6
ATOM      6  C   UNK     1       2.112  -0.209   0.000  0.00  0.00    +0.000 C 
ATOM      7  N   UNK     1       2.865  -0.627   0.000  0.00  0.00    +0.000 NA
ATOM      8  O   UNK     1       2.112   0.627   0.000  0.00  0.00    +0.000 OA
BRANCH   7   9
ATOM      9  C   UNK     1       3.576  -0.209   0.000  0.00  0.00    +0.000 C 
BRANCH   9  10
ATOM     10  C   UNK     1       4.287  -0.627   0.000  0.00  0.00    +0.000 C 
ATOM     11  N   UNK     1       4.999  -0.209   0.000  0.00  0.00    +0.000 NA
ATOM     12  O   UNK     1       4.287  -1.422   0.000  0.00  0.00    +0.000 OA
BRANCH  11  13
ATOM     13  C   UNK     1       5.710  -0.627   0.000  0.00  0.00    +0.000 C 
BRANCH  13  19
ATOM     14  C   UNK     1       7.968  -0.586   0.000  0.00  0.00    +0.000 C 
ATOM     15  N   UNK     1       7.132  -0.586   0.000  0.00  0.00    +0.000 N 
ATOM     16  C   UNK     1       6.881  -1.380   0.000  0.00  0.00    +0.000 C 
ATOM     17  C   UNK     1       7.550  -1.882   0.000  0.00  0.00    +0.000 C 
ATOM     18  C   UNK     1       8.219  -1.380   0.000  0.00  0.00    +0.000 C 
ATOM     19  C   UNK     1       6.421  -0.209   0.000  0.00  0.00    +0.000 C 
ATOM     20  O   UNK     1       6.421   0.627   0.000  0.00  0.00    +0.000 OA
BRANCH  14  21
ATOM     21  C   UNK     1       8.429   0.084   0.000  0.00  0.00    +0.000 C 
ATOM     22  N   UNK     1       9.265   0.084   0.000  0.00  0.00    +0.000 NA
ATOM     23  O   UNK     1       8.094   0.837   0.000  0.00  0.00    +0.000 OA
BRANCH  22  24
ATOM     24  C   UNK     1       9.725   0.753   0.000  0.00  0.00    +0.000 C 
ATOM     25  C   UNK     1      10.562   0.753   0.000  0.00  0.00    +0.000 C 
ENDBRANCH  22  24
ENDBRANCH  14  21
ENDBRANCH  13  19
BRANCH  13  26
ATOM     26  C   UNK     1       5.710  -1.715   0.000  0.00  0.00    +0.000 C 
BRANCH  26  27
ATOM     27  C   UNK     1       6.421  -2.133   0.000  0.00  0.00    +0.000 C 
BRANCH  27  28
ATOM     28  C   UNK     1       6.421  -2.970   0.000  0.00  0.00    +0.000 C 
BRANCH  28  29
ATOM     29  N   UNK     1       5.710  -3.346   0.000  0.00  0.00    +0.000 NA
ATOM     30  C   UNK     1       4.999  -2.886   0.000  0.00  0.00    +0.000 C 
ATOM     31  N   UNK     1       4.287  -3.263   0.000  0.00  0.00    +0.000 NA
ATOM     32  N   UNK     1       4.999  -2.050   0.000  0.00  0.00    +0.000 NA
ENDBRANCH  28  29
ENDBRANCH  27  28
ENDBRANCH  26  27
ENDBRANCH  13  26
ENDBRANCH  11  13
ENDBRANCH   9  10
BRANCH   9  33
ATOM     33  C   UNK     1       3.667   0.646   0.000  0.00  0.00    +0.000 C 
BRANCH  33  34
ATOM     34  C   UNK     1       4.378   1.065   0.000  0.00  0.00    +0.000 C 
ATOM     35  C   UNK     1       4.378   1.859   0.000  0.00  0.00    +0.000 C 
ATOM     36  C   UNK     1       5.089   0.646   0.000  0.00  0.00    +0.000 C 
ENDBRANCH  33  34
ENDBRANCH   9  33
ENDBRANCH   7   9
ENDBRANCH   5   6
BRANCH   5  37
ATOM     37  C   UNK     1       1.401  -1.464   0.000  0.00  0.00    +0.000 C 
BRANCH  37  38
ATOM     38  O   UNK     1       0.690  -1.841   0.000  0.00  0.00    +0.000 OA
BRANCH  38  39
ATOM     39  C   UNK     1       0.690  -2.677   0.000  0.00  0.00    +0.000 C 
ATOM     40  C   UNK     1       0.690  -3.514   0.000  0.00  0.00    +0.000 C 
ATOM     41  C   UNK     1      -0.104  -2.677   0.000  0.00  0.00    +0.000 C 
ATOM     42  C   UNK     1       1.527  -2.635   0.000  0.00  0.00    +0.000 C 
ENDBRANCH  38  39
ENDBRANCH  37  38
ENDBRANCH   5  37
ENDBRANCH   3   5
ENDBRANCH   1   2
BRANCH   1  44
ATOM     43  C   UNK     1      -2.154  -0.209   0.000  0.00  0.00    +0.000 C 
ATOM     44  N   UNK     1      -1.443  -0.627   0.000  0.00  0.00    +0.000 NA
ATOM     45  O   UNK     1      -2.154   0.586   0.000  0.00  0.00    +0.000 OA
BRANCH  43  46
ATOM     46  C   UNK     1      -2.865  -0.627   0.000  0.00  0.00    +0.000 C 
BRANCH  46  48
ATOM     47  C   UNK     1      -4.287  -0.627   0.000  0.00  0.00    +0.000 C 
ATOM     48  N   UNK     1      -3.576  -0.209   0.000  0.00  0.00    +0.000 NA
ATOM     49  O   UNK     1      -4.287  -1.464   0.000  0.00  0.00    +0.000 OA
BRANCH  47  50
ATOM     50  C   UNK     1      -4.998  -0.209   0.000  0.00  0.00    +0.000 C 
BRANCH  50  51
ATOM     51  N   UNK     1      -5.710  -0.627   0.000  0.00  0.00    +0.000 NA
ATOM     52  C   UNK     1      -6.421  -0.209   0.000  0.00  0.00    +0.000 C 
ATOM     53  O   UNK     1      -6.421   0.586   0.000  0.00  0.00    +0.000 OA
BRANCH  52  54
ATOM     54  C   UNK     1      -7.132  -0.627   0.000  0.00  0.00    +0.000 C 
BRANCH  54  55
ATOM     55  N   UNK     1      -7.843  -0.209   0.000  0.00  0.00    +0.000 NA
ATOM     56  C   UNK     1      -8.554  -0.627   0.000  0.00  0.00    +0.000 C 
ATOM     57  O   UNK     1      -8.554  -1.464   0.000  0.00  0.00    +0.000 OA
BRANCH  56  58
ATOM     58  C   UNK     1      -9.265  -0.209   0.000  0.00  0.00    +0.000 C 
ATOM     59  N   UNK     1      -9.265   0.586   0.000  0.00  0.00    +0.000 NA
ATOM     60  C   UNK     1     -10.060   0.837   0.000  0.00  0.00    +0.000 C 
ATOM     61  C   UNK     1     -10.562   0.167   0.000  0.00  0.00    +0.000 C 
ATOM     62  C   UNK     1     -10.060  -0.502   0.000  0.00  0.00    +0.000 C 
ATOM     63  O   UNK     1     -10.311   1.631   0.000  0.00  0.00    +0.000 OA
ENDBRANCH  56  58
ENDBRANCH  54  55
BRANCH  54  64
ATOM     64  C   UNK     1      -7.132  -1.464   0.000  0.00  0.00    +0.000 C 
BRANCH  64  65
ATOM     65  C   UNK     1      -6.421  -1.882   0.000  0.00  0.00    +0.000 A 
ATOM     66  N   UNK     1      -6.421  -2.719   0.000  0.00  0.00    +0.000 NA
ATOM     67  C   UNK     1      -5.668  -2.970   0.000  0.00  0.00    +0.000 A 
ATOM     68  N   UNK     1      -5.166  -2.342   0.000  0.00  0.00    +0.000 NA
ATOM     69  C   UNK     1      -5.626  -1.631   0.000  0.00  0.00    +0.000 A 
ENDBRANCH  64  65
ENDBRANCH  54  64
ENDBRANCH  52  54
ENDBRANCH  50  51
BRANCH  50  70
ATOM     70  C   UNK     1      -4.998   0.837   0.000  0.00  0.00    +0.000 C 
BRANCH  70  77
ATOM     71  C   UNK     1      -2.782   2.803   0.000  0.00  0.00    +0.000 A 
ATOM     72  C   UNK     1      -3.200   3.514   0.000  0.00  0.00    +0.000 A 
ATOM     73  C   UNK     1      -4.036   3.514   0.000  0.00  0.00    +0.000 A 
ATOM     74  C   UNK     1      -4.455   2.803   0.000  0.00  0.00    +0.000 A 
ATOM     75  C   UNK     1      -3.200   2.091   0.000  0.00  0.00    +0.000 A 
ATOM     76  C   UNK     1      -4.036   2.091   0.000  0.00  0.00    +0.000 A 
ATOM     77  C   UNK     1      -4.287   1.297   0.000  0.00  0.00    +0.000 A 
ATOM     78  C   UNK     1      -3.618   0.837   0.000  0.00  0.00    +0.000 A 
ATOM     79  N   UNK     1      -2.949   1.297   0.000  0.00  0.00    +0.000 NA
ENDBRANCH  70  77
ENDBRANCH  50  70
ENDBRANCH  47  50
ENDBRANCH  46  48
BRANCH  46  80
ATOM     80  C   UNK     1      -2.865  -1.464   0.000  0.00  0.00    +0.000 C 
ATOM     81  O   UNK     1      -2.154  -1.882   0.000  0.00  0.00    +0.000 OA
ENDBRANCH  46  80
ENDBRANCH  43  46
ENDBRANCH   1  44
BRANCH   1  82
ATOM     82  C   UNK     1      -0.732   0.795   0.000  0.00  0.00    +0.000 C 
BRANCH  82  83
ATOM     83  C   UNK     1      -0.021   1.213   0.000  0.00  0.00    +0.000 A 
ATOM     84  C   UNK     1       0.690   0.837   0.000  0.00  0.00    +0.000 A 
ATOM     85  C   UNK     1       1.401   1.213   0.000  0.00  0.00    +0.000 A 
ATOM     86  C   UNK     1       1.401   2.050   0.000  0.00  0.00    +0.000 A 
ATOM     87  C   UNK     1       0.690   2.468   0.000  0.00  0.00    +0.000 A 
ATOM     88  C   UNK     1      -0.021   2.050   0.000  0.00  0.00    +0.000 A 
ATOM     89  O   UNK     1       2.112   2.468   0.000  0.00  0.00    +0.000 OA
ENDBRANCH  82  83
ENDBRANCH   1  82
TORSDOF 33
