REMARK  Name = 
REMARK  5 active torsions:
REMARK  status: ('A' for Active; 'I' for Inactive)
REMARK    1  A    between atoms: C_8  and  C_9
REMARK    2  A    between atoms: C_12  and  N_13
REMARK    3  A    between atoms: N_13  and  N_14
REMARK    4  A    between atoms: C_15  and  C_16
REMARK    5  A    between atoms: C_15  and  C_18
REMARK                            x       y       z     vdW  Elec       q    Type
REMARK                         _______ _______ _______ _____ _____    ______ ____
ROOT
ATOM      1  C   UNL     1      -0.715  -1.238   0.000  0.00  0.00    +0.000 A 
ATOM      2  C   UNL     1      -1.429  -1.650   0.000  0.00  0.00    +0.000 A 
ATOM      3  C   UNL     1      -2.143  -1.238   0.000  0.00  0.00    +0.000 A 
ATOM      4  C   UNL     1      -2.143  -0.412   0.000  0.00  0.00    +0.000 A 
ATOM      5  C   UNL     1      -1.429   0.000   0.000  0.00  0.00    +0.000 A 
ATOM      6  C   UNL     1      -0.715  -0.412   0.000  0.00  0.00    +0.000 A 
ENDROOT
BRANCH   1  14
ATOM      7  C   UNL     1       0.715  -0.412   0.000  0.00  0.00    +0.000 C 
ATOM      8  C   UNL     1       0.715  -1.238   0.000  0.00  0.00    +0.000 C 
ATOM      9  C   UNL     1       1.429  -1.650   0.000  0.00  0.00    +0.000 C 
ATOM     10  C   UNL     1       1.429  -2.475   0.000  0.00  0.00    +0.000 C 
ATOM     11  O   UNL     1       2.143  -2.888   0.000  0.00  0.00    +0.000 OA
ATOM     12  N   UNL     1       0.715  -2.888   0.000  0.00  0.00    +0.000 NA
ATOM     13  N   UNL     1       0.000  -2.475   0.000  0.00  0.00    +0.000 NA
ATOM     14  C   UNL     1       0.000  -1.650   0.000  0.00  0.00    +0.000 C 
ENDBRANCH   1  14
BRANCH   4  15
ATOM     15  N   UNL     1      -2.858   0.000   0.000  0.00  0.00    +0.000 NA
BRANCH  15  16
ATOM     16  N   UNL     1      -3.572  -0.412   0.000  0.00  0.00    +0.000 NA
ATOM     17  C   UNL     1      -4.287   0.000   0.000  0.00  0.00    +0.000 C 
BRANCH  17  18
ATOM     18  C   UNL     1      -5.001  -0.412   0.000  0.00  0.00    +0.000 C 
ATOM     19  N   UNL     1      -5.716  -0.825   0.000  0.00  0.00    +0.000 NA
ENDBRANCH  17  18
BRANCH  17  20
ATOM     20  C   UNL     1      -4.287   0.825   0.000  0.00  0.00    +0.000 C 
ATOM     21  N   UNL     1      -4.287   1.650   0.000  0.00  0.00    +0.000 NA
ENDBRANCH  17  20
ENDBRANCH  15  16
ENDBRANCH   4  15
TORSDOF 5
