REMARK  Name = 
REMARK  9 active torsions:
REMARK  status: ('A' for Active; 'I' for Inactive)
REMARK    1  A    between atoms: O_2  and  C_3
REMARK    2  A    between atoms: C_3  and  C_5
REMARK    3  A    between atoms: C_5  and  C_6
REMARK    4  A    between atoms: C_5  and  N_12
REMARK    5  A    between atoms: C_15  and  C_18
REMARK    6  A    between atoms: C_21  and  N_24
REMARK    7  A    between atoms: C_25  and  C_27
REMARK    8  A    between atoms: C_32  and  C_33
REMARK    9  A    between atoms: C_36  and  C_39
REMARK                            x       y       z     vdW  Elec       q    Type
REMARK                         _______ _______ _______ _____ _____    ______ ____
ROOT
ATOM      1  C   UNL     1      10.717   6.188   0.000  0.00  0.00    +0.000 A 
ATOM      2  C   UNL     1      10.717   7.013   0.000  0.00  0.00    +0.000 A 
ATOM      3  C   UNL     1      11.431   7.425   0.000  0.00  0.00    +0.000 A 
ATOM      4  C   UNL     1      12.146   7.013   0.000  0.00  0.00    +0.000 A 
ATOM      5  C   UNL     1      12.146   6.188   0.000  0.00  0.00    +0.000 A 
ATOM      6  C   UNL     1      11.431   5.775   0.000  0.00  0.00    +0.000 A 
ENDROOT
BRANCH   1  10
ATOM      7  N   UNL     1       8.574   4.950   0.000  0.00  0.00    +0.000 NA
ATOM      8  C   UNL     1       8.574   5.775   0.000  0.00  0.00    +0.000 C 
ATOM      9  C   UNL     1       9.288   6.188   0.000  0.00  0.00    +0.000 C 
ATOM     10  C   UNL     1      10.003   5.775   0.000  0.00  0.00    +0.000 C 
ATOM     11  C   UNL     1      10.003   4.950   0.000  0.00  0.00    +0.000 C 
ATOM     12  C   UNL     1       9.288   4.537   0.000  0.00  0.00    +0.000 C 
BRANCH   7  13
ATOM     13  C   UNL     1       7.859   4.537   0.000  0.00  0.00    +0.000 C 
BRANCH  13  14
ATOM     14  C   UNL     1       7.859   3.712   0.000  0.00  0.00    +0.000 A 
ATOM     15  C   UNL     1       8.574   3.300   0.000  0.00  0.00    +0.000 A 
ATOM     16  C   UNL     1       8.574   2.475   0.000  0.00  0.00    +0.000 A 
ATOM     17  C   UNL     1       7.859   2.062   0.000  0.00  0.00    +0.000 A 
ATOM     18  C   UNL     1       7.145   2.475   0.000  0.00  0.00    +0.000 A 
ATOM     19  C   UNL     1       7.145   3.300   0.000  0.00  0.00    +0.000 A 
ENDBRANCH  13  14
BRANCH  13  20
ATOM     20  C   UNL     1       7.145   4.950   0.000  0.00  0.00    +0.000 C 
ATOM     21  O   UNL     1       7.145   5.775   0.000  0.00  0.00    +0.000 OA
BRANCH  20  23
ATOM     22  C   UNL     1       6.430   3.712   0.000  0.00  0.00    +0.000 C 
ATOM     23  O   UNL     1       6.430   4.537   0.000  0.00  0.00    +0.000 OA
ENDBRANCH  20  23
ENDBRANCH  13  20
ENDBRANCH   7  13
ENDBRANCH   1  10
BRANCH   4  24
ATOM     24  N   UNL     1      12.861   7.425   0.000  0.00  0.00    +0.000 NA
ATOM     25  C   UNL     1      13.575   7.013   0.000  0.00  0.00    +0.000 C 
ATOM     26  O   UNL     1      13.575   6.188   0.000  0.00  0.00    +0.000 OA
BRANCH  25  27
ATOM     27  C   UNL     1      14.289   7.425   0.000  0.00  0.00    +0.000 A 
ATOM     28  C   UNL     1      14.289   8.250   0.000  0.00  0.00    +0.000 A 
ATOM     29  C   UNL     1      15.004   8.662   0.000  0.00  0.00    +0.000 A 
ATOM     30  C   UNL     1      15.718   8.250   0.000  0.00  0.00    +0.000 A 
ATOM     31  C   UNL     1      15.718   7.425   0.000  0.00  0.00    +0.000 A 
ATOM     32  C   UNL     1      15.004   7.013   0.000  0.00  0.00    +0.000 A 
BRANCH  32  33
ATOM     33  C   UNL     1      15.004   6.188   0.000  0.00  0.00    +0.000 A 
ATOM     34  C   UNL     1      15.718   5.775   0.000  0.00  0.00    +0.000 A 
ATOM     35  C   UNL     1      15.718   4.950   0.000  0.00  0.00    +0.000 A 
ATOM     36  C   UNL     1      15.004   4.537   0.000  0.00  0.00    +0.000 A 
ATOM     37  C   UNL     1      14.289   4.950   0.000  0.00  0.00    +0.000 A 
ATOM     38  C   UNL     1      14.289   5.775   0.000  0.00  0.00    +0.000 A 
BRANCH  36  39
ATOM     39  C   UNL     1      15.004   3.712   0.000  0.00  0.00    +0.000 C 
ATOM     40  F   UNL     1      15.004   2.888   0.000  0.00  0.00    +0.000 F 
ATOM     41  F   UNL     1      14.179   3.712   0.000  0.00  0.00    +0.000 F 
ATOM     42  F   UNL     1      15.829   3.712   0.000  0.00  0.00    +0.000 F 
ENDBRANCH  36  39
ENDBRANCH  32  33
ENDBRANCH  25  27
ENDBRANCH   4  24
TORSDOF 9
