REMARK  Name = 
REMARK  7 active torsions:
REMARK  status: ('A' for Active; 'I' for Inactive)
REMARK    1  A    between atoms: C_1  and  C_6
REMARK    2  A    between atoms: C_1  and  N_15
REMARK    3  A    between atoms: C_3  and  C_4
REMARK    4  A    between atoms: N_7  and  S_8
REMARK    5  A    between atoms: S_8  and  C_9
REMARK    6  A    between atoms: C_16  and  C_18
REMARK    7  A    between atoms: C_40  and  C_43
REMARK                            x       y       z     vdW  Elec       q    Type
REMARK                         _______ _______ _______ _____ _____    ______ ____
ROOT
ATOM      1  C   UNL     1      -0.012  -0.144   0.000  0.00  0.00    +0.000 C 
ATOM      2  N   UNL     1      -0.630  -0.694   0.000  0.00  0.00    +0.000 N 
ATOM      3  C   UNL     1      -1.249  -0.144   0.000  0.00  0.00    +0.000 C 
ATOM      4  C   UNL     1      -1.043   0.681   0.000  0.00  0.00    +0.000 C 
ATOM      5  C   UNL     1      -0.287   0.681   0.000  0.00  0.00    +0.000 C 
ATOM      6  O   UNL     1      -1.683   1.462   0.000  0.00  0.00    +0.000 OA
ATOM      7  C   UNL     1      -1.857   2.267   0.000  0.00  0.00    +0.000 C 
ATOM      8  N   UNL     1      -2.788   2.416   0.000  0.00  0.00    +0.000 N 
ATOM      9  C   UNL     1      -3.149   3.169   0.000  0.00  0.00    +0.000 C 
ATOM     10  C   UNL     1      -3.930   2.881   0.000  0.00  0.00    +0.000 A 
ATOM     11  C   UNL     1      -3.930   2.056   0.000  0.00  0.00    +0.000 A 
ATOM     12  C   UNL     1      -4.618   1.781   0.000  0.00  0.00    +0.000 A 
ATOM     13  C   UNL     1      -4.618   0.956   0.000  0.00  0.00    +0.000 C 
ATOM     14  C   UNL     1      -5.237   0.681   0.000  0.00  0.00    +0.000 C 
ATOM     15  C   UNL     1      -5.237  -0.144   0.000  0.00  0.00    +0.000 C 
ATOM     16  C   UNL     1      -4.618  -0.694   0.000  0.00  0.00    +0.000 C 
ATOM     17  C   UNL     1      -4.618  -1.244   0.000  0.00  0.00    +0.000 C 
ATOM     18  C   UNL     1      -3.930  -1.730   0.000  0.00  0.00    +0.000 C 
ATOM     19  O   UNL     1      -3.312  -1.244   0.000  0.00  0.00    +0.000 OA
ATOM     20  C   UNL     1      -2.624  -1.794   0.000  0.00  0.00    +0.000 C 
ATOM     21  O   UNL     1      -2.624  -2.619   0.000  0.00  0.00    +0.000 OA
ATOM     22  N   UNL     1      -2.005  -1.244   0.000  0.00  0.00    +0.000 NA
ATOM     23  C   UNL     1      -1.318  -1.794   0.000  0.00  0.00    +0.000 C 
ATOM     24  C   UNL     1      -0.630  -1.244   0.000  0.00  0.00    +0.000 C 
ATOM     25  O   UNL     1      -0.012  -1.794   0.000  0.00  0.00    +0.000 OA
ATOM     26  C   UNL     1      -5.374  -1.244   0.000  0.00  0.00    +0.000 C 
ATOM     27  C   UNL     1      -4.919  -2.048   0.000  0.00  0.00    +0.000 C 
ATOM     28  C   UNL     1      -5.237   2.056   0.000  0.00  0.00    +0.000 A 
ATOM     29  C   UNL     1      -5.237   2.881   0.000  0.00  0.00    +0.000 A 
ATOM     30  C   UNL     1      -4.618   3.156   0.000  0.00  0.00    +0.000 A 
ATOM     31  C   UNL     1      -3.126   1.805   0.000  0.00  0.00    +0.000 C 
ATOM     32  O   UNL     1      -1.364   2.901   0.000  0.00  0.00    +0.000 OA
ENDROOT
BRANCH  23  33
ATOM     33  C   UNL     1      -1.318  -2.344   0.000  0.00  0.00    +0.000 C 
ATOM     34  C   UNL     1      -1.937  -2.894   0.000  0.00  0.00    +0.000 C 
ATOM     35  C   UNL     1      -0.630  -2.894   0.000  0.00  0.00    +0.000 C 
ATOM     36  C   UNL     1      -1.318  -3.169   0.000  0.00  0.00    +0.000 C 
ENDBRANCH  23  33
BRANCH   1  38
ATOM     37  N   UNL     1       1.294  -0.144   0.000  0.00  0.00    +0.000 NA
ATOM     38  C   UNL     1       0.607  -0.419   0.000  0.00  0.00    +0.000 C 
ATOM     39  O   UNL     1       0.607  -1.244   0.000  0.00  0.00    +0.000 OA
BRANCH  37  40
ATOM     40  C   UNL     1       1.913  -0.419   0.000  0.00  0.00    +0.000 C 
ATOM     41  C   UNL     1       2.325  -1.244   0.000  0.00  0.00    +0.000 C 
ATOM     42  C   UNL     1       1.569  -1.244   0.000  0.00  0.00    +0.000 C 
BRANCH  40  43
ATOM     43  C   UNL     1       2.601  -0.144   0.000  0.00  0.00    +0.000 C 
ATOM     44  N   UNL     1       3.219  -0.419   0.000  0.00  0.00    +0.000 NA
ATOM     45  O   UNL     1       2.601   0.681   0.000  0.00  0.00    +0.000 OA
BRANCH  44  46
ATOM     46  S   UNL     1       3.886   0.066   0.000  0.00  0.00    +0.000 S 
ATOM     47  O   UNL     1       3.401   0.733   0.000  0.00  0.00    +0.000 OA
ATOM     48  O   UNL     1       4.372  -0.601   0.000  0.00  0.00    +0.000 OA
BRANCH  46  49
ATOM     49  C   UNL     1       4.554   0.552   0.000  0.00  0.00    +0.000 C 
ATOM     50  C   UNL     1       5.374   0.638   0.000  0.00  0.00    +0.000 C 
ATOM     51  C   UNL     1       4.889   1.306   0.000  0.00  0.00    +0.000 C 
ENDBRANCH  46  49
ENDBRANCH  44  46
ENDBRANCH  40  43
BRANCH  42  52
ATOM     52  C   UNL     1       2.172  -1.847   0.000  0.00  0.00    +0.000 C 
ATOM     53  C   UNL     1       2.172  -2.699   0.000  0.00  0.00    +0.000 C 
ENDBRANCH  42  52
ENDBRANCH  37  40
ENDBRANCH   1  38
TORSDOF 7
