REMARK  Name = 
REMARK  5 active torsions:
REMARK  status: ('A' for Active; 'I' for Inactive)
REMARK    1  A    between atoms: C_2  and  C_4
REMARK    2  A    between atoms: C_8  and  C_9
REMARK    3  A    between atoms: C_11  and  N_12
REMARK    4  A    between atoms: C_13  and  C_14
REMARK    5  A    between atoms: C_14  and  C_15
REMARK                            x       y       z     vdW  Elec       q    Type
REMARK                         _______ _______ _______ _____ _____    ______ ____
ROOT
ATOM      1  N   UNL     1      -1.118   1.347   0.000  0.00  0.00    +0.000 NA
ATOM      2  C   UNL     1      -1.831   0.932   0.000  0.00  0.00    +0.000 C 
ATOM      3  O   UNL     1      -1.831   0.108   0.000  0.00  0.00    +0.000 OA
ENDROOT
BRANCH   1   6
ATOM      4  C   UNL     1       1.028   0.937   0.000  0.00  0.00    +0.000 A 
ATOM      5  N   UNL     1       0.313   1.355   0.000  0.00  0.00    +0.000 NA
ATOM      6  C   UNL     1      -0.403   0.937   0.000  0.00  0.00    +0.000 A 
ATOM      7  C   UNL     1      -0.403   0.108   0.000  0.00  0.00    +0.000 A 
ATOM      8  C   UNL     1       0.313  -0.302   0.000  0.00  0.00    +0.000 A 
ATOM      9  C   UNL     1       1.028   0.108   0.000  0.00  0.00    +0.000 A 
ATOM     10  C   UNL     1       1.741  -0.305   0.000  0.00  0.00    +0.000 C 
BRANCH   4  15
ATOM     11  C   UNL     1       3.174   1.347   0.000  0.00  0.00    +0.000 A 
ATOM     12  C   UNL     1       3.174   2.176   0.000  0.00  0.00    +0.000 A 
ATOM     13  C   UNL     1       2.458   2.586   0.000  0.00  0.00    +0.000 A 
ATOM     14  C   UNL     1       1.743   2.176   0.000  0.00  0.00    +0.000 A 
ATOM     15  C   UNL     1       1.743   1.347   0.000  0.00  0.00    +0.000 A 
ATOM     16  C   UNL     1       2.458   0.928   0.000  0.00  0.00    +0.000 A 
BRANCH  11  18
ATOM     17  O   UNL     1       4.601   1.351   0.000  0.00  0.00    +0.000 OA
ATOM     18  C   UNL     1       3.889   0.937   0.000  0.00  0.00    +0.000 C 
ATOM     19  O   UNL     1       3.889   0.112   0.000  0.00  0.00    +0.000 OA
ENDBRANCH  11  18
ENDBRANCH   4  15
ENDBRANCH   1   6
BRANCH   2  20
ATOM     20  C   UNL     1      -2.546   1.343   0.000  0.00  0.00    +0.000 C 
ATOM     21  C   UNL     1      -3.078   1.972   0.000  0.00  0.00    +0.000 C 
ATOM     22  C   UNL     1      -2.265   2.120   0.000  0.00  0.00    +0.000 C 
BRANCH  20  23
ATOM     23  C   UNL     1      -3.074   0.709   0.000  0.00  0.00    +0.000 A 
ATOM     24  C   UNL     1      -3.890   0.853   0.000  0.00  0.00    +0.000 A 
ATOM     25  C   UNL     1      -4.419   0.219   0.000  0.00  0.00    +0.000 A 
ATOM     26  C   UNL     1      -4.139  -0.556   0.000  0.00  0.00    +0.000 A 
ATOM     27  O   UNL     1      -4.529  -1.290   0.000  0.00  0.00    +0.000 OA
ATOM     28  C   UNL     1      -3.952  -1.887   0.000  0.00  0.00    +0.000 C 
ATOM     29  F   UNL     1      -3.515  -2.586   0.000  0.00  0.00    +0.000 F 
ATOM     30  F   UNL     1      -4.601  -2.395   0.000  0.00  0.00    +0.000 F 
ATOM     31  O   UNL     1      -3.206  -1.522   0.000  0.00  0.00    +0.000 OA
ATOM     32  C   UNL     1      -3.322  -0.700   0.000  0.00  0.00    +0.000 A 
ATOM     33  C   UNL     1      -2.785  -0.068   0.000  0.00  0.00    +0.000 A 
ENDBRANCH  20  23
ENDBRANCH   2  20
TORSDOF 5
