REMARK  Name = 
REMARK  5 active torsions:
REMARK  status: ('A' for Active; 'I' for Inactive)
REMARK    1  A    between atoms: O_2  and  C_3
REMARK    2  A    between atoms: C_3  and  C_4
REMARK    3  A    between atoms: C_4  and  C_5
REMARK    4  A    between atoms: C_21  and  C_24
REMARK    5  A    between atoms: C_24  and  O_26
REMARK                            x       y       z     vdW  Elec       q    Type
REMARK                         _______ _______ _______ _____ _____    ______ ____
ROOT
ATOM      1  C   UNL     1       0.534  -0.210   0.000  0.00  0.00    +0.000 C 
ATOM      2  C   UNL     1      -0.028   0.408   0.000  0.00  0.00    +0.000 C 
ATOM      3  C   UNL     1       0.569   1.013   0.000  0.00  0.00    +0.000 C 
ATOM      4  C   UNL     1       0.478   1.843   0.000  0.00  0.00    +0.000 C 
ATOM      5  N   UNL     1       1.200   1.419   0.000  0.00  0.00    +0.000 NA
ATOM      6  C   UNL     1       1.896   1.965   0.000  0.00  0.00    +0.000 C 
ATOM      7  C   UNL     1       2.735   1.861   0.000  0.00  0.00    +0.000 C 
ATOM      8  C   UNL     1       3.097   1.094   0.000  0.00  0.00    +0.000 A 
ATOM      9  C   UNL     1       2.793   0.327   0.000  0.00  0.00    +0.000 A 
ATOM     10  N   UNL     1       3.428  -0.199   0.000  0.00  0.00    +0.000 NA
ATOM     11  C   UNL     1       4.125   0.242   0.000  0.00  0.00    +0.000 A 
ATOM     12  C   UNL     1       3.920   1.041   0.000  0.00  0.00    +0.000 A 
ATOM     13  C   UNL     1       4.510   1.618   0.000  0.00  0.00    +0.000 A 
ATOM     14  C   UNL     1       5.305   1.395   0.000  0.00  0.00    +0.000 A 
ATOM     15  C   UNL     1       5.509   0.596   0.000  0.00  0.00    +0.000 A 
ATOM     16  C   UNL     1       4.919   0.019   0.000  0.00  0.00    +0.000 A 
ATOM     17  C   UNL     1       1.937   0.190   0.000  0.00  0.00    +0.000 C 
ATOM     18  C   UNL     1       1.484   0.878   0.000  0.00  0.00    +0.000 C 
ATOM     19  C   UNL     1       1.103   0.438   0.000  0.00  0.00    +0.000 C 
ENDROOT
BRANCH  17  20
ATOM     20  C   UNL     1       1.883  -0.634   0.000  0.00  0.00    +0.000 C 
ATOM     21  O   UNL     1       1.144  -0.999   0.000  0.00  0.00    +0.000 OA
BRANCH  20  22
ATOM     22  O   UNL     1       2.570  -1.092   0.000  0.00  0.00    +0.000 OA
ATOM     23  C   UNL     1       2.516  -1.915   0.000  0.00  0.00    +0.000 C 
ENDBRANCH  20  22
ENDBRANCH  17  20
BRANCH   1  24
ATOM     24  C   UNL     1       0.542  -1.035   0.000  0.00  0.00    +0.000 C 
BRANCH  24  25
ATOM     25  C   UNL     1      -0.169  -1.454   0.000  0.00  0.00    +0.000 C 
BRANCH  25  27
ATOM     26  C   UNL     1      -0.872  -2.698   0.000  0.00  0.00    +0.000 C 
ATOM     27  O   UNL     1      -0.161  -2.279   0.000  0.00  0.00    +0.000 OA
ENDBRANCH  25  27
ENDBRANCH  24  25
ENDBRANCH   1  24
TORSDOF 5
