REMARK  Name = 
REMARK  5 active torsions:
REMARK  status: ('A' for Active; 'I' for Inactive)
REMARK    1  A    between atoms: C_2  and  N_3
REMARK    2  A    between atoms: C_2  and  C_18
REMARK    3  A    between atoms: C_4  and  C_6
REMARK    4  A    between atoms: C_6  and  N_7
REMARK    5  A    between atoms: C_21  and  C_24
REMARK                            x       y       z     vdW  Elec       q    Type
REMARK                         _______ _______ _______ _____ _____    ______ ____
ROOT
ATOM      1  N   UNL     1      -2.779  -0.822   0.000  0.00  0.00    +0.000 NA
ATOM      2  C   UNL     1      -2.065  -1.235   0.000  0.00  0.00    +0.000 C 
ATOM      3  O   UNL     1      -2.065  -2.060   0.000  0.00  0.00    +0.000 OA
ENDROOT
BRANCH   1   5
ATOM      4  C   UNL     1      -3.494  -2.060   0.000  0.00  0.00    +0.000 C 
ATOM      5  C   UNL     1      -3.494  -1.235   0.000  0.00  0.00    +0.000 C 
BRANCH   5   6
ATOM      6  C   UNL     1      -4.208  -0.822   0.000  0.00  0.00    +0.000 A 
ATOM      7  C   UNL     1      -4.923  -1.235   0.000  0.00  0.00    +0.000 A 
ATOM      8  C   UNL     1      -5.637  -0.822   0.000  0.00  0.00    +0.000 A 
ATOM      9  C   UNL     1      -5.637   0.003   0.000  0.00  0.00    +0.000 A 
ATOM     10  C   UNL     1      -4.923   0.415   0.000  0.00  0.00    +0.000 A 
ATOM     11  C   UNL     1      -4.208   0.003   0.000  0.00  0.00    +0.000 A 
BRANCH   9  12
ATOM     12  C   UNL     1      -6.351   0.415   0.000  0.00  0.00    +0.000 C 
ATOM     13  C   UNL     1      -7.066   0.828   0.000  0.00  0.00    +0.000 C 
ATOM     14  C   UNL     1      -5.939   1.130   0.000  0.00  0.00    +0.000 C 
ATOM     15  C   UNL     1      -6.764  -0.299   0.000  0.00  0.00    +0.000 C 
ENDBRANCH   9  12
ENDBRANCH   5   6
ENDBRANCH   1   5
BRANCH   2  16
ATOM     16  C   UNL     1      -1.350  -0.822   0.000  0.00  0.00    +0.000 C 
BRANCH  16  17
ATOM     17  N   UNL     1      -0.636  -1.235   0.000  0.00  0.00    +0.000 N 
ATOM     18  C   UNL     1      -0.549  -2.055   0.000  0.00  0.00    +0.000 A 
ATOM     19  N   UNL     1       0.258  -2.227   0.000  0.00  0.00    +0.000 NA
ATOM     20  C   UNL     1       0.670  -1.512   0.000  0.00  0.00    +0.000 A 
ATOM     21  C   UNL     1       0.118  -0.899   0.000  0.00  0.00    +0.000 A 
ATOM     22  C   UNL     1       0.373  -0.114   0.000  0.00  0.00    +0.000 A 
ATOM     23  F   UNL     1      -0.179   0.499   0.000  0.00  0.00    +0.000 F 
ATOM     24  C   UNL     1       1.180   0.057   0.000  0.00  0.00    +0.000 A 
ATOM     25  F   UNL     1       1.435   0.842   0.000  0.00  0.00    +0.000 F 
ATOM     26  C   UNL     1       1.732  -0.556   0.000  0.00  0.00    +0.000 A 
ATOM     27  C   UNL     1       1.477  -1.341   0.000  0.00  0.00    +0.000 A 
ENDBRANCH  16  17
ENDBRANCH   2  16
TORSDOF 5
