REMARK  Name = 
REMARK  11 active torsions:
REMARK  status: ('A' for Active; 'I' for Inactive)
REMARK    1  A    between atoms: C_2  and  C_3
REMARK    2  A    between atoms: C_3  and  N_4
REMARK    3  A    between atoms: N_4  and  C_5
REMARK    4  A    between atoms: C_5  and  C_6
REMARK    5  A    between atoms: C_6  and  C_8
REMARK    6  A    between atoms: C_8  and  O_9
REMARK    7  A    between atoms: O_9  and  C_10
REMARK    8  A    between atoms: C_15  and  C_16
REMARK    9  A    between atoms: C_16  and  C_18
REMARK   10  A    between atoms: C_18  and  C_19
REMARK   11  A    between atoms: C_19  and  C_20
REMARK                            x       y       z     vdW  Elec       q    Type
REMARK                         _______ _______ _______ _____ _____    ______ ____
ROOT
ATOM      1  C   UNL     1       6.430  -6.188   0.000  0.00  0.00    +0.000 A 
ATOM      2  C   UNL     1       6.430  -5.362   0.000  0.00  0.00    +0.000 A 
ATOM      3  C   UNL     1       7.145  -4.950   0.000  0.00  0.00    +0.000 A 
ATOM      4  C   UNL     1       7.859  -5.362   0.000  0.00  0.00    +0.000 A 
ATOM      5  C   UNL     1       7.859  -6.188   0.000  0.00  0.00    +0.000 A 
ATOM      6  C   UNL     1       7.145  -6.600   0.000  0.00  0.00    +0.000 A 
ENDROOT
BRANCH   6   7
ATOM      7  C   UNL     1       7.145  -7.425   0.000  0.00  0.00    +0.000 C 
ATOM      8  O   UNL     1       7.859  -7.838   0.000  0.00  0.00    +0.000 OA
BRANCH   7   9
ATOM      9  C   UNL     1       6.430  -7.838   0.000  0.00  0.00    +0.000 C 
BRANCH   9  10
ATOM     10  C   UNL     1       6.430  -8.662   0.000  0.00  0.00    +0.000 C 
BRANCH  10  11
ATOM     11  C   UNL     1       7.145  -9.075   0.000  0.00  0.00    +0.000 A 
ATOM     12  C   UNL     1       7.859  -8.662   0.000  0.00  0.00    +0.000 A 
ATOM     13  C   UNL     1       8.574  -9.075   0.000  0.00  0.00    +0.000 A 
ATOM     14  C   UNL     1       8.574  -9.900   0.000  0.00  0.00    +0.000 A 
ATOM     15  C   UNL     1       7.859 -10.312   0.000  0.00  0.00    +0.000 A 
ATOM     16  C   UNL     1       7.145  -9.900   0.000  0.00  0.00    +0.000 A 
ENDBRANCH  10  11
ENDBRANCH   9  10
ENDBRANCH   7   9
ENDBRANCH   6   7
BRANCH   1  17
ATOM     17  O   UNL     1       5.716  -6.600   0.000  0.00  0.00    +0.000 OA
BRANCH  17  18
ATOM     18  C   UNL     1       5.001  -6.188   0.000  0.00  0.00    +0.000 C 
BRANCH  18  19
ATOM     19  C   UNL     1       4.287  -6.600   0.000  0.00  0.00    +0.000 C 
ATOM     20  O   UNL     1       4.287  -7.425   0.000  0.00  0.00    +0.000 OA
BRANCH  19  21
ATOM     21  C   UNL     1       3.572  -6.188   0.000  0.00  0.00    +0.000 C 
BRANCH  21  22
ATOM     22  N   UNL     1       2.858  -6.600   0.000  0.00  0.00    +0.000 NA
BRANCH  22  23
ATOM     23  C   UNL     1       2.143  -6.188   0.000  0.00  0.00    +0.000 C 
BRANCH  23  25
ATOM     24  C   UNL     1       0.715  -6.188   0.000  0.00  0.00    +0.000 C 
ATOM     25  C   UNL     1       1.429  -6.600   0.000  0.00  0.00    +0.000 C 
ENDBRANCH  23  25
ENDBRANCH  22  23
ENDBRANCH  21  22
ENDBRANCH  19  21
ENDBRANCH  18  19
ENDBRANCH  17  18
ENDBRANCH   1  17
TORSDOF 11
