REMARK  Name = 
REMARK  4 active torsions:
REMARK  status: ('A' for Active; 'I' for Inactive)
REMARK    1  A    between atoms: C_1  and  C_7
REMARK    2  A    between atoms: C_3  and  O_11
REMARK    3  A    between atoms: O_11  and  C_19
REMARK    4  A    between atoms: N_21  and  C_22
REMARK                            x       y       z     vdW  Elec       q    Type
REMARK                         _______ _______ _______ _____ _____    ______ ____
ROOT
ATOM      1  S   UNL     1       2.127   0.914   0.000  0.00  0.00    +0.000 S 
ATOM      2  C   UNL     1       2.612   0.247   0.000  0.00  0.00    +0.000 A 
ATOM      3  N   UNL     1       2.127  -0.421   0.000  0.00  0.00    +0.000 NA
ATOM      4  C   UNL     1       1.343  -0.166   0.000  0.00  0.00    +0.000 A 
ATOM      5  C   UNL     1       1.343   0.659   0.000  0.00  0.00    +0.000 A 
ATOM      6  C   UNL     1       0.628  -0.578   0.000  0.00  0.00    +0.000 A 
ATOM      7  C   UNL     1      -0.086  -0.166   0.000  0.00  0.00    +0.000 A 
ATOM      8  C   UNL     1      -0.086   0.659   0.000  0.00  0.00    +0.000 A 
ATOM      9  C   UNL     1       0.628   1.072   0.000  0.00  0.00    +0.000 A 
ATOM     10  N   UNL     1       3.437   0.247   0.000  0.00  0.00    +0.000 NA
ENDROOT
BRANCH  10  11
ATOM     11  C   UNL     1       3.850  -0.468   0.000  0.00  0.00    +0.000 C 
ATOM     12  C   UNL     1       3.437  -1.182   0.000  0.00  0.00    +0.000 C 
ATOM     13  C   UNL     1       3.850  -1.897   0.000  0.00  0.00    +0.000 C 
ATOM     14  C   UNL     1       4.675  -1.897   0.000  0.00  0.00    +0.000 C 
ATOM     15  C   UNL     1       5.087  -1.182   0.000  0.00  0.00    +0.000 C 
ATOM     16  C   UNL     1       4.675  -0.468   0.000  0.00  0.00    +0.000 C 
ATOM     17  O   UNL     1       2.612  -1.182   0.000  0.00  0.00    +0.000 OA
ENDBRANCH  10  11
BRANCH   8  18
ATOM     18  O   UNL     1      -0.801   1.072   0.000  0.00  0.00    +0.000 OA
BRANCH  18  21
ATOM     19  C   UNL     1      -2.944   0.659   0.000  0.00  0.00    +0.000 A 
ATOM     20  C   UNL     1      -2.229   1.072   0.000  0.00  0.00    +0.000 A 
ATOM     21  C   UNL     1      -1.515   0.659   0.000  0.00  0.00    +0.000 A 
ATOM     22  C   UNL     1      -1.515  -0.166   0.000  0.00  0.00    +0.000 A 
ATOM     23  C   UNL     1      -2.229  -0.578   0.000  0.00  0.00    +0.000 A 
ATOM     24  N   UNL     1      -2.944  -0.166   0.000  0.00  0.00    +0.000 NA
BRANCH  19  25
ATOM     25  C   UNL     1      -3.658   1.072   0.000  0.00  0.00    +0.000 C 
ATOM     26  O   UNL     1      -3.658   1.897   0.000  0.00  0.00    +0.000 OA
ATOM     27  N   UNL     1      -4.373   0.659   0.000  0.00  0.00    +0.000 NA
ATOM     28  C   UNL     1      -5.087   1.072   0.000  0.00  0.00    +0.000 C 
ENDBRANCH  19  25
ENDBRANCH  18  21
ENDBRANCH   8  18
TORSDOF 4
