REMARK  Name = 
REMARK  5 active torsions:
REMARK  status: ('A' for Active; 'I' for Inactive)
REMARK    1  A    between atoms: C_1  and  C_2
REMARK    2  A    between atoms: C_1  and  C_6
REMARK    3  A    between atoms: C_1  and  C_8
REMARK    4  A    between atoms: C_2  and  C_3
REMARK    5  A    between atoms: C_3  and  C_4
REMARK                            x       y       z     vdW  Elec       q    Type
REMARK                         _______ _______ _______ _____ _____    ______ ____
ROOT
ATOM      1  C   UNL     1      -0.206   0.619   0.000  0.00  0.00    +0.000 C 
ATOM      2 BR   UNL     1      -1.031   0.619   0.000  0.00  0.00    +0.000 Br
ENDROOT
BRANCH   1   3
ATOM      3  C   UNL     1      -0.206   1.444   0.000  0.00  0.00    +0.000 C 
ATOM      4  N   UNL     1      -0.206   2.269   0.000  0.00  0.00    +0.000 NA
ENDBRANCH   1   3
BRANCH   1   5
ATOM      5  C   UNL     1       0.619   0.619   0.000  0.00  0.00    +0.000 C 
ATOM      6 BR   UNL     1       1.031   1.333   0.000  0.00  0.00    +0.000 Br
ENDBRANCH   1   5
BRANCH   1   7
ATOM      7  C   UNL     1      -0.206  -0.206   0.000  0.00  0.00    +0.000 C 
BRANCH   7   8
ATOM      8  C   UNL     1      -0.921  -0.619   0.000  0.00  0.00    +0.000 C 
BRANCH   8   9
ATOM      9  C   UNL     1      -0.921  -1.444   0.000  0.00  0.00    +0.000 C 
ATOM     10  N   UNL     1      -0.921  -2.269   0.000  0.00  0.00    +0.000 NA
ENDBRANCH   8   9
ENDBRANCH   7   8
ENDBRANCH   1   7
TORSDOF 5
