REMARK  Name = 
REMARK  10 active torsions:
REMARK  status: ('A' for Active; 'I' for Inactive)
REMARK    1  A    between atoms: C_4  and  S_5
REMARK    2  A    between atoms: S_5  and  C_6
REMARK    3  A    between atoms: C_6  and  C_7
REMARK    4  A    between atoms: C_10  and  C_12
REMARK    5  A    between atoms: C_19  and  C_20
REMARK    6  A    between atoms: C_22  and  C_23
REMARK    7  A    between atoms: C_26  and  O_27
REMARK    8  A    between atoms: O_27  and  C_28
REMARK    9  A    between atoms: C_28  and  C_29
REMARK   10  A    between atoms: C_33  and  C_34
REMARK                            x       y       z     vdW  Elec       q    Type
REMARK                         _______ _______ _______ _____ _____    ______ ____
ROOT
ATOM      1  N   UNL     1      -1.322  -0.062   0.000  0.00  0.00    +0.000 NA
ATOM      2  C   UNL     1      -2.037  -0.474   0.000  0.00  0.00    +0.000 A 
ATOM      3  N   UNL     1      -2.037  -1.299   0.000  0.00  0.00    +0.000 NA
ATOM      4  C   UNL     1      -2.751  -1.712   0.000  0.00  0.00    +0.000 A 
ATOM      5  C   UNL     1      -3.466  -1.299   0.000  0.00  0.00    +0.000 A 
ATOM      6  C   UNL     1      -3.466  -0.474   0.000  0.00  0.00    +0.000 A 
ATOM      7  C   UNL     1      -2.751  -0.062   0.000  0.00  0.00    +0.000 A 
ENDROOT
BRANCH   6   8
ATOM      8  C   UNL     1      -4.180  -0.062   0.000  0.00  0.00    +0.000 A 
ATOM      9  C   UNL     1      -4.895  -0.474   0.000  0.00  0.00    +0.000 A 
ATOM     10  C   UNL     1      -5.609  -0.062   0.000  0.00  0.00    +0.000 A 
ATOM     11  C   UNL     1      -5.609   0.763   0.000  0.00  0.00    +0.000 A 
ATOM     12  C   UNL     1      -4.895   1.176   0.000  0.00  0.00    +0.000 A 
ATOM     13  C   UNL     1      -4.180   0.763   0.000  0.00  0.00    +0.000 A 
BRANCH  11  14
ATOM     14  O   UNL     1      -6.324   1.176   0.000  0.00  0.00    +0.000 OA
BRANCH  14  15
ATOM     15  C   UNL     1      -7.038   0.763   0.000  0.00  0.00    +0.000 C 
BRANCH  15  16
ATOM     16  C   UNL     1      -7.753   1.176   0.000  0.00  0.00    +0.000 C 
ATOM     17  O   UNL     1      -7.753   2.001   0.000  0.00  0.00    +0.000 OA
ENDBRANCH  15  16
ENDBRANCH  14  15
ENDBRANCH  11  14
ENDBRANCH   6   8
BRANCH   5  18
ATOM     18  C   UNL     1      -4.180  -1.712   0.000  0.00  0.00    +0.000 C 
ATOM     19  N   UNL     1      -4.895  -2.124   0.000  0.00  0.00    +0.000 NA
ENDBRANCH   5  18
BRANCH   7  20
ATOM     20  C   UNL     1      -2.751   0.763   0.000  0.00  0.00    +0.000 C 
ATOM     21  N   UNL     1      -2.751   1.588   0.000  0.00  0.00    +0.000 NA
ENDBRANCH   7  20
BRANCH   4  22
ATOM     22  S   UNL     1      -2.751  -2.537   0.000  0.00  0.00    +0.000 S 
BRANCH  22  23
ATOM     23  C   UNL     1      -2.037  -2.949   0.000  0.00  0.00    +0.000 C 
BRANCH  23  24
ATOM     24  C   UNL     1      -2.037  -3.774   0.000  0.00  0.00    +0.000 A 
ATOM     25  C   UNL     1      -1.369  -4.259   0.000  0.00  0.00    +0.000 A 
ATOM     26  S   UNL     1      -1.624  -5.044   0.000  0.00  0.00    +0.000 S 
ATOM     27  C   UNL     1      -2.449  -5.044   0.000  0.00  0.00    +0.000 A 
ATOM     28  N   UNL     1      -2.704  -4.259   0.000  0.00  0.00    +0.000 NA
BRANCH  27  29
ATOM     29  C   UNL     1      -2.934  -5.711   0.000  0.00  0.00    +0.000 A 
ATOM     30  C   UNL     1      -2.599  -6.465   0.000  0.00  0.00    +0.000 A 
ATOM     31  C   UNL     1      -3.083  -7.132   0.000  0.00  0.00    +0.000 A 
ATOM     32  C   UNL     1      -3.904  -7.046   0.000  0.00  0.00    +0.000 A 
ATOM     33 CL   UNL     1      -4.389  -7.713   0.000  0.00  0.00    +0.000 Cl
ATOM     34  C   UNL     1      -4.239  -6.292   0.000  0.00  0.00    +0.000 A 
ATOM     35  C   UNL     1      -3.755  -5.625   0.000  0.00  0.00    +0.000 A 
ENDBRANCH  27  29
ENDBRANCH  23  24
ENDBRANCH  22  23
ENDBRANCH   4  22
TORSDOF 10
