REMARK  Name = 
REMARK  7 active torsions:
REMARK  status: ('A' for Active; 'I' for Inactive)
REMARK    1  A    between atoms: O_6  and  N_11
REMARK    2  A    between atoms: O_6  and  C_15
REMARK    3  A    between atoms: N_10  and  C_12
REMARK    4  A    between atoms: N_10  and  C_16
REMARK    5  A    between atoms: C_13  and  C_20
REMARK    6  A    between atoms: C_14  and  C_15
REMARK    7  A    between atoms: C_14  and  C_19
REMARK                            x       y       z     vdW  Elec       q    Type
REMARK                         _______ _______ _______ _____ _____    ______ ____
ROOT
ATOM      1 BR   UNL     1       1.429  -2.475   0.000  0.00  0.00    +0.000 Br
ATOM      2  F   UNL     1       2.858   0.000   0.000  0.00  0.00    +0.000 F 
ATOM      3  F   UNL     1       2.858  -1.650   0.000  0.00  0.00    +0.000 F 
ATOM      4  C   UNL     1       1.429   0.000   0.000  0.00  0.00    +0.000 A 
ATOM      5  C   UNL     1       0.715  -0.412   0.000  0.00  0.00    +0.000 A 
ATOM      6  C   UNL     1       2.143  -0.412   0.000  0.00  0.00    +0.000 A 
ATOM      7  C   UNL     1       0.715  -1.238   0.000  0.00  0.00    +0.000 A 
ATOM      8  C   UNL     1       2.143  -1.238   0.000  0.00  0.00    +0.000 A 
ATOM      9  C   UNL     1       1.429  -1.650   0.000  0.00  0.00    +0.000 A 
ENDROOT
BRANCH   5  12
ATOM     10  O   UNL     1       0.000   0.825   0.000  0.00  0.00    +0.000 OA
ATOM     11  N   UNL     1      -0.714  -0.412   0.000  0.00  0.00    +0.000 N 
ATOM     12  C   UNL     1       0.000   0.000   0.000  0.00  0.00    +0.000 C 
ATOM     13  H   UNL     1      -0.714  -0.924   0.000  0.00  0.00    +0.000 HD
BRANCH  11  14
ATOM     14  O   UNL     1      -1.429   0.000   0.000  0.00  0.00    +0.000 OA
BRANCH  14  15
ATOM     15  C   UNL     1      -2.143  -0.412   0.000  0.00  0.00    +0.000 C 
BRANCH  15  17
ATOM     16  O   UNL     1      -2.858   0.825   0.000  0.00  0.00    +0.000 OA
ATOM     17  C   UNL     1      -2.858   0.000   0.000  0.00  0.00    +0.000 C 
BRANCH  17  19
ATOM     18  O   UNL     1      -4.287   0.000   0.000  0.00  0.00    +0.000 OA
ATOM     19  C   UNL     1      -3.572  -0.412   0.000  0.00  0.00    +0.000 C 
ENDBRANCH  17  19
ENDBRANCH  15  17
ENDBRANCH  14  15
ENDBRANCH  11  14
ENDBRANCH   5  12
BRANCH   4  20
ATOM     20  N   UNL     1       1.429   0.825   0.000  0.00  0.00    +0.000 N 
ATOM     21  H   UNL     1       0.986   1.081   0.000  0.00  0.00    +0.000 HD
BRANCH  20  24
ATOM     22  I   UNL     1       4.287   2.475   0.000  0.00  0.00    +0.000 I 
ATOM     23  F   UNL     1       1.429   2.475   0.000  0.00  0.00    +0.000 F 
ATOM     24  C   UNL     1       2.143   1.238   0.000  0.00  0.00    +0.000 A 
ATOM     25  C   UNL     1       2.143   2.062   0.000  0.00  0.00    +0.000 A 
ATOM     26  C   UNL     1       2.858   0.825   0.000  0.00  0.00    +0.000 A 
ATOM     27  C   UNL     1       2.858   2.475   0.000  0.00  0.00    +0.000 A 
ATOM     28  C   UNL     1       3.572   1.238   0.000  0.00  0.00    +0.000 A 
ATOM     29  C   UNL     1       3.572   2.062   0.000  0.00  0.00    +0.000 A 
ENDBRANCH  20  24
ENDBRANCH   4  20
TORSDOF 7
