REMARK  Name = 
REMARK  7 active torsions:
REMARK  status: ('A' for Active; 'I' for Inactive)
REMARK    1  A    between atoms: N_4  and  C_12
REMARK    2  A    between atoms: N_5  and  C_13
REMARK    3  A    between atoms: C_10  and  C_11
REMARK    4  A    between atoms: C_10  and  C_12
REMARK    5  A    between atoms: C_11  and  C_13
REMARK    6  A    between atoms: C_14  and  C_15
REMARK    7  A    between atoms: C_16  and  C_19
REMARK                            x       y       z     vdW  Elec       q    Type
REMARK                         _______ _______ _______ _____ _____    ______ ____
ROOT
ATOM      1  O   UNL     1       0.174  -1.585   0.000  0.00  0.00    +0.000 OA
ATOM      2  N   UNL     1       0.174  -0.156   0.000  0.00  0.00    +0.000 NA
ATOM      3  C   UNL     1       0.587  -0.871   0.000  0.00  0.00    +0.000 C 
ENDROOT
BRANCH   3   6
ATOM      4  S   UNL     1       2.682  -0.458   0.000  0.00  0.00    +0.000 S 
ATOM      5  N   UNL     1       1.897  -1.538   0.000  0.00  0.00    +0.000 NA
ATOM      6  C   UNL     1       1.412  -0.871   0.000  0.00  0.00    +0.000 A 
ATOM      7  C   UNL     1       2.682  -1.283   0.000  0.00  0.00    +0.000 A 
ATOM      8  C   UNL     1       1.897  -0.203   0.000  0.00  0.00    +0.000 A 
BRANCH   7  11
ATOM      9  S   UNL     1       4.619  -2.181   0.000  0.00  0.00    +0.000 S 
ATOM     10  N   UNL     1       3.349  -2.593   0.000  0.00  0.00    +0.000 NA
ATOM     11  C   UNL     1       3.349  -1.768   0.000  0.00  0.00    +0.000 A 
ATOM     12  C   UNL     1       4.134  -1.513   0.000  0.00  0.00    +0.000 A 
ATOM     13  C   UNL     1       4.134  -2.848   0.000  0.00  0.00    +0.000 A 
ENDBRANCH   7  11
ENDBRANCH   3   6
BRANCH   2  14
ATOM     14  C   UNL     1      -0.650  -0.156   0.000  0.00  0.00    +0.000 C 
BRANCH  14  15
ATOM     15  C   UNL     1      -1.063   0.558   0.000  0.00  0.00    +0.000 C 
BRANCH  15  16
ATOM     16  C   UNL     1      -1.888   0.558   0.000  0.00  0.00    +0.000 C 
BRANCH  16  17
ATOM     17  C   UNL     1      -2.300   1.273   0.000  0.00  0.00    +0.000 C 
BRANCH  17  18
ATOM     18  N   UNL     1      -3.126   1.273   0.000  0.00  0.00    +0.000 NA
ATOM     19  N   UNL     1      -4.363   1.987   0.000  0.00  0.00    +0.000 NA
ATOM     20  N   UNL     1      -3.126   2.702   0.000  0.00  0.00    +0.000 NA
ATOM     21  C   UNL     1      -3.538   1.987   0.000  0.00  0.00    +0.000 C 
ENDBRANCH  17  18
ENDBRANCH  16  17
ENDBRANCH  15  16
ENDBRANCH  14  15
ENDBRANCH   2  14
TORSDOF 7
