REMARK  Name = 
REMARK  6 active torsions:
REMARK  status: ('A' for Active; 'I' for Inactive)
REMARK    1  A    between atoms: O_9  and  C_44
REMARK    2  A    between atoms: O_10  and  C_50
REMARK    3  A    between atoms: O_10  and  C_62
REMARK    4  A    between atoms: N_16  and  C_36
REMARK    5  A    between atoms: N_17  and  C_53
REMARK    6  A    between atoms: C_53  and  C_61
REMARK                            x       y       z     vdW  Elec       q    Type
REMARK                         _______ _______ _______ _____ _____    ______ ____
ROOT
ATOM      1  O   UNL     1      -3.565  -0.668   0.000  0.00  0.00    +0.000 OA
ATOM      2  O   UNL     1       0.731  -0.680   0.000  0.00  0.00    +0.000 OA
ATOM      3  O   UNL     1      -4.971  -1.491   0.000  0.00  0.00    +0.000 OA
ATOM      4  O   UNL     1      -1.440  -1.891   0.000  0.00  0.00    +0.000 OA
ATOM      5  O   UNL     1      -2.126   1.811   0.000  0.00  0.00    +0.000 OA
ATOM      6  O   UNL     1      -0.720   1.811   0.000  0.00  0.00    +0.000 OA
ATOM      7  O   UNL     1      -0.720  -3.160   0.000  0.00  0.00    +0.000 OA
ATOM      8  O   UNL     1       0.023   2.394   0.000  0.00  0.00    +0.000 OA
ATOM      9  O   UNL     1      -3.565   3.674   0.000  0.00  0.00    +0.000 OA
ATOM     10  O   UNL     1      -1.417   2.428   0.000  0.00  0.00    +0.000 OA
ATOM     11  N   UNL     1      -0.731  -1.491   0.000  0.00  0.00    +0.000 NA
ATOM     12  N   UNL     1       0.731   0.989   0.000  0.00  0.00    +0.000 NA
ATOM     13  C   UNL     1      -1.417  -0.257   0.000  0.00  0.00    +0.000 A 
ATOM     14  C   UNL     1      -2.126  -0.668   0.000  0.00  0.00    +0.000 A 
ATOM     15  C   UNL     1      -1.417   0.577   0.000  0.00  0.00    +0.000 A 
ATOM     16  C   UNL     1      -2.868  -0.257   0.000  0.00  0.00    +0.000 A 
ATOM     17  C   UNL     1      -0.720  -0.668   0.000  0.00  0.00    +0.000 A 
ATOM     18  C   UNL     1      -2.126  -1.491   0.000  0.00  0.00    +0.000 C 
ATOM     19  C   UNL     1      -3.565  -1.491   0.000  0.00  0.00    +0.000 C 
ATOM     20  C   UNL     1       0.023  -0.257   0.000  0.00  0.00    +0.000 A 
ATOM     21  C   UNL     1      -2.126   0.989   0.000  0.00  0.00    +0.000 A 
ATOM     22  C   UNL     1      -2.868   0.577   0.000  0.00  0.00    +0.000 A 
ATOM     23  C   UNL     1      -0.720   0.989   0.000  0.00  0.00    +0.000 A 
ATOM     24  C   UNL     1       0.023   0.577   0.000  0.00  0.00    +0.000 A 
ATOM     25  C   UNL     1      -0.023  -1.914   0.000  0.00  0.00    +0.000 A 
ATOM     26  C   UNL     1       0.720  -1.503   0.000  0.00  0.00    +0.000 A 
ATOM     27  C   UNL     1      -3.565  -2.314   0.000  0.00  0.00    +0.000 C 
ATOM     28  C   UNL     1       0.000  -2.737   0.000  0.00  0.00    +0.000 A 
ATOM     29  C   UNL     1      -2.868   1.400   0.000  0.00  0.00    +0.000 C 
ATOM     30  C   UNL     1       1.428  -1.925   0.000  0.00  0.00    +0.000 A 
ATOM     31  C   UNL     1       1.417  -2.748   0.000  0.00  0.00    +0.000 A 
ATOM     32  C   UNL     1       0.731   1.971   0.000  0.00  0.00    +0.000 C 
ATOM     33  C   UNL     1       0.674  -3.160   0.000  0.00  0.00    +0.000 A 
ATOM     34  C   UNL     1      -4.971  -0.668   0.000  0.00  0.00    +0.000 C 
ATOM     35  C   UNL     1       1.428   2.394   0.000  0.00  0.00    +0.000 C 
ATOM     36  C   UNL     1      -4.274  -0.257   0.000  0.00  0.00    +0.000 C 
ATOM     37  C   UNL     1      -4.274   0.577   0.000  0.00  0.00    +0.000 C 
ATOM     38  C   UNL     1       1.428   3.251   0.000  0.00  0.00    +0.000 C 
ATOM     39  C   UNL     1       2.126   1.971   0.000  0.00  0.00    +0.000 C 
ATOM     40  C   UNL     1      -3.565   0.989   0.000  0.00  0.00    +0.000 C 
ATOM     41  C   UNL     1      -3.565   1.971   0.000  0.00  0.00    +0.000 C 
ATOM     42  C   UNL     1       0.731   3.674   0.000  0.00  0.00    +0.000 C 
ATOM     43  C   UNL     1      -2.868   2.394   0.000  0.00  0.00    +0.000 C 
ATOM     44  C   UNL     1      -4.274   1.560   0.000  0.00  0.00    +0.000 C 
ATOM     45  C   UNL     1      -0.011   3.251   0.000  0.00  0.00    +0.000 C 
ATOM     46  C   UNL     1      -2.868   3.251   0.000  0.00  0.00    +0.000 C 
ATOM     47  C   UNL     1      -2.160   3.674   0.000  0.00  0.00    +0.000 C 
ATOM     48  C   UNL     1      -0.720   3.674   0.000  0.00  0.00    +0.000 C 
ATOM     49  C   UNL     1      -1.417   3.251   0.000  0.00  0.00    +0.000 C 
ATOM     50  C   UNL     1      -3.565   3.045   0.000  0.00  0.00    +0.000 C 
ATOM     51  C   UNL     1      -2.160   4.497   0.000  0.00  0.00    +0.000 C 
ATOM     52  C   UNL     1      -0.720   4.497   0.000  0.00  0.00    +0.000 C 
ENDROOT
BRANCH  31  53
ATOM     53  N   UNL     1       2.137  -3.183   0.000  0.00  0.00    +0.000 N 
ATOM     54  N   UNL     1       3.554  -4.028   0.000  0.00  0.00    +0.000 NA
ATOM     55  C   UNL     1       2.126  -4.005   0.000  0.00  0.00    +0.000 C 
ATOM     56  C   UNL     1       2.857  -2.783   0.000  0.00  0.00    +0.000 C 
ATOM     57  C   UNL     1       2.834  -4.428   0.000  0.00  0.00    +0.000 C 
ATOM     58  C   UNL     1       3.565  -3.217   0.000  0.00  0.00    +0.000 C 
BRANCH  54  59
ATOM     59  C   UNL     1       4.285  -4.474   0.000  0.00  0.00    +0.000 C 
BRANCH  59  60
ATOM     60  C   UNL     1       5.005  -4.074   0.000  0.00  0.00    +0.000 C 
ATOM     61  C   UNL     1       5.714  -4.497   0.000  0.00  0.00    +0.000 C 
ATOM     62  C   UNL     1       5.017  -3.228   0.000  0.00  0.00    +0.000 C 
ENDBRANCH  59  60
ENDBRANCH  54  59
ENDBRANCH  31  53
BRANCH  37  63
ATOM     63  O   UNL     1      -4.971   0.989   0.000  0.00  0.00    +0.000 OA
ATOM     64  C   UNL     1      -5.668   0.577   0.000  0.00  0.00    +0.000 C 
ENDBRANCH  37  63
BRANCH  41  65
ATOM     65  O   UNL     1      -4.274   2.394   0.000  0.00  0.00    +0.000 OA
BRANCH  65  67
ATOM     66  O   UNL     1      -5.017   3.628   0.000  0.00  0.00    +0.000 OA
ATOM     67  C   UNL     1      -5.017   2.805   0.000  0.00  0.00    +0.000 C 
ATOM     68  C   UNL     1      -5.714   2.394   0.000  0.00  0.00    +0.000 C 
ENDBRANCH  65  67
ENDBRANCH  41  65
TORSDOF 6
