REMARK  Name = 
REMARK  8 active torsions:
REMARK  status: ('A' for Active; 'I' for Inactive)
REMARK    1  A    between atoms: N_2  and  C_4
REMARK    2  A    between atoms: C_5  and  C_33
REMARK    3  A    between atoms: C_8  and  C_10
REMARK    4  A    between atoms: C_10  and  C_11
REMARK    5  A    between atoms: C_14  and  N_17
REMARK    6  A    between atoms: C_18  and  C_20
REMARK    7  A    between atoms: C_23  and  C_26
REMARK    8  A    between atoms: C_33  and  C_34
REMARK                            x       y       z     vdW  Elec       q    Type
REMARK                         _______ _______ _______ _____ _____    ______ ____
ROOT
ATOM      1  C   UNL     1      -2.858  -7.425   0.000  0.00  0.00    +0.000 A 
ATOM      2  C   UNL     1      -2.143  -7.838   0.000  0.00  0.00    +0.000 A 
ATOM      3  C   UNL     1      -2.143  -8.662   0.000  0.00  0.00    +0.000 A 
ATOM      4  C   UNL     1      -2.858  -9.075   0.000  0.00  0.00    +0.000 A 
ATOM      5  C   UNL     1      -3.572  -8.662   0.000  0.00  0.00    +0.000 A 
ATOM      6  C   UNL     1      -3.572  -7.838   0.000  0.00  0.00    +0.000 A 
ENDROOT
BRANCH   4   7
ATOM      7  N   UNL     1      -2.858  -9.900   0.000  0.00  0.00    +0.000 NA
ATOM      8  C   UNL     1      -3.572 -10.312   0.000  0.00  0.00    +0.000 C 
ATOM      9  O   UNL     1      -4.287  -9.900   0.000  0.00  0.00    +0.000 OA
BRANCH   8  10
ATOM     10  C   UNL     1      -3.572 -11.137   0.000  0.00  0.00    +0.000 A 
ATOM     11  C   UNL     1      -2.858 -11.550   0.000  0.00  0.00    +0.000 A 
ATOM     12  C   UNL     1      -2.858 -12.375   0.000  0.00  0.00    +0.000 A 
ATOM     13  C   UNL     1      -3.572 -12.787   0.000  0.00  0.00    +0.000 A 
ATOM     14  C   UNL     1      -4.287 -12.375   0.000  0.00  0.00    +0.000 A 
ATOM     15  C   UNL     1      -4.287 -11.550   0.000  0.00  0.00    +0.000 A 
BRANCH  13  16
ATOM     16  C   UNL     1      -3.572 -13.613   0.000  0.00  0.00    +0.000 C 
ATOM     17  F   UNL     1      -3.572 -14.438   0.000  0.00  0.00    +0.000 F 
ATOM     18  F   UNL     1      -2.747 -13.613   0.000  0.00  0.00    +0.000 F 
ATOM     19  F   UNL     1      -4.397 -13.613   0.000  0.00  0.00    +0.000 F 
ENDBRANCH  13  16
ENDBRANCH   8  10
ENDBRANCH   4   7
BRANCH   1  20
ATOM     20  C   UNL     1      -2.858  -6.600   0.000  0.00  0.00    +0.000 C 
BRANCH  20  25
ATOM     21  C   UNL     1      -1.429  -4.950   0.000  0.00  0.00    +0.000 A 
ATOM     22  C   UNL     1      -0.715  -5.362   0.000  0.00  0.00    +0.000 A 
ATOM     23  C   UNL     1      -0.715  -6.188   0.000  0.00  0.00    +0.000 A 
ATOM     24  N   UNL     1      -1.429  -6.600   0.000  0.00  0.00    +0.000 NA
ATOM     25  C   UNL     1      -2.143  -6.188   0.000  0.00  0.00    +0.000 A 
ATOM     26  N   UNL     1      -2.143  -5.362   0.000  0.00  0.00    +0.000 NA
ATOM     27  N   UNL     1       0.000  -6.600   0.000  0.00  0.00    +0.000 N 
ATOM     28  C   UNL     1       0.000  -7.425   0.000  0.00  0.00    +0.000 C 
ATOM     29  C   UNL     1       0.715  -6.188   0.000  0.00  0.00    +0.000 C 
BRANCH  21  31
ATOM     30  C   UNL     1      -2.143  -3.712   0.000  0.00  0.00    +0.000 C 
ATOM     31  N   UNL     1      -1.429  -4.125   0.000  0.00  0.00    +0.000 N 
ATOM     32  C   UNL     1      -0.715  -3.712   0.000  0.00  0.00    +0.000 C 
ENDBRANCH  21  31
BRANCH  22  33
ATOM     33  C   UNL     1       0.000  -4.950   0.000  0.00  0.00    +0.000 C 
BRANCH  33  34
ATOM     34  C   UNL     1       0.000  -4.125   0.000  0.00  0.00    +0.000 C 
ATOM     35  O   UNL     1      -0.336  -3.371   0.000  0.00  0.00    +0.000 OA
ATOM     36  O   UNL     1       0.715  -3.712   0.000  0.00  0.00    +0.000 OA
ENDBRANCH  33  34
ENDBRANCH  22  33
ENDBRANCH  20  25
ENDBRANCH   1  20
TORSDOF 8
