REMARK  Name = 
REMARK  5 active torsions:
REMARK  status: ('A' for Active; 'I' for Inactive)
REMARK    1  A    between atoms: N_6  and  C_10
REMARK    2  A    between atoms: C_10  and  C_11
REMARK    3  A    between atoms: C_11  and  C_12
REMARK    4  A    between atoms: C_12  and  C_13
REMARK    5  A    between atoms: C_13  and  N_14
REMARK                            x       y       z     vdW  Elec       q    Type
REMARK                         _______ _______ _______ _____ _____    ______ ____
ROOT
ATOM      1  C   UNL     1       2.143  -5.362   0.000  0.00  0.00    +0.000 C 
ENDROOT
BRANCH   1   2
ATOM      2  C   UNL     1       1.429  -4.950   0.000  0.00  0.00    +0.000 C 
BRANCH   2   3
ATOM      3  C   UNL     1       0.715  -5.362   0.000  0.00  0.00    +0.000 C 
BRANCH   3   9
ATOM      4  C   UNL     1      -2.241  -4.268   0.000  0.00  0.00    +0.000 C 
ATOM      5  C   UNL     1      -1.429  -4.125   0.000  0.00  0.00    +0.000 C 
ATOM      6  C   UNL     1      -0.715  -3.712   0.000  0.00  0.00    +0.000 C 
ATOM      7  C   UNL     1       0.000  -4.125   0.000  0.00  0.00    +0.000 C 
ATOM      8  O   UNL     1       0.715  -3.712   0.000  0.00  0.00    +0.000 OA
ATOM      9  N   UNL     1       0.000  -4.950   0.000  0.00  0.00    +0.000 N 
ATOM     10  C   UNL     1      -0.715  -5.362   0.000  0.00  0.00    +0.000 C 
ATOM     11  O   UNL     1      -0.715  -6.188   0.000  0.00  0.00    +0.000 OA
ATOM     12  C   UNL     1      -1.429  -4.950   0.000  0.00  0.00    +0.000 C 
ATOM     13  C   UNL     1      -1.711  -3.350   0.000  0.00  0.00    +0.000 C 
ENDBRANCH   3   9
ENDBRANCH   2   3
ENDBRANCH   1   2
BRANCH   1  14
ATOM     14  C   UNL     1       2.858  -4.950   0.000  0.00  0.00    +0.000 C 
BRANCH  14  15
ATOM     15  N   UNL     1       3.572  -5.362   0.000  0.00  0.00    +0.000 NA
ATOM     16  C   UNL     1       4.287  -4.950   0.000  0.00  0.00    +0.000 C 
ATOM     17  C   UNL     1       5.001  -5.362   0.000  0.00  0.00    +0.000 C 
ATOM     18  N   UNL     1       5.001  -6.188   0.000  0.00  0.00    +0.000 N 
ATOM     19  C   UNL     1       4.287  -6.600   0.000  0.00  0.00    +0.000 C 
ATOM     20  C   UNL     1       3.572  -6.188   0.000  0.00  0.00    +0.000 C 
ATOM     21  C   UNL     1       5.716  -6.600   0.000  0.00  0.00    +0.000 A 
ATOM     22  N   UNL     1       6.430  -6.188   0.000  0.00  0.00    +0.000 NA
ATOM     23  C   UNL     1       7.145  -6.600   0.000  0.00  0.00    +0.000 A 
ATOM     24  C   UNL     1       7.145  -7.425   0.000  0.00  0.00    +0.000 A 
ATOM     25  C   UNL     1       6.430  -7.838   0.000  0.00  0.00    +0.000 A 
ATOM     26  N   UNL     1       5.716  -7.425   0.000  0.00  0.00    +0.000 NA
ENDBRANCH  14  15
ENDBRANCH   1  14
TORSDOF 5
