REMARK  Name = 
REMARK  9 active torsions:
REMARK  status: ('A' for Active; 'I' for Inactive)
REMARK    1  A    between atoms: C_7  and  C_8
REMARK    2  A    between atoms: C_8  and  N_9
REMARK    3  A    between atoms: C_10  and  C_12
REMARK    4  A    between atoms: C_19  and  C_21
REMARK    5  A    between atoms: C_21  and  C_23
REMARK    6  A    between atoms: C_23  and  C_24
REMARK    7  A    between atoms: C_23  and  N_31
REMARK    8  A    between atoms: C_24  and  C_25
REMARK    9  A    between atoms: C_32  and  C_34
REMARK                            x       y       z     vdW  Elec       q    Type
REMARK                         _______ _______ _______ _____ _____    ______ ____
ROOT
ATOM      1  C   UNL     1       0.689  -0.729   0.000  0.00  0.00    +0.000 C 
ATOM      2  O   UNL     1       0.689  -1.554   0.000  0.00  0.00    +0.000 OA
ENDROOT
BRANCH   1  10
ATOM      3  C   UNL     1      -1.494  -0.394   0.000  0.00  0.00    +0.000 C 
ATOM      4  N   UNL     1      -0.740  -0.729   0.000  0.00  0.00    +0.000 N 
ATOM      5  C   UNL     1      -0.827  -1.550   0.000  0.00  0.00    +0.000 C 
ATOM      6  S   UNL     1      -1.633  -1.721   0.000  0.00  0.00    +0.000 S 
ATOM      7  C   UNL     1      -2.046  -1.007   0.000  0.00  0.00    +0.000 C 
ATOM      8  C   UNL     1      -2.803  -1.335   0.000  0.00  0.00    +0.000 C 
ATOM      9  C   UNL     1      -2.718  -0.529   0.000  0.00  0.00    +0.000 C 
ATOM     10  C   UNL     1      -0.026  -0.317   0.000  0.00  0.00    +0.000 C 
ATOM     11  O   UNL     1      -0.511   0.350   0.000  0.00  0.00    +0.000 OA
BRANCH   3  13
ATOM     12  N   UNL     1      -2.450   0.668   0.000  0.00  0.00    +0.000 NA
ATOM     13  C   UNL     1      -1.665   0.413   0.000  0.00  0.00    +0.000 C 
ATOM     14  O   UNL     1      -1.052   0.965   0.000  0.00  0.00    +0.000 OA
BRANCH  12  15
ATOM     15  C   UNL     1      -2.622   1.475   0.000  0.00  0.00    +0.000 C 
BRANCH  15  22
ATOM     16  C   UNL     1      -3.848   0.371   0.000  0.00  0.00    +0.000 C 
ATOM     17  C   UNL     1      -4.019   1.178   0.000  0.00  0.00    +0.000 A 
ATOM     18  C   UNL     1      -4.804   1.433   0.000  0.00  0.00    +0.000 A 
ATOM     19  C   UNL     1      -4.975   2.240   0.000  0.00  0.00    +0.000 A 
ATOM     20  C   UNL     1      -4.362   2.792   0.000  0.00  0.00    +0.000 A 
ATOM     21  C   UNL     1      -3.578   2.537   0.000  0.00  0.00    +0.000 A 
ATOM     22  C   UNL     1      -3.406   1.730   0.000  0.00  0.00    +0.000 A 
ENDBRANCH  15  22
ENDBRANCH  12  15
ENDBRANCH   3  13
ENDBRANCH   1  10
BRANCH   1  23
ATOM     23  C   UNL     1       1.403  -0.317   0.000  0.00  0.00    +0.000 C 
BRANCH  23  24
ATOM     24  N   UNL     1       2.118  -0.729   0.000  0.00  0.00    +0.000 NA
ATOM     25  C   UNL     1       2.832  -0.317   0.000  0.00  0.00    +0.000 C 
ATOM     26  O   UNL     1       2.832   0.508   0.000  0.00  0.00    +0.000 OA
BRANCH  25  27
ATOM     27  C   UNL     1       3.546  -0.729   0.000  0.00  0.00    +0.000 A 
ATOM     28  C   UNL     1       4.261  -0.317   0.000  0.00  0.00    +0.000 A 
ATOM     29  C   UNL     1       4.975  -0.729   0.000  0.00  0.00    +0.000 A 
ATOM     30  C   UNL     1       4.975  -1.554   0.000  0.00  0.00    +0.000 A 
ATOM     31  C   UNL     1       4.261  -1.967   0.000  0.00  0.00    +0.000 A 
ATOM     32  O   UNL     1       4.261  -2.792   0.000  0.00  0.00    +0.000 OA
ATOM     33  C   UNL     1       3.546  -1.554   0.000  0.00  0.00    +0.000 A 
ATOM     34  C   UNL     1       2.832  -1.967   0.000  0.00  0.00    +0.000 C 
ENDBRANCH  25  27
ENDBRANCH  23  24
BRANCH  23  35
ATOM     35  C   UNL     1       1.403   0.508   0.000  0.00  0.00    +0.000 C 
BRANCH  35  36
ATOM     36  C   UNL     1       0.689   0.921   0.000  0.00  0.00    +0.000 A 
ATOM     37  C   UNL     1      -0.026   0.508   0.000  0.00  0.00    +0.000 A 
ATOM     38  C   UNL     1      -0.740   0.921   0.000  0.00  0.00    +0.000 A 
ATOM     39  C   UNL     1      -0.740   1.746   0.000  0.00  0.00    +0.000 A 
ATOM     40  C   UNL     1      -0.026   2.158   0.000  0.00  0.00    +0.000 A 
ATOM     41  C   UNL     1       0.689   1.746   0.000  0.00  0.00    +0.000 A 
ENDBRANCH  35  36
ENDBRANCH  23  35
ENDBRANCH   1  23
TORSDOF 9
