REMARK  Name = 
REMARK  6 active torsions:
REMARK  status: ('A' for Active; 'I' for Inactive)
REMARK    1  A    between atoms: C_2  and  N_3
REMARK    2  A    between atoms: C_2  and  N_29
REMARK    3  A    between atoms: N_3  and  C_4
REMARK    4  A    between atoms: C_6  and  C_7
REMARK    5  A    between atoms: C_12  and  C_13
REMARK    6  A    between atoms: N_29  and  C_30
REMARK                            x       y       z     vdW  Elec       q    Type
REMARK                         _______ _______ _______ _____ _____    ______ ____
ROOT
ATOM      1  C   UNL     1      -0.058   0.418   0.000  0.00  0.00    +0.000 A 
ATOM      2  C   UNL     1      -0.775   0.010   0.000  0.00  0.00    +0.000 A 
ATOM      3  C   UNL     1      -0.781  -0.815   0.000  0.00  0.00    +0.000 A 
ATOM      4  C   UNL     1       0.653   0.000   0.000  0.00  0.00    +0.000 A 
ATOM      5  C   UNL     1       0.648  -0.825   0.000  0.00  0.00    +0.000 A 
ATOM      6  C   UNL     1      -0.070  -1.232   0.000  0.00  0.00    +0.000 A 
ENDROOT
BRANCH   6   7
ATOM      7  C   UNL     1      -0.072  -2.058   0.000  0.00  0.00    +0.000 A 
ATOM      8  C   UNL     1      -0.786  -2.470   0.000  0.00  0.00    +0.000 A 
ATOM      9  C   UNL     1      -0.786  -3.295   0.000  0.00  0.00    +0.000 A 
ATOM     10  O   UNL     1      -0.072  -3.708   0.000  0.00  0.00    +0.000 OA
ATOM     11  C   UNL     1      -1.501  -3.708   0.000  0.00  0.00    +0.000 A 
ATOM     12  C   UNL     1      -1.501  -2.058   0.000  0.00  0.00    +0.000 A 
ATOM     13  C   UNL     1      -2.215  -2.470   0.000  0.00  0.00    +0.000 A 
ATOM     14  C   UNL     1      -2.215  -3.295   0.000  0.00  0.00    +0.000 A 
ATOM     15  O   UNL     1      -2.787  -3.625   0.000  0.00  0.00    +0.000 OA
ATOM     16  C   UNL     1       0.632  -2.470   0.000  0.00  0.00    +0.000 A 
ATOM     17  C   UNL     1       0.632  -3.295   0.000  0.00  0.00    +0.000 A 
ATOM     18  C   UNL     1       1.357  -3.708   0.000  0.00  0.00    +0.000 A 
ATOM     19  C   UNL     1       1.357  -2.058   0.000  0.00  0.00    +0.000 A 
ATOM     20  C   UNL     1       2.071  -2.470   0.000  0.00  0.00    +0.000 A 
ATOM     21  C   UNL     1       2.071  -3.295   0.000  0.00  0.00    +0.000 A 
ATOM     22  O   UNL     1       2.787  -3.706   0.000  0.00  0.00    +0.000 OA
ENDBRANCH   6   7
BRANCH   3  23
ATOM     23  C   UNL     1      -1.595  -0.954   0.000  0.00  0.00    +0.000 C 
ATOM     24  O   UNL     1      -2.123  -0.320   0.000  0.00  0.00    +0.000 OA
ATOM     25  O   UNL     1      -1.823  -1.573   0.000  0.00  0.00    +0.000 OA
ENDBRANCH   3  23
BRANCH   1  26
ATOM     26  N   UNL     1      -0.051   1.243   0.000  0.00  0.00    +0.000 N 
ATOM     27  H   UNL     1      -0.525   1.522   0.000  0.00  0.00    +0.000 HD
BRANCH  26  29
ATOM     28  S   UNL     1       1.236   1.315   0.000  0.00  0.00    +0.000 S 
ATOM     29  C   UNL     1       0.667   1.650   0.000  0.00  0.00    +0.000 C 
BRANCH  29  30
ATOM     30  N   UNL     1       0.675   2.475   0.000  0.00  0.00    +0.000 N 
ATOM     31  H   UNL     1       0.201   2.755   0.000  0.00  0.00    +0.000 HD
BRANCH  30  32
ATOM     32  C   UNL     1       1.393   2.882   0.000  0.00  0.00    +0.000 C 
ATOM     33  C   UNL     1       1.401   3.708   0.000  0.00  0.00    +0.000 C 
ENDBRANCH  30  32
ENDBRANCH  29  30
ENDBRANCH  26  29
ENDBRANCH   1  26
TORSDOF 6
