REMARK  Name = 
REMARK  7 active torsions:
REMARK  status: ('A' for Active; 'I' for Inactive)
REMARK    1  A    between atoms: C_2  and  C_3
REMARK    2  A    between atoms: C_2  and  C_7
REMARK    3  A    between atoms: C_2  and  O_11
REMARK    4  A    between atoms: O_11  and  C_12
REMARK    5  A    between atoms: C_12  and  C_14
REMARK    6  A    between atoms: C_17  and  C_20
REMARK    7  A    between atoms: C_20  and  C_21
REMARK                            x       y       z     vdW  Elec       q    Type
REMARK                         _______ _______ _______ _____ _____    ______ ____
ROOT
ATOM      1  C   UNL     1      -2.143  -1.238   0.000  0.00  0.00    +0.000 A 
ATOM      2  C   UNL     1      -2.143  -0.412   0.000  0.00  0.00    +0.000 A 
ATOM      3  C   UNL     1      -1.429   0.000   0.000  0.00  0.00    +0.000 A 
ATOM      4  C   UNL     1      -0.715  -0.412   0.000  0.00  0.00    +0.000 A 
ATOM      5  C   UNL     1      -0.715  -1.238   0.000  0.00  0.00    +0.000 A 
ATOM      6  C   UNL     1      -1.429  -1.650   0.000  0.00  0.00    +0.000 A 
ENDROOT
BRANCH   1   7
ATOM      7  C   UNL     1      -2.858  -1.650   0.000  0.00  0.00    +0.000 C 
ATOM      8  O   UNL     1      -2.858  -2.475   0.000  0.00  0.00    +0.000 OA
BRANCH   7   9
ATOM      9  O   UNL     1      -3.572  -1.238   0.000  0.00  0.00    +0.000 OA
BRANCH   9  11
ATOM     10  C   UNL     1      -3.874  -2.365   0.000  0.00  0.00    +0.000 C 
ATOM     11  C   UNL     1      -4.287  -1.650   0.000  0.00  0.00    +0.000 C 
BRANCH  11  12
ATOM     12  C   UNL     1      -4.699  -0.935   0.000  0.00  0.00    +0.000 C 
ATOM     13  F   UNL     1      -5.112  -0.221   0.000  0.00  0.00    +0.000 F 
ATOM     14  F   UNL     1      -5.414  -1.348   0.000  0.00  0.00    +0.000 F 
ATOM     15  F   UNL     1      -3.985  -0.523   0.000  0.00  0.00    +0.000 F 
ENDBRANCH  11  12
BRANCH  11  16
ATOM     16  C   UNL     1      -5.001  -2.062   0.000  0.00  0.00    +0.000 C 
ATOM     17  F   UNL     1      -5.716  -2.475   0.000  0.00  0.00    +0.000 F 
ATOM     18  F   UNL     1      -5.755  -1.727   0.000  0.00  0.00    +0.000 F 
ATOM     19  F   UNL     1      -4.589  -2.777   0.000  0.00  0.00    +0.000 F 
ENDBRANCH  11  16
ENDBRANCH   9  11
ENDBRANCH   7   9
ENDBRANCH   1   7
BRANCH   4  20
ATOM     20  C   UNL     1       0.000   0.000   0.000  0.00  0.00    +0.000 C 
BRANCH  20  21
ATOM     21  C   UNL     1       0.715  -0.412   0.000  0.00  0.00    +0.000 A 
ATOM     22  C   UNL     1       1.429   0.000   0.000  0.00  0.00    +0.000 A 
ATOM     23  C   UNL     1       2.143  -0.412   0.000  0.00  0.00    +0.000 A 
ATOM     24  C   UNL     1       2.858   0.000   0.000  0.00  0.00    +0.000 A 
ATOM     25  C   UNL     1       3.572  -0.412   0.000  0.00  0.00    +0.000 A 
ATOM     26  C   UNL     1       3.572  -1.238   0.000  0.00  0.00    +0.000 A 
ATOM     27  C   UNL     1       2.858  -1.650   0.000  0.00  0.00    +0.000 A 
ATOM     28  C   UNL     1       2.143  -1.238   0.000  0.00  0.00    +0.000 A 
ATOM     29  O   UNL     1       1.429  -1.650   0.000  0.00  0.00    +0.000 OA
ATOM     30  C   UNL     1       0.715  -1.238   0.000  0.00  0.00    +0.000 A 
ATOM     31  O   UNL     1       0.000  -1.650   0.000  0.00  0.00    +0.000 OA
ATOM     32  O   UNL     1       1.429   0.825   0.000  0.00  0.00    +0.000 OA
ENDBRANCH  20  21
ENDBRANCH   4  20
TORSDOF 7
