REMARK  Name = 
REMARK  2 active torsions:
REMARK  status: ('A' for Active; 'I' for Inactive)
REMARK    1  A    between atoms: C_7  and  N_11
REMARK    2  A    between atoms: N_20  and  C_23
REMARK                            x       y       z     vdW  Elec       q    Type
REMARK                         _______ _______ _______ _____ _____    ______ ____
ROOT
ATOM      1  N   UNL     1      -0.558  -0.330   0.000  0.00  0.00    +0.000 NA
ATOM      2  C   UNL     1       0.137   0.114   0.000  0.00  0.00    +0.000 A 
ATOM      3  C   UNL     1       0.793   1.381   0.000  0.00  0.00    +0.000 A 
ATOM      4  N   UNL     1       0.099   0.939   0.000  0.00  0.00    +0.000 NA
ATOM      5  C   UNL     1       1.525   1.001   0.000  0.00  0.00    +0.000 A 
ATOM      6  N   UNL     1       0.872  -0.267   0.000  0.00  0.00    +0.000 NA
ATOM      7  C   UNL     1       1.564   0.181   0.000  0.00  0.00    +0.000 A 
ATOM      8  N   UNL     1       2.279   1.337   0.000  0.00  0.00    +0.000 N 
ATOM      9  C   UNL     1       2.861   0.754   0.000  0.00  0.00    +0.000 A 
ATOM     10  N   UNL     1       2.418   0.010   0.000  0.00  0.00    +0.000 N 
ATOM     11  C   UNL     1       2.492   2.134   0.000  0.00  0.00    +0.000 C 
ATOM     12  O   UNL     1       3.686   0.754   0.000  0.00  0.00    +0.000 OA
ENDROOT
BRANCH   1  19
ATOM     13  C   UNL     1      -2.791   0.908   0.000  0.00  0.00    +0.000 A 
ATOM     14  N   UNL     1      -2.789   0.083   0.000  0.00  0.00    +0.000 N 
ATOM     15  N   UNL     1      -3.558  -0.213   0.000  0.00  0.00    +0.000 NA
ATOM     16  C   UNL     1      -4.068   0.487   0.000  0.00  0.00    +0.000 A 
ATOM     17  N   UNL     1      -3.544   1.136   0.000  0.00  0.00    +0.000 NA
ATOM     18  C   UNL     1      -2.075  -0.328   0.000  0.00  0.00    +0.000 A 
ATOM     19  C   UNL     1      -1.361   0.086   0.000  0.00  0.00    +0.000 A 
ATOM     20  C   UNL     1      -1.363   0.910   0.000  0.00  0.00    +0.000 A 
ATOM     21  C   UNL     1      -2.078   1.321   0.000  0.00  0.00    +0.000 A 
ATOM     22  C   UNL     1      -0.648   1.323   0.000  0.00  0.00    +0.000 C 
ENDBRANCH   1  19
BRANCH  10  23
ATOM     23  C   UNL     1       2.831  -0.705   0.000  0.00  0.00    +0.000 C 
ATOM     24  C   UNL     1       2.418  -1.419   0.000  0.00  0.00    +0.000 C 
ATOM     25  C   UNL     1       2.831  -2.134   0.000  0.00  0.00    +0.000 C 
ATOM     26  O   UNL     1       3.656  -2.134   0.000  0.00  0.00    +0.000 OA
ATOM     27  C   UNL     1       4.068  -1.419   0.000  0.00  0.00    +0.000 C 
ATOM     28  C   UNL     1       3.656  -0.705   0.000  0.00  0.00    +0.000 C 
ENDBRANCH  10  23
TORSDOF 2
