REMARK  Name = 
REMARK  18 active torsions:
REMARK  status: ('A' for Active; 'I' for Inactive)
REMARK    1  A    between atoms: C_1  and  O_11
REMARK    2  A    between atoms: C_2  and  O_9
REMARK    3  A    between atoms: C_3  and  O_10
REMARK    4  A    between atoms: C_4  and  O_12
REMARK    5  A    between atoms: C_5  and  O_7
REMARK    6  A    between atoms: C_6  and  O_8
REMARK    7  A    between atoms: O_7  and  C_19
REMARK    8  A    between atoms: O_8  and  C_51
REMARK    9  A    between atoms: O_9  and  C_43
REMARK   10  A    between atoms: O_10  and  C_35
REMARK   11  A    between atoms: O_11  and  C_59
REMARK   12  A    between atoms: O_12  and  C_27
REMARK   13  A    between atoms: C_15  and  C_19
REMARK   14  A    between atoms: C_23  and  C_27
REMARK   15  A    between atoms: C_31  and  C_35
REMARK   16  A    between atoms: C_39  and  C_43
REMARK   17  A    between atoms: C_47  and  C_51
REMARK   18  A    between atoms: C_55  and  C_59
REMARK                            x       y       z     vdW  Elec       q    Type
REMARK                         _______ _______ _______ _____ _____    ______ ____
ROOT
ATOM      1  C   UNL     1       0.714  -0.412   0.000  0.00  0.00    +0.000 C 
ATOM      2  C   UNL     1       0.000  -0.825   0.000  0.00  0.00    +0.000 C 
ATOM      3  C   UNL     1      -0.715  -0.412   0.000  0.00  0.00    +0.000 C 
ATOM      4  C   UNL     1      -0.715   0.412   0.000  0.00  0.00    +0.000 C 
ATOM      5  C   UNL     1       0.000   0.825   0.000  0.00  0.00    +0.000 C 
ATOM      6  C   UNL     1       0.714   0.412   0.000  0.00  0.00    +0.000 C 
ENDROOT
BRANCH   4   7
ATOM      7  O   UNL     1      -1.429   0.825   0.000  0.00  0.00    +0.000 OA
BRANCH   7   8
ATOM      8  C   UNL     1      -1.429   1.650   0.000  0.00  0.00    +0.000 C 
ATOM      9  O   UNL     1      -0.715   2.062   0.000  0.00  0.00    +0.000 OA
BRANCH   8  12
ATOM     10  N   UNL     1      -2.858   3.300   0.000  0.00  0.00    +0.000 NA
ATOM     11  C   UNL     1      -2.143   2.888   0.000  0.00  0.00    +0.000 A 
ATOM     12  C   UNL     1      -2.143   2.062   0.000  0.00  0.00    +0.000 A 
ATOM     13  C   UNL     1      -2.858   1.650   0.000  0.00  0.00    +0.000 A 
ATOM     14  C   UNL     1      -3.572   2.062   0.000  0.00  0.00    +0.000 A 
ATOM     15  C   UNL     1      -3.572   2.888   0.000  0.00  0.00    +0.000 A 
ENDBRANCH   8  12
ENDBRANCH   7   8
ENDBRANCH   4   7
BRANCH   3  16
ATOM     16  O   UNL     1      -1.429  -0.825   0.000  0.00  0.00    +0.000 OA
BRANCH  16  17
ATOM     17  C   UNL     1      -2.143  -0.412   0.000  0.00  0.00    +0.000 C 
ATOM     18  O   UNL     1      -2.143   0.412   0.000  0.00  0.00    +0.000 OA
BRANCH  17  21
ATOM     19  N   UNL     1      -4.287  -0.825   0.000  0.00  0.00    +0.000 NA
ATOM     20  C   UNL     1      -3.572  -0.412   0.000  0.00  0.00    +0.000 A 
ATOM     21  C   UNL     1      -2.858  -0.825   0.000  0.00  0.00    +0.000 A 
ATOM     22  C   UNL     1      -2.858  -1.650   0.000  0.00  0.00    +0.000 A 
ATOM     23  C   UNL     1      -3.572  -2.062   0.000  0.00  0.00    +0.000 A 
ATOM     24  C   UNL     1      -4.287  -1.650   0.000  0.00  0.00    +0.000 A 
ENDBRANCH  17  21
ENDBRANCH  16  17
ENDBRANCH   3  16
BRANCH   6  25
ATOM     25  O   UNL     1       1.429   0.825   0.000  0.00  0.00    +0.000 OA
BRANCH  25  26
ATOM     26  C   UNL     1       2.143   0.412   0.000  0.00  0.00    +0.000 C 
ATOM     27  O   UNL     1       2.143  -0.412   0.000  0.00  0.00    +0.000 OA
BRANCH  26  30
ATOM     28  N   UNL     1       4.287   0.825   0.000  0.00  0.00    +0.000 NA
ATOM     29  C   UNL     1       3.572   0.412   0.000  0.00  0.00    +0.000 A 
ATOM     30  C   UNL     1       2.858   0.825   0.000  0.00  0.00    +0.000 A 
ATOM     31  C   UNL     1       2.858   1.650   0.000  0.00  0.00    +0.000 A 
ATOM     32  C   UNL     1       3.572   2.062   0.000  0.00  0.00    +0.000 A 
ATOM     33  C   UNL     1       4.287   1.650   0.000  0.00  0.00    +0.000 A 
ENDBRANCH  26  30
ENDBRANCH  25  26
ENDBRANCH   6  25
BRANCH   1  34
ATOM     34  O   UNL     1       1.429  -0.825   0.000  0.00  0.00    +0.000 OA
BRANCH  34  35
ATOM     35  C   UNL     1       1.429  -1.650   0.000  0.00  0.00    +0.000 C 
ATOM     36  O   UNL     1       0.714  -2.062   0.000  0.00  0.00    +0.000 OA
BRANCH  35  39
ATOM     37  N   UNL     1       2.858  -3.300   0.000  0.00  0.00    +0.000 NA
ATOM     38  C   UNL     1       2.143  -2.888   0.000  0.00  0.00    +0.000 A 
ATOM     39  C   UNL     1       2.143  -2.062   0.000  0.00  0.00    +0.000 A 
ATOM     40  C   UNL     1       2.858  -1.650   0.000  0.00  0.00    +0.000 A 
ATOM     41  C   UNL     1       3.572  -2.062   0.000  0.00  0.00    +0.000 A 
ATOM     42  C   UNL     1       3.572  -2.888   0.000  0.00  0.00    +0.000 A 
ENDBRANCH  35  39
ENDBRANCH  34  35
ENDBRANCH   1  34
BRANCH   5  43
ATOM     43  O   UNL     1       0.000   1.650   0.000  0.00  0.00    +0.000 OA
BRANCH  43  44
ATOM     44  C   UNL     1       0.714   2.062   0.000  0.00  0.00    +0.000 C 
ATOM     45  O   UNL     1       1.429   1.650   0.000  0.00  0.00    +0.000 OA
BRANCH  44  48
ATOM     46  N   UNL     1       1.429   4.125   0.000  0.00  0.00    +0.000 NA
ATOM     47  C   UNL     1       1.429   3.300   0.000  0.00  0.00    +0.000 A 
ATOM     48  C   UNL     1       0.714   2.888   0.000  0.00  0.00    +0.000 A 
ATOM     49  C   UNL     1       0.000   3.300   0.000  0.00  0.00    +0.000 A 
ATOM     50  C   UNL     1       0.000   4.125   0.000  0.00  0.00    +0.000 A 
ATOM     51  C   UNL     1       0.714   4.538   0.000  0.00  0.00    +0.000 A 
ENDBRANCH  44  48
ENDBRANCH  43  44
ENDBRANCH   5  43
BRANCH   2  52
ATOM     52  O   UNL     1       0.000  -1.650   0.000  0.00  0.00    +0.000 OA
BRANCH  52  53
ATOM     53  C   UNL     1      -0.715  -2.062   0.000  0.00  0.00    +0.000 C 
ATOM     54  O   UNL     1      -1.429  -1.650   0.000  0.00  0.00    +0.000 OA
BRANCH  53  57
ATOM     55  N   UNL     1      -1.429  -4.125   0.000  0.00  0.00    +0.000 NA
ATOM     56  C   UNL     1      -1.429  -3.300   0.000  0.00  0.00    +0.000 A 
ATOM     57  C   UNL     1      -0.715  -2.888   0.000  0.00  0.00    +0.000 A 
ATOM     58  C   UNL     1       0.000  -3.300   0.000  0.00  0.00    +0.000 A 
ATOM     59  C   UNL     1       0.000  -4.125   0.000  0.00  0.00    +0.000 A 
ATOM     60  C   UNL     1      -0.715  -4.538   0.000  0.00  0.00    +0.000 A 
ENDBRANCH  53  57
ENDBRANCH  52  53
ENDBRANCH   2  52
TORSDOF 18
