REMARK  Name = 
REMARK  7 active torsions:
REMARK  status: ('A' for Active; 'I' for Inactive)
REMARK    1  A    between atoms: C_2  and  C_4
REMARK    2  A    between atoms: N_15  and  C_16
REMARK    3  A    between atoms: N_23  and  C_24
REMARK    4  A    between atoms: C_24  and  C_25
REMARK    5  A    between atoms: C_25  and  C_26
REMARK    6  A    between atoms: C_26  and  N_27
REMARK    7  A    between atoms: C_26  and  C_31
REMARK                            x       y       z     vdW  Elec       q    Type
REMARK                         _______ _______ _______ _____ _____    ______ ____
ROOT
ATOM      1  C   UNL     1       0.819   3.748   0.000  0.00  0.00    +0.000 C 
ATOM      2  C   UNL     1       0.461   4.491   0.000  0.00  0.00    +0.000 C 
ATOM      3  C   UNL     1      -0.343   4.674   0.000  0.00  0.00    +0.000 C 
ATOM      4  C   UNL     1      -0.988   4.160   0.000  0.00  0.00    +0.000 C 
ATOM      5  C   UNL     1      -0.988   3.335   0.000  0.00  0.00    +0.000 C 
ATOM      6  C   UNL     1      -0.343   2.821   0.000  0.00  0.00    +0.000 C 
ATOM      7  C   UNL     1       0.461   3.004   0.000  0.00  0.00    +0.000 C 
ATOM      8  N   UNL     1      -0.575   3.748   0.000  0.00  0.00    +0.000 NA
ENDROOT
BRANCH   1  20
ATOM      9  C   UNL     1       3.968   1.424   0.000  0.00  0.00    +0.000 C 
ATOM     10  O   UNL     1       4.753   1.679   0.000  0.00  0.00    +0.000 OA
ATOM     11  N   UNL     1       3.355   1.976   0.000  0.00  0.00    +0.000 N 
ATOM     12  C   UNL     1       2.571   1.721   0.000  0.00  0.00    +0.000 C 
ATOM     13  C   UNL     1       1.958   2.273   0.000  0.00  0.00    +0.000 C 
ATOM     14  C   UNL     1       2.129   3.080   0.000  0.00  0.00    +0.000 A 
ATOM     15  C   UNL     1       2.914   3.335   0.000  0.00  0.00    +0.000 A 
ATOM     16  C   UNL     1       3.527   2.783   0.000  0.00  0.00    +0.000 C 
ATOM     17  N   UNL     1       2.914   4.160   0.000  0.00  0.00    +0.000 NA
ATOM     18  C   UNL     1       2.129   4.415   0.000  0.00  0.00    +0.000 A 
ATOM     19  C   UNL     1       1.874   5.199   0.000  0.00  0.00    +0.000 C 
ATOM     20  N   UNL     1       1.644   3.748   0.000  0.00  0.00    +0.000 N 
BRANCH   9  22
ATOM     21  C   UNL     1       3.012   0.362   0.000  0.00  0.00    +0.000 C 
ATOM     22  C   UNL     1       3.797   0.617   0.000  0.00  0.00    +0.000 C 
ATOM     23  C   UNL     1       4.410   0.065   0.000  0.00  0.00    +0.000 C 
ENDBRANCH   9  22
ENDBRANCH   1  20
BRANCH   8  24
ATOM     24  C   UNL     1      -1.400   3.748   0.000  0.00  0.00    +0.000 C 
BRANCH  24  25
ATOM     25  C   UNL     1      -1.812   4.462   0.000  0.00  0.00    +0.000 C 
BRANCH  25  26
ATOM     26  C   UNL     1      -2.637   4.462   0.000  0.00  0.00    +0.000 C 
BRANCH  26  27
ATOM     27  C   UNL     1      -3.050   5.176   0.000  0.00  0.00    +0.000 A 
ATOM     28  C   UNL     1      -3.875   5.176   0.000  0.00  0.00    +0.000 A 
ATOM     29  C   UNL     1      -4.287   5.891   0.000  0.00  0.00    +0.000 A 
ATOM     30  C   UNL     1      -3.875   6.605   0.000  0.00  0.00    +0.000 A 
ATOM     31  C   UNL     1      -3.050   6.605   0.000  0.00  0.00    +0.000 A 
ATOM     32  F   UNL     1      -2.637   7.320   0.000  0.00  0.00    +0.000 F 
ATOM     33  C   UNL     1      -2.637   5.891   0.000  0.00  0.00    +0.000 A 
ENDBRANCH  26  27
BRANCH  26  34
ATOM     34  N   UNL     1      -3.050   3.748   0.000  0.00  0.00    +0.000 NA
ATOM     35  C   UNL     1      -2.637   3.033   0.000  0.00  0.00    +0.000 C 
ATOM     36  C   UNL     1      -1.812   3.033   0.000  0.00  0.00    +0.000 C 
ATOM     37  O   UNL     1      -3.050   2.318   0.000  0.00  0.00    +0.000 OA
ENDBRANCH  26  34
ENDBRANCH  25  26
ENDBRANCH  24  25
ENDBRANCH   8  24
TORSDOF 7
