REMARK  Name = 
REMARK  6 active torsions:
REMARK  status: ('A' for Active; 'I' for Inactive)
REMARK    1  A    between atoms: C_2  and  CA_3
REMARK    2  A    between atoms: C_5  and  O_6
REMARK    3  A    between atoms: O_6  and  C_7
REMARK    4  A    between atoms: C_13  and  C_14
REMARK    5  A    between atoms: N_16  and  C_17
REMARK    6  A    between atoms: C_21  and  C_23
REMARK                            x       y       z     vdW  Elec       q    Type
REMARK                         _______ _______ _______ _____ _____    ______ ____
ROOT
ATOM      1  C   UNL     1       0.715  -0.412   0.000  0.00  0.00    +0.000 A 
ATOM      2  C   UNL     1       1.429   0.000   0.000  0.00  0.00    +0.000 A 
ATOM      3  C   UNL     1       2.143  -0.412   0.000  0.00  0.00    +0.000 A 
ATOM      4  C   UNL     1       2.858   0.000   0.000  0.00  0.00    +0.000 A 
ATOM      5  C   UNL     1       3.572  -0.412   0.000  0.00  0.00    +0.000 A 
ATOM      6  C   UNL     1       3.572  -1.238   0.000  0.00  0.00    +0.000 A 
ATOM      7  C   UNL     1       2.858  -1.650   0.000  0.00  0.00    +0.000 A 
ATOM      8  C   UNL     1       2.143  -1.238   0.000  0.00  0.00    +0.000 A 
ATOM      9  C   UNL     1       1.429  -1.650   0.000  0.00  0.00    +0.000 A 
ATOM     10  C   UNL     1       0.715  -1.238   0.000  0.00  0.00    +0.000 A 
ENDROOT
BRANCH   7  11
ATOM     11  C   UNL     1       2.858  -2.475   0.000  0.00  0.00    +0.000 C 
ATOM     12  O   UNL     1       3.572  -2.888   0.000  0.00  0.00    +0.000 OA
ATOM     13  N   UNL     1       2.143  -2.888   0.000  0.00  0.00    +0.000 NA
BRANCH  13  14
ATOM     14  C   UNL     1       2.143  -3.712   0.000  0.00  0.00    +0.000 A 
ATOM     15  C   UNL     1       2.858  -4.125   0.000  0.00  0.00    +0.000 A 
ATOM     16  C   UNL     1       2.858  -4.950   0.000  0.00  0.00    +0.000 A 
ATOM     17  C   UNL     1       2.143  -5.362   0.000  0.00  0.00    +0.000 A 
ATOM     18  C   UNL     1       1.429  -4.950   0.000  0.00  0.00    +0.000 A 
ATOM     19  C   UNL     1       1.429  -4.125   0.000  0.00  0.00    +0.000 A 
BRANCH  18  20
ATOM     20  C   UNL     1       0.715  -5.362   0.000  0.00  0.00    +0.000 C 
ATOM     21  F   UNL     1       0.000  -5.775   0.000  0.00  0.00    +0.000 F 
ATOM     22  F   UNL     1       0.302  -4.648   0.000  0.00  0.00    +0.000 F 
ATOM     23  F   UNL     1       1.127  -6.077   0.000  0.00  0.00    +0.000 F 
ENDBRANCH  18  20
ENDBRANCH  13  14
ENDBRANCH   7  11
BRANCH   1  24
ATOM     24  O   UNL     1       0.000   0.000   0.000  0.00  0.00    +0.000 OA
BRANCH  24  27
ATOM     25  CA  UNL     1      -2.143  -0.412   0.000  0.00  0.00    +0.000 A 
ATOM     26  C   UNL     1      -1.429   0.000   0.000  0.00  0.00    +0.000 A 
ATOM     27  C   UNL     1      -0.715  -0.412   0.000  0.00  0.00    +0.000 A 
ATOM     28  N   UNL     1      -0.715  -1.238   0.000  0.00  0.00    +0.000 NA
ATOM     29  C   UNL     1      -1.429  -1.650   0.000  0.00  0.00    +0.000 A 
ATOM     30  N   UNL     1      -2.143  -1.238   0.000  0.00  0.00    +0.000 NA
BRANCH  25  32
ATOM     31  O   UNL     1      -3.572  -0.412   0.000  0.00  0.00    +0.000 OA
ATOM     32  C   UNL     1      -2.858   0.000   0.000  0.00  0.00    +0.000 C 
ENDBRANCH  25  32
ENDBRANCH  24  27
ENDBRANCH   1  24
TORSDOF 6
