REMARK  Name = 
REMARK  3 active torsions:
REMARK  status: ('A' for Active; 'I' for Inactive)
REMARK    1  A    between atoms: N_3  and  C_12
REMARK    2  A    between atoms: C_12  and  C_13
REMARK    3  A    between atoms: C_13  and  C_14
REMARK                            x       y       z     vdW  Elec       q    Type
REMARK                         _______ _______ _______ _____ _____    ______ ____
ROOT
ATOM      1  O   UNL     1       1.864   1.118   0.000  0.00  0.00    +0.000 OA
ATOM      2  O   UNL     1       2.859   2.195   0.000  0.00  0.00    +0.000 OA
ATOM      3  N   UNL     1       0.453  -0.538   0.000  0.00  0.00    +0.000 NA
ATOM      4  N   UNL     1       3.149   0.746   0.000  0.00  0.00    +0.000 NA
ATOM      5  C   UNL     1       1.864   0.293   0.000  0.00  0.00    +0.000 C 
ATOM      6  C   UNL     1       2.695   0.085   0.000  0.00  0.00    +0.000 C 
ATOM      7  C   UNL     1       1.864  -0.538   0.000  0.00  0.00    +0.000 C 
ATOM      8  C   UNL     1       1.159   0.709   0.000  0.00  0.00    +0.000 C 
ATOM      9  C   UNL     1       2.651   1.407   0.000  0.00  0.00    +0.000 C 
ATOM     10  C   UNL     1       1.159  -0.954   0.000  0.00  0.00    +0.000 C 
ATOM     11  C   UNL     1       0.453   0.293   0.000  0.00  0.00    +0.000 C 
ENDROOT
BRANCH   3  12
ATOM     12  C   UNL     1      -0.246  -0.954   0.000  0.00  0.00    +0.000 C 
BRANCH  12  13
ATOM     13  C   UNL     1      -0.951  -0.538   0.000  0.00  0.00    +0.000 C 
BRANCH  13  14
ATOM     14  C   UNL     1      -1.700  -0.954   0.000  0.00  0.00    +0.000 A 
ATOM     15  C   UNL     1      -2.406  -0.538   0.000  0.00  0.00    +0.000 A 
ATOM     16  C   UNL     1      -1.700  -1.779   0.000  0.00  0.00    +0.000 A 
ATOM     17  C   UNL     1      -3.149  -0.954   0.000  0.00  0.00    +0.000 A 
ATOM     18  C   UNL     1      -2.406  -2.195   0.000  0.00  0.00    +0.000 A 
ATOM     19  C   UNL     1      -3.149  -1.779   0.000  0.00  0.00    +0.000 A 
ENDBRANCH  13  14
ENDBRANCH  12  13
ENDBRANCH   3  12
TORSDOF 3
