REMARK  Name = 
REMARK  17 active torsions:
REMARK  status: ('A' for Active; 'I' for Inactive)
REMARK    1  A    between atoms: P_1  and  O_11
REMARK    2  A    between atoms: P_1  and  O_13
REMARK    3  A    between atoms: P_2  and  O_12
REMARK    4  A    between atoms: P_2  and  O_16
REMARK    5  A    between atoms: P_3  and  O_13
REMARK    6  A    between atoms: P_3  and  O_21
REMARK    7  A    between atoms: P_4  and  O_16
REMARK    8  A    between atoms: P_4  and  O_22
REMARK    9  A    between atoms: P_5  and  O_21
REMARK   10  A    between atoms: P_5  and  O_22
REMARK   11  A    between atoms: O_11  and  C_44
REMARK   12  A    between atoms: O_12  and  C_45
REMARK   13  A    between atoms: N_29  and  C_38
REMARK   14  A    between atoms: N_30  and  C_43
REMARK   15  A    between atoms: N_35  and  C_52
REMARK   16  A    between atoms: C_39  and  C_44
REMARK   17  A    between atoms: C_41  and  C_45
REMARK                            x       y       z     vdW  Elec       q    Type
REMARK                         _______ _______ _______ _____ _____    ______ ____
ROOT
ATOM      1  P   UNL     1      -0.659   1.299   0.000  0.00  0.00    +0.000 P 
ATOM      2  O   UNL     1      -0.175   0.630   0.000  0.00  0.00    +0.000 OA
ATOM      3  O   UNL     1      -1.143   1.967   0.000  0.00  0.00    +0.000 OA
ENDROOT
BRANCH   1   4
ATOM      4  O   UNL     1      -1.327   0.815   0.000  0.00  0.00    +0.000 OA
BRANCH   4   5
ATOM      5  P   UNL     1      -2.080   1.152   0.000  0.00  0.00    +0.000 P 
ATOM      6  O   UNL     1      -1.743   1.905   0.000  0.00  0.00    +0.000 OA
ATOM      7  O   UNL     1      -2.417   0.399   0.000  0.00  0.00    +0.000 OA
BRANCH   5   8
ATOM      8  O   UNL     1      -2.833   1.489   0.000  0.00  0.00    +0.000 OA
BRANCH   8   9
ATOM      9  P   UNL     1      -3.501   1.005   0.000  0.00  0.00    +0.000 P 
ATOM     10  O   UNL     1      -3.018   0.337   0.000  0.00  0.00    +0.000 OA
ATOM     11  O   UNL     1      -3.985   1.673   0.000  0.00  0.00    +0.000 OA
BRANCH   9  12
ATOM     12  O   UNL     1      -4.170   0.521   0.000  0.00  0.00    +0.000 OA
BRANCH  12  13
ATOM     13  C   UNL     1      -4.923   0.858   0.000  0.00  0.00    +0.000 C 
BRANCH  13  20
ATOM     14  O   UNL     1      -5.592  -0.451   0.000  0.00  0.00    +0.000 OA
ATOM     15  O   UNL     1      -7.686  -0.035   0.000  0.00  0.00    +0.000 OA
ATOM     16  O   UNL     1      -6.629   1.415   0.000  0.00  0.00    +0.000 OA
ATOM     17  C   UNL     1      -6.861  -0.036   0.000  0.00  0.00    +0.000 C 
ATOM     18  C   UNL     1      -6.375   0.630   0.000  0.00  0.00    +0.000 C 
ATOM     19  C   UNL     1      -6.377  -0.704   0.000  0.00  0.00    +0.000 C 
ATOM     20  C   UNL     1      -5.591   0.374   0.000  0.00  0.00    +0.000 C 
BRANCH  19  21
ATOM     21  N   UNL     1      -6.634  -1.488   0.000  0.00  0.00    +0.000 N 
ATOM     22  N   UNL     1      -6.634  -2.816   0.000  0.00  0.00    +0.000 NA
ATOM     23  N   UNL     1      -8.129  -1.327   0.000  0.00  0.00    +0.000 NA
ATOM     24  N   UNL     1      -8.843  -2.565   0.000  0.00  0.00    +0.000 NA
ATOM     25  C   UNL     1      -7.414  -1.740   0.000  0.00  0.00    +0.000 A 
ATOM     26  C   UNL     1      -6.152  -2.152   0.000  0.00  0.00    +0.000 A 
ATOM     27  C   UNL     1      -7.414  -2.565   0.000  0.00  0.00    +0.000 A 
ATOM     28  C   UNL     1      -8.129  -2.977   0.000  0.00  0.00    +0.000 A 
ATOM     29  C   UNL     1      -8.843  -1.740   0.000  0.00  0.00    +0.000 A 
BRANCH  28  30
ATOM     30  N   UNL     1      -8.129  -3.802   0.000  0.00  0.00    +0.000 N 
ATOM     31  H   UNL     1      -7.686  -4.058   0.000  0.00  0.00    +0.000 HD
ATOM     32  H   UNL     1      -8.572  -4.058   0.000  0.00  0.00    +0.000 HD
ENDBRANCH  28  30
ENDBRANCH  19  21
ENDBRANCH  13  20
ENDBRANCH  12  13
ENDBRANCH   9  12
ENDBRANCH   8   9
ENDBRANCH   5   8
ENDBRANCH   4   5
ENDBRANCH   1   4
BRANCH   1  33
ATOM     33  O   UNL     1       0.009   1.782   0.000  0.00  0.00    +0.000 OA
BRANCH  33  34
ATOM     34  P   UNL     1       0.762   1.446   0.000  0.00  0.00    +0.000 P 
ATOM     35  O   UNL     1       1.099   2.199   0.000  0.00  0.00    +0.000 OA
ATOM     36  O   UNL     1       0.425   0.692   0.000  0.00  0.00    +0.000 OA
BRANCH  34  37
ATOM     37  O   UNL     1       1.515   1.109   0.000  0.00  0.00    +0.000 OA
BRANCH  37  38
ATOM     38  P   UNL     1       2.184   1.592   0.000  0.00  0.00    +0.000 P 
ATOM     39  O   UNL     1       2.667   0.924   0.000  0.00  0.00    +0.000 OA
ATOM     40  O   UNL     1       1.700   2.261   0.000  0.00  0.00    +0.000 OA
BRANCH  38  41
ATOM     41  O   UNL     1       2.852   2.076   0.000  0.00  0.00    +0.000 OA
BRANCH  41  42
ATOM     42  C   UNL     1       3.605   1.739   0.000  0.00  0.00    +0.000 C 
BRANCH  42  46
ATOM     43  O   UNL     1       5.057   1.967   0.000  0.00  0.00    +0.000 OA
ATOM     44  O   UNL     1       3.608   3.534   0.000  0.00  0.00    +0.000 OA
ATOM     45  C   UNL     1       4.274   3.048   0.000  0.00  0.00    +0.000 C 
ATOM     46  C   UNL     1       4.273   2.223   0.000  0.00  0.00    +0.000 C 
ATOM     47  C   UNL     1       5.060   3.302   0.000  0.00  0.00    +0.000 C 
ATOM     48  C   UNL     1       5.543   2.633   0.000  0.00  0.00    +0.000 C 
BRANCH  48  51
ATOM     49  O   UNL     1       6.366   1.203   0.000  0.00  0.00    +0.000 OA
ATOM     50  O   UNL     1       8.843   2.628   0.000  0.00  0.00    +0.000 OA
ATOM     51  N   UNL     1       6.368   2.632   0.000  0.00  0.00    +0.000 N 
ATOM     52  N   UNL     1       7.604   1.915   0.000  0.00  0.00    +0.000 N 
ATOM     53  C   UNL     1       6.782   3.346   0.000  0.00  0.00    +0.000 A 
ATOM     54  C   UNL     1       6.779   1.917   0.000  0.00  0.00    +0.000 A 
ATOM     55  C   UNL     1       7.607   3.344   0.000  0.00  0.00    +0.000 A 
ATOM     56  C   UNL     1       8.018   2.629   0.000  0.00  0.00    +0.000 A 
ATOM     57  C   UNL     1       8.021   4.058   0.000  0.00  0.00    +0.000 C 
ATOM     58  H   UNL     1       7.859   1.472   0.000  0.00  0.00    +0.000 HD
ENDBRANCH  48  51
ENDBRANCH  42  46
ENDBRANCH  41  42
ENDBRANCH  38  41
ENDBRANCH  37  38
ENDBRANCH  34  37
ENDBRANCH  33  34
ENDBRANCH   1  33
TORSDOF 17
