REMARK  Name = 
REMARK  7 active torsions:
REMARK  status: ('A' for Active; 'I' for Inactive)
REMARK    1  A    between atoms: C_1  and  N_3
REMARK    2  A    between atoms: C_2  and  C_6
REMARK    3  A    between atoms: C_6  and  C_13
REMARK    4  A    between atoms: C_6  and  O_14
REMARK    5  A    between atoms: C_11  and  N_16
REMARK    6  A    between atoms: C_13  and  O_17
REMARK    7  A    between atoms: O_17  and  C_21
REMARK                            x       y       z     vdW  Elec       q    Type
REMARK                         _______ _______ _______ _____ _____    ______ ____
ROOT
ATOM      1  C   UNL     1       0.412   1.238   0.000  0.00  0.00    +0.000 C 
ATOM      2  C   UNL     1       0.412   0.412   0.000  0.00  0.00    +0.000 C 
ATOM      3  C   UNL     1      -0.302   1.650   0.000  0.00  0.00    +0.000 C 
ATOM      4  C   UNL     1      -0.302   0.000   0.000  0.00  0.00    +0.000 C 
ATOM      5  C   UNL     1      -1.016   1.238   0.000  0.00  0.00    +0.000 C 
ATOM      6  O   UNL     1      -0.302   2.475   0.000  0.00  0.00    +0.000 OA
ATOM      7  C   UNL     1      -1.016   0.412   0.000  0.00  0.00    +0.000 C 
ATOM      8  O   UNL     1      -0.302  -0.825   0.000  0.00  0.00    +0.000 OA
ATOM      9  C   UNL     1      -1.731   1.650   0.000  0.00  0.00    +0.000 C 
ENDROOT
BRANCH   1  10
ATOM     10  N   UNL     1       1.127   1.650   0.000  0.00  0.00    +0.000 N 
ATOM     11  C   UNL     1       1.539   2.365   0.000  0.00  0.00    +0.000 C 
ATOM     12  C   UNL     1       1.952   1.650   0.000  0.00  0.00    +0.000 C 
ENDBRANCH   1  10
BRANCH   7  13
ATOM     13  N   UNL     1      -1.731   0.000   0.000  0.00  0.00    +0.000 N 
ATOM     14  C   UNL     1      -2.143  -0.714   0.000  0.00  0.00    +0.000 C 
ATOM     15  C   UNL     1      -2.556   0.000   0.000  0.00  0.00    +0.000 C 
ENDBRANCH   7  13
BRANCH   2  16
ATOM     16  C   UNL     1       1.127   0.000   0.000  0.00  0.00    +0.000 C 
BRANCH  16  17
ATOM     17  O   UNL     1       1.841   0.412   0.000  0.00  0.00    +0.000 OA
ATOM     18  C   UNL     1       2.556   0.000   0.000  0.00  0.00    +0.000 C 
ENDBRANCH  16  17
BRANCH  16  19
ATOM     19  C   UNL     1       1.127  -0.825   0.000  0.00  0.00    +0.000 C 
BRANCH  19  20
ATOM     20  O   UNL     1       1.841  -1.237   0.000  0.00  0.00    +0.000 OA
BRANCH  20  21
ATOM     21  C   UNL     1       1.841  -2.062   0.000  0.00  0.00    +0.000 C 
ATOM     22  N   UNL     1       2.556  -2.475   0.000  0.00  0.00    +0.000 NA
ATOM     23  O   UNL     1       1.127  -2.475   0.000  0.00  0.00    +0.000 OA
ENDBRANCH  20  21
ENDBRANCH  19  20
ENDBRANCH  16  19
ENDBRANCH   2  16
TORSDOF 7
