REMARK  Name = 
REMARK  12 active torsions:
REMARK  status: ('A' for Active; 'I' for Inactive)
REMARK    1  A    between atoms: O_2  and  C_3
REMARK    2  A    between atoms: C_3  and  C_4
REMARK    3  A    between atoms: C_3  and  C_29
REMARK    4  A    between atoms: C_4  and  C_5
REMARK    5  A    between atoms: C_8  and  O_11
REMARK    6  A    between atoms: O_11  and  C_12
REMARK    7  A    between atoms: C_12  and  C_13
REMARK    8  A    between atoms: C_13  and  C_14
REMARK    9  A    between atoms: C_14  and  O_15
REMARK   10  A    between atoms: O_15  and  C_16
REMARK   11  A    between atoms: C_19  and  O_22
REMARK   12  A    between atoms: O_22  and  C_23
REMARK                            x       y       z     vdW  Elec       q    Type
REMARK                         _______ _______ _______ _____ _____    ______ ____
ROOT
ATOM      1  C   UNL     1      -2.143  -5.362   0.000  0.00  0.00    +0.000 C 
ENDROOT
BRANCH   1   2
ATOM      2  C   UNL     1      -2.858  -5.775   0.000  0.00  0.00    +0.000 C 
BRANCH   2   3
ATOM      3  O   UNL     1      -3.572  -5.362   0.000  0.00  0.00    +0.000 OA
BRANCH   3   7
ATOM      4  C   UNL     1      -5.716  -6.600   0.000  0.00  0.00    +0.000 A 
ATOM      5  C   UNL     1      -5.716  -5.775   0.000  0.00  0.00    +0.000 A 
ATOM      6  C   UNL     1      -5.001  -5.362   0.000  0.00  0.00    +0.000 A 
ATOM      7  C   UNL     1      -4.287  -5.775   0.000  0.00  0.00    +0.000 A 
ATOM      8  C   UNL     1      -4.287  -6.600   0.000  0.00  0.00    +0.000 A 
ATOM      9  C   UNL     1      -5.001  -7.013   0.000  0.00  0.00    +0.000 A 
BRANCH   4  10
ATOM     10  C   UNL     1      -6.430  -7.013   0.000  0.00  0.00    +0.000 C 
BRANCH  10  11
ATOM     11  C   UNL     1      -6.430  -7.838   0.000  0.00  0.00    +0.000 C 
BRANCH  11  12
ATOM     12  C   UNL     1      -5.716  -8.250   0.000  0.00  0.00    +0.000 C 
ATOM     13  O   UNL     1      -5.001  -7.838   0.000  0.00  0.00    +0.000 OA
ATOM     14  O   UNL     1      -5.716  -9.075   0.000  0.00  0.00    +0.000 OA
ENDBRANCH  11  12
BRANCH  11  16
ATOM     15  C   UNL     1      -7.145  -9.075   0.000  0.00  0.00    +0.000 C 
ATOM     16  O   UNL     1      -7.145  -8.250   0.000  0.00  0.00    +0.000 OA
ENDBRANCH  11  16
ENDBRANCH  10  11
ENDBRANCH   4  10
ENDBRANCH   3   7
ENDBRANCH   2   3
ENDBRANCH   1   2
BRANCH   1  17
ATOM     17  C   UNL     1      -1.429  -5.775   0.000  0.00  0.00    +0.000 C 
BRANCH  17  18
ATOM     18  O   UNL     1      -0.715  -5.362   0.000  0.00  0.00    +0.000 OA
BRANCH  18  19
ATOM     19  C   UNL     1       0.000  -5.775   0.000  0.00  0.00    +0.000 A 
ATOM     20  C   UNL     1       0.715  -5.362   0.000  0.00  0.00    +0.000 A 
ATOM     21  C   UNL     1       1.429  -5.775   0.000  0.00  0.00    +0.000 A 
ATOM     22  C   UNL     1       1.429  -6.600   0.000  0.00  0.00    +0.000 A 
ATOM     23  C   UNL     1       0.715  -7.013   0.000  0.00  0.00    +0.000 A 
ATOM     24  C   UNL     1       0.000  -6.600   0.000  0.00  0.00    +0.000 A 
BRANCH  22  25
ATOM     25  O   UNL     1       2.143  -7.013   0.000  0.00  0.00    +0.000 OA
BRANCH  25  26
ATOM     26  C   UNL     1       2.858  -6.600   0.000  0.00  0.00    +0.000 A 
ATOM     27  C   UNL     1       2.858  -5.775   0.000  0.00  0.00    +0.000 A 
ATOM     28  C   UNL     1       3.572  -5.362   0.000  0.00  0.00    +0.000 A 
ATOM     29  C   UNL     1       4.287  -5.775   0.000  0.00  0.00    +0.000 A 
ATOM     30  C   UNL     1       4.287  -6.600   0.000  0.00  0.00    +0.000 A 
ATOM     31  C   UNL     1       3.572  -7.013   0.000  0.00  0.00    +0.000 A 
ENDBRANCH  25  26
ENDBRANCH  22  25
ENDBRANCH  18  19
ENDBRANCH  17  18
ENDBRANCH   1  17
TORSDOF 12
