REMARK  Name = 
REMARK  2 active torsions:
REMARK  status: ('A' for Active; 'I' for Inactive)
REMARK    1  A    between atoms: C_2  and  C_9
REMARK    2  A    between atoms: C_11  and  C_17
REMARK                            x       y       z     vdW  Elec       q    Type
REMARK                         _______ _______ _______ _____ _____    ______ ____
ROOT
ATOM      1  C   UNL     1      -0.466  -2.206   0.000  0.00  0.00    +0.000 A 
ATOM      2  C   UNL     1      -0.749  -1.431   0.000  0.00  0.00    +0.000 A 
ATOM      3  C   UNL     1      -0.218  -0.798   0.000  0.00  0.00    +0.000 A 
ATOM      4  C   UNL     1       0.594  -0.942   0.000  0.00  0.00    +0.000 A 
ATOM      5  C   UNL     1       0.876  -1.717   0.000  0.00  0.00    +0.000 A 
ATOM      6  C   UNL     1       0.346  -2.349   0.000  0.00  0.00    +0.000 A 
ATOM      7  F   UNL     1       0.628  -3.124   0.000  0.00  0.00    +0.000 F 
ATOM      8  F   UNL     1       1.125  -0.310   0.000  0.00  0.00    +0.000 F 
ENDROOT
BRANCH   1  10
ATOM      9  C   UNL     1      -1.527  -2.206   0.000  0.00  0.00    +0.000 C 
ATOM     10  C   UNL     1      -0.997  -2.838   0.000  0.00  0.00    +0.000 C 
ATOM     11  C   UNL     1      -0.282  -3.250   0.000  0.00  0.00    +0.000 C 
ATOM     12  C   UNL     1      -0.282  -4.075   0.000  0.00  0.00    +0.000 C 
ATOM     13  S   UNL     1      -0.997  -4.488   0.000  0.00  0.00    +0.000 S 
ATOM     14  C   UNL     1      -1.711  -4.075   0.000  0.00  0.00    +0.000 C 
ATOM     15  N   UNL     1      -1.711  -3.250   0.000  0.00  0.00    +0.000 NA
ATOM     16  N   UNL     1      -2.426  -4.488   0.000  0.00  0.00    +0.000 NA
ENDBRANCH   1  10
BRANCH   3  17
ATOM     17  C   UNL     1      -0.500  -0.023   0.000  0.00  0.00    +0.000 A 
ATOM     18  C   UNL     1      -1.313   0.120   0.000  0.00  0.00    +0.000 A 
ATOM     19  N   UNL     1      -1.595   0.895   0.000  0.00  0.00    +0.000 NA
ATOM     20  C   UNL     1      -1.065   1.527   0.000  0.00  0.00    +0.000 A 
ATOM     21  N   UNL     1      -0.252   1.384   0.000  0.00  0.00    +0.000 NA
ATOM     22  C   UNL     1       0.030   0.609   0.000  0.00  0.00    +0.000 A 
ENDBRANCH   3  17
TORSDOF 2
