REMARK  Name = 
REMARK  2 active torsions:
REMARK  status: ('A' for Active; 'I' for Inactive)
REMARK    1  A    between atoms: C_7  and  C_15
REMARK    2  A    between atoms: C_20  and  C_21
REMARK                            x       y       z     vdW  Elec       q    Type
REMARK                         _______ _______ _______ _____ _____    ______ ____
ROOT
ATOM      1  C   UNL     1      -0.715   2.003   0.000  0.00  0.00    +0.000 A 
ATOM      2  C   UNL     1      -1.429   2.416   0.000  0.00  0.00    +0.000 A 
ATOM      3  C   UNL     1      -2.144   2.003   0.000  0.00  0.00    +0.000 A 
ATOM      4  C   UNL     1      -2.144   1.179   0.000  0.00  0.00    +0.000 A 
ATOM      5  C   UNL     1      -1.429   0.766   0.000  0.00  0.00    +0.000 A 
ATOM      6  C   UNL     1      -0.715   1.179   0.000  0.00  0.00    +0.000 A 
ATOM      7  C   UNL     1       0.000   0.766   0.000  0.00  0.00    +0.000 A 
ATOM      8  C   UNL     1       0.715   1.179   0.000  0.00  0.00    +0.000 A 
ATOM      9  C   UNL     1       0.715   2.003   0.000  0.00  0.00    +0.000 A 
ATOM     10  O   UNL     1       0.000   2.416   0.000  0.00  0.00    +0.000 OA
ATOM     11  C   UNL     1       1.429   2.416   0.000  0.00  0.00    +0.000 A 
ATOM     12  C   UNL     1       1.429   0.766   0.000  0.00  0.00    +0.000 A 
ATOM     13  C   UNL     1       2.143   1.179   0.000  0.00  0.00    +0.000 A 
ATOM     14  C   UNL     1       2.143   2.003   0.000  0.00  0.00    +0.000 A 
ATOM     15  O   UNL     1       2.858   2.416   0.000  0.00  0.00    +0.000 OA
ATOM     16  O   UNL     1      -2.858   2.416   0.000  0.00  0.00    +0.000 OA
ATOM     17  I   UNL     1      -2.858   0.766   0.000  0.00  0.00    +0.000 I 
ATOM     18  I   UNL     1      -1.429   3.241   0.000  0.00  0.00    +0.000 I 
ATOM     19  I   UNL     1       1.429   3.241   0.000  0.00  0.00    +0.000 I 
ATOM     20  I   UNL     1       2.858   0.766   0.000  0.00  0.00    +0.000 I 
ENDROOT
BRANCH   7  21
ATOM     21  C   UNL     1      -0.000  -0.766   0.000  0.00  0.00    +0.000 A 
ATOM     22  C   UNL     1      -0.715  -1.179   0.000  0.00  0.00    +0.000 A 
ATOM     23  C   UNL     1      -0.715  -2.004   0.000  0.00  0.00    +0.000 A 
ATOM     24  C   UNL     1      -0.000  -2.416   0.000  0.00  0.00    +0.000 A 
ATOM     25  C   UNL     1       0.715  -2.004   0.000  0.00  0.00    +0.000 A 
ATOM     26  C   UNL     1       0.715  -1.179   0.000  0.00  0.00    +0.000 A 
ATOM     27 CL   UNL     1      -1.429  -0.766   0.000  0.00  0.00    +0.000 Cl
ATOM     28 CL   UNL     1      -1.429  -2.416   0.000  0.00  0.00    +0.000 Cl
ATOM     29 CL   UNL     1      -0.000  -3.241   0.000  0.00  0.00    +0.000 Cl
ATOM     30 CL   UNL     1       1.429  -2.416   0.000  0.00  0.00    +0.000 Cl
BRANCH  26  31
ATOM     31  C   UNL     1       1.429  -0.766   0.000  0.00  0.00    +0.000 C 
ATOM     32  O   UNL     1       2.143  -1.179   0.000  0.00  0.00    +0.000 OA
ATOM     33  O   UNL     1       1.429   0.059   0.000  0.00  0.00    +0.000 OA
ENDBRANCH  26  31
ENDBRANCH   7  21
TORSDOF 2
