REMARK  Name = 
REMARK  9 active torsions:
REMARK  status: ('A' for Active; 'I' for Inactive)
REMARK    1  A    between atoms: C_5  and  C_8
REMARK    2  A    between atoms: N_10  and  C_11
REMARK    3  A    between atoms: N_10  and  C_15
REMARK    4  A    between atoms: C_11  and  C_12
REMARK    5  A    between atoms: C_12  and  C_13
REMARK    6  A    between atoms: C_15  and  C_16
REMARK    7  A    between atoms: C_15  and  C_35
REMARK    8  A    between atoms: N_26  and  C_27
REMARK    9  A    between atoms: C_27  and  C_28
REMARK                            x       y       z     vdW  Elec       q    Type
REMARK                         _______ _______ _______ _____ _____    ______ ____
ROOT
ATOM      1  C   UNL     1       1.238  -0.935   0.000  0.00  0.00    +0.000 A 
ATOM      2  N   UNL     1       0.412  -0.935   0.000  0.00  0.00    +0.000 NA
ATOM      3  C   UNL     1       0.000  -0.221   0.000  0.00  0.00    +0.000 A 
ATOM      4  C   UNL     1      -0.825  -0.221   0.000  0.00  0.00    +0.000 A 
ATOM      5  C   UNL     1      -1.238   0.493   0.000  0.00  0.00    +0.000 A 
ATOM      6  C   UNL     1      -0.825   1.208   0.000  0.00  0.00    +0.000 A 
ATOM      7  C   UNL     1       0.000   1.208   0.000  0.00  0.00    +0.000 A 
ATOM      8  C   UNL     1       0.412   0.493   0.000  0.00  0.00    +0.000 A 
ATOM      9  C   UNL     1       1.238   0.493   0.000  0.00  0.00    +0.000 A 
ATOM     10  O   UNL     1       1.650   1.208   0.000  0.00  0.00    +0.000 OA
ATOM     11  N   UNL     1       1.650  -0.221   0.000  0.00  0.00    +0.000 N 
ATOM     12 CL   UNL     1      -2.062   0.493   0.000  0.00  0.00    +0.000 Cl
ENDROOT
BRANCH  11  13
ATOM     13  C   UNL     1       2.475  -0.221   0.000  0.00  0.00    +0.000 C 
BRANCH  13  14
ATOM     14  C   UNL     1       2.888   0.493   0.000  0.00  0.00    +0.000 A 
ATOM     15  C   UNL     1       2.475   1.208   0.000  0.00  0.00    +0.000 A 
ATOM     16  C   UNL     1       2.888   1.922   0.000  0.00  0.00    +0.000 A 
ATOM     17  C   UNL     1       3.712   1.922   0.000  0.00  0.00    +0.000 A 
ATOM     18  C   UNL     1       4.125   1.208   0.000  0.00  0.00    +0.000 A 
ATOM     19  C   UNL     1       3.712   0.493   0.000  0.00  0.00    +0.000 A 
ENDBRANCH  13  14
ENDBRANCH  11  13
BRANCH   1  20
ATOM     20  C   UNL     1       1.650  -1.650   0.000  0.00  0.00    +0.000 C 
BRANCH  20  21
ATOM     21  C   UNL     1       2.475  -1.650   0.000  0.00  0.00    +0.000 C 
ATOM     22  C   UNL     1       2.888  -0.935   0.000  0.00  0.00    +0.000 C 
ATOM     23  C   UNL     1       2.888  -2.365   0.000  0.00  0.00    +0.000 C 
ENDBRANCH  20  21
BRANCH  20  26
ATOM     24  C   UNL     1       1.650  -3.079   0.000  0.00  0.00    +0.000 C 
ATOM     25  O   UNL     1       2.475  -3.079   0.000  0.00  0.00    +0.000 OA
ATOM     26  N   UNL     1       1.238  -2.365   0.000  0.00  0.00    +0.000 N 
BRANCH  24  31
ATOM     27  C   UNL     1       0.000  -5.937   0.000  0.00  0.00    +0.000 C 
ATOM     28  C   UNL     1       0.412  -5.222   0.000  0.00  0.00    +0.000 A 
ATOM     29  C   UNL     1       0.000  -4.508   0.000  0.00  0.00    +0.000 A 
ATOM     30  C   UNL     1       0.412  -3.793   0.000  0.00  0.00    +0.000 A 
ATOM     31  C   UNL     1       1.238  -3.793   0.000  0.00  0.00    +0.000 A 
ATOM     32  C   UNL     1       1.650  -4.508   0.000  0.00  0.00    +0.000 A 
ATOM     33  C   UNL     1       1.238  -5.222   0.000  0.00  0.00    +0.000 A 
ENDBRANCH  24  31
BRANCH  26  34
ATOM     34  C   UNL     1       0.412  -2.365   0.000  0.00  0.00    +0.000 C 
BRANCH  34  35
ATOM     35  C   UNL     1       0.000  -1.650   0.000  0.00  0.00    +0.000 C 
BRANCH  35  36
ATOM     36  C   UNL     1      -0.825  -1.650   0.000  0.00  0.00    +0.000 C 
ATOM     37  N   UNL     1      -1.238  -2.365   0.000  0.00  0.00    +0.000 NA
ENDBRANCH  35  36
ENDBRANCH  34  35
ENDBRANCH  26  34
ENDBRANCH  20  26
ENDBRANCH   1  20
TORSDOF 9
