REMARK  Name = 
REMARK  0 active torsions:
REMARK  status: ('A' for Active; 'I' for Inactive)
REMARK                            x       y       z     vdW  Elec       q    Type
REMARK                         _______ _______ _______ _____ _____    ______ ____
ROOT
ATOM      1  C   UNL     1      -0.147  -1.248   0.000  0.00  0.00    +0.000 A 
ATOM      2  C   UNL     1      -0.147  -2.073   0.000  0.00  0.00    +0.000 A 
ATOM      3  C   UNL     1      -0.861  -0.835   0.000  0.00  0.00    +0.000 A 
ATOM      4  C   UNL     1      -0.861  -2.486   0.000  0.00  0.00    +0.000 A 
ATOM      5  C   UNL     1      -1.576  -1.248   0.000  0.00  0.00    +0.000 A 
ATOM      6  C   UNL     1      -1.576  -2.073   0.000  0.00  0.00    +0.000 A 
ATOM      7  C   UNL     1       0.638  -0.993   0.000  0.00  0.00    +0.000 C 
ATOM      8  C   UNL     1       1.123  -1.661   0.000  0.00  0.00    +0.000 C 
ATOM      9  N   UNL     1       0.638  -2.328   0.000  0.00  0.00    +0.000 NA
ATOM     10  O   UNL     1       1.948  -1.661   0.000  0.00  0.00    +0.000 OA
ATOM     11  C   UNL     1       0.893  -0.208   0.000  0.00  0.00    +0.000 C 
ATOM     12  C   UNL     1       0.408   0.459   0.000  0.00  0.00    +0.000 C 
ATOM     13  N   UNL     1       1.677   0.046   0.000  0.00  0.00    +0.000 NA
ATOM     14  C   UNL     1       0.893   1.127   0.000  0.00  0.00    +0.000 A 
ATOM     15  C   UNL     1       1.677   0.872   0.000  0.00  0.00    +0.000 A 
ATOM     16  C   UNL     1       0.721   1.933   0.000  0.00  0.00    +0.000 A 
ATOM     17  C   UNL     1       1.334   2.486   0.000  0.00  0.00    +0.000 A 
ATOM     18  C   UNL     1       2.290   1.424   0.000  0.00  0.00    +0.000 A 
ATOM     19  C   UNL     1       2.119   2.231   0.000  0.00  0.00    +0.000 A 
ATOM     20  N   UNL     1      -0.417   0.459   0.000  0.00  0.00    +0.000 NA
ATOM     21  O   UNL     1      -0.830   1.174   0.000  0.00  0.00    +0.000 OA
ATOM     22 BR   UNL     1      -2.290  -2.486   0.000  0.00  0.00    +0.000 Br
ENDROOT
TORSDOF 0
