REMARK  Name = 
REMARK  12 active torsions:
REMARK  status: ('A' for Active; 'I' for Inactive)
REMARK    1  A    between atoms: N_6  and  C_12
REMARK    2  A    between atoms: N_7  and  C_17
REMARK    3  A    between atoms: N_8  and  C_22
REMARK    4  A    between atoms: C_11  and  C_12
REMARK    5  A    between atoms: C_11  and  C_13
REMARK    6  A    between atoms: C_12  and  C_14
REMARK    7  A    between atoms: C_17  and  C_18
REMARK    8  A    between atoms: C_18  and  C_19
REMARK    9  A    between atoms: C_19  and  C_22
REMARK   10  A    between atoms: C_20  and  C_21
REMARK   11  A    between atoms: C_21  and  C_23
REMARK   12  A    between atoms: C_23  and  C_24
REMARK                            x       y       z     vdW  Elec       q    Type
REMARK                         _______ _______ _______ _____ _____    ______ ____
ROOT
ATOM      1  C   UNL     1      -2.008  -0.697   0.000  0.00  0.00    +0.000 C 
ENDROOT
BRANCH   1   4
ATOM      2  O   UNL     1      -1.293   0.540   0.000  0.00  0.00    +0.000 OA
ATOM      3  N   UNL     1      -0.579  -0.697   0.000  0.00  0.00    +0.000 NA
ATOM      4  C   UNL     1      -1.293  -0.285   0.000  0.00  0.00    +0.000 C 
BRANCH   3   5
ATOM      5  C   UNL     1       0.136  -0.285   0.000  0.00  0.00    +0.000 C 
BRANCH   5   6
ATOM      6  C   UNL     1       0.850  -0.697   0.000  0.00  0.00    +0.000 C 
BRANCH   6   7
ATOM      7  C   UNL     1       1.565  -0.285   0.000  0.00  0.00    +0.000 C 
BRANCH   7   8
ATOM      8  C   UNL     1       2.279  -0.697   0.000  0.00  0.00    +0.000 C 
BRANCH   8   9
ATOM      9  N   UNL     1       2.994  -0.285   0.000  0.00  0.00    +0.000 NA
ATOM     10  N   UNL     1       4.423  -0.285   0.000  0.00  0.00    +0.000 NA
ATOM     11  N   UNL     1       3.708  -1.522   0.000  0.00  0.00    +0.000 NA
ATOM     12  C   UNL     1       3.708  -0.697   0.000  0.00  0.00    +0.000 C 
ENDBRANCH   8   9
ENDBRANCH   7   8
ENDBRANCH   6   7
ENDBRANCH   5   6
ENDBRANCH   3   5
ENDBRANCH   1   4
BRANCH   1  14
ATOM     13  O   UNL     1      -2.008   0.953   0.000  0.00  0.00    +0.000 OA
ATOM     14  N   UNL     1      -2.722  -0.285   0.000  0.00  0.00    +0.000 NA
ATOM     15  C   UNL     1      -2.722   0.540   0.000  0.00  0.00    +0.000 C 
BRANCH  15  17
ATOM     16  O   UNL     1      -4.151   0.540   0.000  0.00  0.00    +0.000 OA
ATOM     17  C   UNL     1      -3.437   0.953   0.000  0.00  0.00    +0.000 C 
BRANCH  17  18
ATOM     18  C   UNL     1      -3.437   1.778   0.000  0.00  0.00    +0.000 C 
BRANCH  18  21
ATOM     19  O   UNL     1      -4.151   3.015   0.000  0.00  0.00    +0.000 OA
ATOM     20  O   UNL     1      -4.865   1.778   0.000  0.00  0.00    +0.000 OA
ATOM     21  C   UNL     1      -4.151   2.190   0.000  0.00  0.00    +0.000 C 
ENDBRANCH  18  21
ENDBRANCH  17  18
ENDBRANCH  15  17
ENDBRANCH   1  14
BRANCH   1  22
ATOM     22  C   UNL     1      -2.008  -1.522   0.000  0.00  0.00    +0.000 C 
BRANCH  22  23
ATOM     23  C   UNL     1      -2.722  -1.935   0.000  0.00  0.00    +0.000 C 
ATOM     24  C   UNL     1      -2.722  -2.760   0.000  0.00  0.00    +0.000 C 
ATOM     25  C   UNL     1      -3.437  -1.522   0.000  0.00  0.00    +0.000 C 
ENDBRANCH  22  23
ENDBRANCH   1  22
TORSDOF 12
