REMARK  Name = 
REMARK  12 active torsions:
REMARK  status: ('A' for Active; 'I' for Inactive)
REMARK    1  A    between atoms: C_6  and  O_8
REMARK    2  A    between atoms: O_8  and  C_9
REMARK    3  A    between atoms: C_11  and  C_33
REMARK    4  A    between atoms: C_26  and  O_30
REMARK    5  A    between atoms: C_33  and  C_50
REMARK    6  A    between atoms: N_34  and  N_35
REMARK    7  A    between atoms: C_36  and  C_38
REMARK    8  A    between atoms: C_38  and  C_39
REMARK    9  A    between atoms: C_39  and  C_40
REMARK   10  A    between atoms: C_40  and  C_41
REMARK   11  A    between atoms: C_41  and  C_42
REMARK   12  A    between atoms: C_42  and  N_43
REMARK                            x       y       z     vdW  Elec       q    Type
REMARK                         _______ _______ _______ _____ _____    ______ ____
ROOT
ATOM      1  C   UNL     1      -0.210  -6.023   0.000  0.00  0.00    +0.000 C 
ATOM      2  C   UNL     1       0.615  -5.994   0.000  0.00  0.00    +0.000 C 
ATOM      3  C   UNL     1       1.052  -6.694   0.000  0.00  0.00    +0.000 C 
ATOM      4  C   UNL     1       0.665  -7.422   0.000  0.00  0.00    +0.000 C 
ATOM      5  C   UNL     1      -0.160  -7.451   0.000  0.00  0.00    +0.000 A 
ATOM      6  C   UNL     1      -0.597  -6.752   0.000  0.00  0.00    +0.000 A 
ATOM      7  C   UNL     1      -1.422  -6.780   0.000  0.00  0.00    +0.000 A 
ATOM      8  C   UNL     1      -1.809  -7.509   0.000  0.00  0.00    +0.000 A 
ATOM      9  C   UNL     1      -1.372  -8.209   0.000  0.00  0.00    +0.000 A 
ATOM     10  C   UNL     1      -0.547  -8.180   0.000  0.00  0.00    +0.000 A 
ATOM     11  O   UNL     1      -0.110  -8.879   0.000  0.00  0.00    +0.000 OA
ATOM     12  C   UNL     1      -1.759  -8.937   0.000  0.00  0.00    +0.000 C 
ATOM     13  O   UNL     1      -1.322  -9.636   0.000  0.00  0.00    +0.000 OA
ATOM     14  C   UNL     1      -2.583  -8.966   0.000  0.00  0.00    +0.000 A 
ATOM     15  C   UNL     1      -2.971  -9.694   0.000  0.00  0.00    +0.000 A 
ATOM     16  C   UNL     1      -3.795  -9.723   0.000  0.00  0.00    +0.000 A 
ATOM     17  C   UNL     1      -4.232  -9.023   0.000  0.00  0.00    +0.000 A 
ATOM     18  C   UNL     1      -3.845  -8.295   0.000  0.00  0.00    +0.000 A 
ATOM     19  C   UNL     1      -3.021  -8.266   0.000  0.00  0.00    +0.000 A 
ATOM     20  C   UNL     1      -2.633  -7.538   0.000  0.00  0.00    +0.000 C 
ATOM     21  O   UNL     1      -3.071  -6.838   0.000  0.00  0.00    +0.000 OA
ATOM     22  O   UNL     1      -1.859  -6.081   0.000  0.00  0.00    +0.000 OA
ATOM     23  O   UNL     1       1.793  -7.056   0.000  0.00  0.00    +0.000 OA
ENDROOT
BRANCH   3  24
ATOM     24  C   UNL     1       1.766  -6.282   0.000  0.00  0.00    +0.000 C 
ATOM     25  N   UNL     1       2.481  -6.694   0.000  0.00  0.00    +0.000 NA
BRANCH  25  26
ATOM     26  N   UNL     1       3.195  -6.282   0.000  0.00  0.00    +0.000 NA
ATOM     27  C   UNL     1       3.910  -6.694   0.000  0.00  0.00    +0.000 C 
ATOM     28  O   UNL     1       3.910  -7.519   0.000  0.00  0.00    +0.000 OA
BRANCH  27  29
ATOM     29  C   UNL     1       4.624  -6.282   0.000  0.00  0.00    +0.000 C 
BRANCH  29  30
ATOM     30  C   UNL     1       5.339  -6.694   0.000  0.00  0.00    +0.000 C 
BRANCH  30  31
ATOM     31  C   UNL     1       6.053  -6.282   0.000  0.00  0.00    +0.000 C 
BRANCH  31  32
ATOM     32  C   UNL     1       6.768  -6.694   0.000  0.00  0.00    +0.000 C 
BRANCH  32  33
ATOM     33  C   UNL     1       7.482  -6.282   0.000  0.00  0.00    +0.000 C 
BRANCH  33  34
ATOM     34  N   UNL     1       8.197  -6.694   0.000  0.00  0.00    +0.000 N 
ATOM     35  C   UNL     1       8.950  -6.358   0.000  0.00  0.00    +0.000 C 
ATOM     36  O   UNL     1       9.122  -5.551   0.000  0.00  0.00    +0.000 OA
ATOM     37  C   UNL     1       9.502  -6.971   0.000  0.00  0.00    +0.000 C 
ATOM     38  C   UNL     1       9.090  -7.686   0.000  0.00  0.00    +0.000 C 
ATOM     39  C   UNL     1       8.283  -7.514   0.000  0.00  0.00    +0.000 C 
ATOM     40  O   UNL     1       7.670  -8.066   0.000  0.00  0.00    +0.000 OA
ENDBRANCH  33  34
ENDBRANCH  32  33
ENDBRANCH  31  32
ENDBRANCH  30  31
ENDBRANCH  29  30
ENDBRANCH  27  29
ENDBRANCH  25  26
BRANCH  24  41
ATOM     41  C   UNL     1       1.766  -5.457   0.000  0.00  0.00    +0.000 C 
ATOM     42  O   UNL     1       1.052  -5.044   0.000  0.00  0.00    +0.000 OA
ENDBRANCH  24  41
ENDBRANCH   3  24
BRANCH  18  43
ATOM     43  O   UNL     1      -4.282  -7.595   0.000  0.00  0.00    +0.000 OA
ATOM     44  C   UNL     1      -5.107  -7.624   0.000  0.00  0.00    +0.000 C 
ENDBRANCH  18  43
BRANCH   1  45
ATOM     45  O   UNL     1      -0.647  -5.324   0.000  0.00  0.00    +0.000 OA
BRANCH  45  51
ATOM     46  C   UNL     1       1.777  -3.809   0.000  0.00  0.00    +0.000 C 
ATOM     47  C   UNL     1       0.952  -3.838   0.000  0.00  0.00    +0.000 C 
ATOM     48  C   UNL     1       0.515  -3.138   0.000  0.00  0.00    +0.000 C 
ATOM     49  C   UNL     1      -0.309  -3.167   0.000  0.00  0.00    +0.000 C 
ATOM     50  C   UNL     1      -0.697  -3.895   0.000  0.00  0.00    +0.000 C 
ATOM     51  C   UNL     1      -0.260  -4.595   0.000  0.00  0.00    +0.000 C 
ATOM     52  O   UNL     1       0.565  -4.566   0.000  0.00  0.00    +0.000 OA
ATOM     53  N   UNL     1      -0.747  -2.467   0.000  0.00  0.00    +0.000 NA
ATOM     54  O   UNL     1       0.902  -2.410   0.000  0.00  0.00    +0.000 OA
ENDBRANCH  45  51
ENDBRANCH   1  45
TORSDOF 12
