REMARK  Name = 
REMARK  15 active torsions:
REMARK  status: ('A' for Active; 'I' for Inactive)
REMARK    1  A    between atoms: C_2  and  O_14
REMARK    2  A    between atoms: C_3  and  O_7
REMARK    3  A    between atoms: O_7  and  C_8
REMARK    4  A    between atoms: C_12  and  C_41
REMARK    5  A    between atoms: O_14  and  C_15
REMARK    6  A    between atoms: C_16  and  O_28
REMARK    7  A    between atoms: C_17  and  O_27
REMARK    8  A    between atoms: C_18  and  C_26
REMARK    9  A    between atoms: O_27  and  C_30
REMARK   10  A    between atoms: O_28  and  C_43
REMARK   11  A    between atoms: C_34  and  C_36
REMARK   12  A    between atoms: C_43  and  C_44
REMARK   13  A    between atoms: C_44  and  N_45
REMARK   14  A    between atoms: N_45  and  C_46
REMARK   15  A    between atoms: C_46  and  C_47
REMARK                            x       y       z     vdW  Elec       q    Type
REMARK                         _______ _______ _______ _____ _____    ______ ____
ROOT
ATOM      1  C   UNL     1       0.495   0.615   0.000  0.00  0.00    +0.000 C 
ATOM      2  C   UNL     1      -0.325   0.531   0.000  0.00  0.00    +0.000 C 
ATOM      3  C   UNL     1      -0.509  -0.274   0.000  0.00  0.00    +0.000 C 
ATOM      4  C   UNL     1       0.201  -0.693   0.000  0.00  0.00    +0.000 C 
ATOM      5  O   UNL     1       0.820  -0.147   0.000  0.00  0.00    +0.000 OA
ENDROOT
BRANCH   4   6
ATOM      6  C   UNL     1       0.280  -1.514   0.000  0.00  0.00    +0.000 C 
ATOM      7  O   UNL     1       1.031  -1.853   0.000  0.00  0.00    +0.000 OA
ENDBRANCH   4   6
BRANCH   2   8
ATOM      8  O   UNL     1      -0.874   1.144   0.000  0.00  0.00    +0.000 OA
BRANCH   8   9
ATOM      9  C   UNL     1      -1.698   1.130   0.000  0.00  0.00    +0.000 C 
BRANCH   9  10
ATOM     10  C   UNL     1      -2.126   1.836   0.000  0.00  0.00    +0.000 C 
BRANCH  10  11
ATOM     11  N   UNL     1      -2.951   1.818   0.000  0.00  0.00    +0.000 NA
BRANCH  11  12
ATOM     12  C   UNL     1      -3.379   2.524   0.000  0.00  0.00    +0.000 C 
BRANCH  12  13
ATOM     13  C   UNL     1      -4.204   2.507   0.000  0.00  0.00    +0.000 C 
ATOM     14  C   UNL     1      -4.626   3.214   0.000  0.00  0.00    +0.000 C 
ATOM     15  C   UNL     1      -5.448   3.199   0.000  0.00  0.00    +0.000 C 
ATOM     16  C   UNL     1      -5.849   2.477   0.000  0.00  0.00    +0.000 C 
ATOM     17  N   UNL     1      -5.423   1.770   0.000  0.00  0.00    +0.000 NA
ATOM     18  C   UNL     1      -4.595   1.784   0.000  0.00  0.00    +0.000 C 
ENDBRANCH  12  13
ENDBRANCH  11  12
ENDBRANCH  10  11
ENDBRANCH   9  10
ENDBRANCH   8   9
ENDBRANCH   2   8
BRANCH   3  19
ATOM     19  O   UNL     1      -1.266  -0.603   0.000  0.00  0.00    +0.000 OA
BRANCH  19  20
ATOM     20  C   UNL     1      -1.660  -1.327   0.000  0.00  0.00    +0.000 C 
ATOM     21  C   UNL     1      -2.483  -1.347   0.000  0.00  0.00    +0.000 C 
ATOM     22  C   UNL     1      -2.873  -2.070   0.000  0.00  0.00    +0.000 C 
ATOM     23  C   UNL     1      -2.446  -2.776   0.000  0.00  0.00    +0.000 C 
ATOM     24  C   UNL     1      -1.623  -2.752   0.000  0.00  0.00    +0.000 C 
ATOM     25  O   UNL     1      -1.224  -2.026   0.000  0.00  0.00    +0.000 OA
ATOM     26  O   UNL     1      -2.844  -3.499   0.000  0.00  0.00    +0.000 OA
ATOM     27  O   UNL     1      -3.698  -2.087   0.000  0.00  0.00    +0.000 OA
ATOM     28  N   UNL     1      -2.908  -0.644   0.000  0.00  0.00    +0.000 NA
BRANCH  24  29
ATOM     29  C   UNL     1      -1.196  -3.461   0.000  0.00  0.00    +0.000 C 
ATOM     30  N   UNL     1      -1.588  -4.182   0.000  0.00  0.00    +0.000 NA
ENDBRANCH  24  29
ENDBRANCH  19  20
ENDBRANCH   3  19
BRANCH   1  31
ATOM     31  O   UNL     1       0.915   1.325   0.000  0.00  0.00    +0.000 OA
BRANCH  31  33
ATOM     32  C   UNL     1       0.908   2.751   0.000  0.00  0.00    +0.000 C 
ATOM     33  C   UNL     1       1.323   2.038   0.000  0.00  0.00    +0.000 C 
ATOM     34  C   UNL     1       2.144   2.044   0.000  0.00  0.00    +0.000 C 
ATOM     35  C   UNL     1       2.550   2.755   0.000  0.00  0.00    +0.000 C 
ATOM     36  C   UNL     1       2.138   3.468   0.000  0.00  0.00    +0.000 C 
ATOM     37  C   UNL     1       1.313   3.469   0.000  0.00  0.00    +0.000 C 
ATOM     38  N   UNL     1       0.897   4.182   0.000  0.00  0.00    +0.000 NA
ATOM     39  N   UNL     1       3.375   2.757   0.000  0.00  0.00    +0.000 NA
ATOM     40  O   UNL     1       0.083   2.745   0.000  0.00  0.00    +0.000 OA
BRANCH  34  41
ATOM     41  O   UNL     1       2.556   1.335   0.000  0.00  0.00    +0.000 OA
BRANCH  41  42
ATOM     42  C   UNL     1       3.381   1.338   0.000  0.00  0.00    +0.000 C 
ATOM     43  C   UNL     1       3.793   0.624   0.000  0.00  0.00    +0.000 C 
ATOM     44  C   UNL     1       4.614   0.626   0.000  0.00  0.00    +0.000 C 
ATOM     45  C   UNL     1       5.028   1.340   0.000  0.00  0.00    +0.000 C 
ATOM     46  C   UNL     1       4.614   2.051   0.000  0.00  0.00    +0.000 C 
ATOM     47  O   UNL     1       3.790   2.051   0.000  0.00  0.00    +0.000 OA
ATOM     48  O   UNL     1       5.849   1.341   0.000  0.00  0.00    +0.000 OA
ATOM     49  O   UNL     1       5.027  -0.088   0.000  0.00  0.00    +0.000 OA
ATOM     50  N   UNL     1       3.381  -0.090   0.000  0.00  0.00    +0.000 NA
BRANCH  46  51
ATOM     51  C   UNL     1       5.026   2.766   0.000  0.00  0.00    +0.000 C 
ATOM     52  O   UNL     1       5.846   2.766   0.000  0.00  0.00    +0.000 OA
ENDBRANCH  46  51
ENDBRANCH  41  42
ENDBRANCH  34  41
ENDBRANCH  31  33
ENDBRANCH   1  31
TORSDOF 15
