REMARK  Name = 
REMARK  27 active torsions:
REMARK  status: ('A' for Active; 'I' for Inactive)
REMARK    1  A    between atoms: N_13  and  CA_29
REMARK    2  A    between atoms: N_14  and  CA_31
REMARK    3  A    between atoms: N_16  and  CA_38
REMARK    4  A    between atoms: N_17  and  C_42
REMARK    5  A    between atoms: N_19  and  CA_48
REMARK    6  A    between atoms: NE_20  and  CD_57
REMARK    7  A    between atoms: CA_24  and  C_30
REMARK    8  A    between atoms: C_28  and  CA_29
REMARK    9  A    between atoms: CA_29  and  CB_32
REMARK   10  A    between atoms: CA_31  and  CB_33
REMARK   11  A    between atoms: CA_31  and  C_34
REMARK   12  A    between atoms: CB_32  and  CG_36
REMARK   13  A    between atoms: CB_33  and  CG1_35
REMARK   14  A    between atoms: CA_38  and  C_39
REMARK   15  A    between atoms: CA_38  and  CB_41
REMARK   16  A    between atoms: CB_41  and  CG_47
REMARK   17  A    between atoms: C_42  and  C_44
REMARK   18  A    between atoms: C_42  and  C_45
REMARK   19  A    between atoms: C_44  and  C_46
REMARK   20  A    between atoms: C_46  and  C_52
REMARK   21  A    between atoms: CA_48  and  C_50
REMARK   22  A    between atoms: CA_48  and  CB_51
REMARK   23  A    between atoms: CB_51  and  CG_53
REMARK   24  A    between atoms: CG_53  and  CD_57
REMARK   25  A    between atoms: C_58  and  CA_61
REMARK   26  A    between atoms: CA_61  and  CB_63
REMARK   27  A    between atoms: CB_63  and  CG_64
REMARK                            x       y       z     vdW  Elec       q    Type
REMARK                         _______ _______ _______ _____ _____    ______ ____
ROOT
ATOM      1  CA  TYR A   4      -1.848  -1.708   0.000  0.00  0.00    +0.000 C 
ENDROOT
BRANCH   1   4
ATOM      2  O   TYR A   4      -1.133  -0.471   0.000  0.00  0.00    +0.000 OA
ATOM      3  N   ILE A   5      -2.562  -0.471   0.000  0.00  0.00    +0.000 N 
ATOM      4  C   TYR A   4      -1.848  -0.883   0.000  0.00  0.00    +0.000 C 
ATOM      5  H   ILE A   5      -3.005  -0.727   0.000  0.00  0.00    +0.000 HD
BRANCH   3   6
ATOM      6  CA  ILE A   5      -2.562   0.354   0.000  0.00  0.00    +0.000 C 
BRANCH   6   9
ATOM      7  O   ILE A   5      -3.991   0.354   0.000  0.00  0.00    +0.000 OA
ATOM      8  N   HIS A   6      -3.277   1.591   0.000  0.00  0.00    +0.000 NA
ATOM      9  C   ILE A   5      -3.277   0.766   0.000  0.00  0.00    +0.000 C 
BRANCH   8  10
ATOM     10  CA  HIS A   6      -3.991   2.004   0.000  0.00  0.00    +0.000 C 
BRANCH  10  17
ATOM     11  O   HIS A   6      -4.706   3.241   0.000  0.00  0.00    +0.000 OA
ATOM     12  N   PRO A   7      -3.277   3.241   0.000  0.00  0.00    +0.000 N 
ATOM     13  CA  PRO A   7      -3.191   4.062   0.000  0.00  0.00    +0.000 C 
ATOM     14  CB  PRO A   7      -2.384   4.234   0.000  0.00  0.00    +0.000 C 
ATOM     15  CG  PRO A   7      -1.971   3.519   0.000  0.00  0.00    +0.000 C 
ATOM     16  CD  PRO A   7      -2.523   2.906   0.000  0.00  0.00    +0.000 C 
ATOM     17  C   HIS A   6      -3.991   2.829   0.000  0.00  0.00    +0.000 C 
BRANCH  13  20
ATOM     18  O   PRO A   7      -3.632   5.421   0.000  0.00  0.00    +0.000 OA
ATOM     19  OXT PRO A   7      -4.588   4.359   0.000  0.00  0.00    +0.000 OA
ATOM     20  C   PRO A   7      -3.804   4.614   0.000  0.00  0.00    +0.000 C 
ENDBRANCH  13  20
ENDBRANCH  10  17
BRANCH  10  21
ATOM     21  CB  HIS A   6      -4.706   1.591   0.000  0.00  0.00    +0.000 C 
BRANCH  21  24
ATOM     22  ND1 HIS A   6      -6.174   1.668   0.000  0.00  0.00    +0.000 NA
ATOM     23  NE2 HIS A   6      -6.313   2.996   0.000  0.00  0.00    +0.000 NA
ATOM     24  CG  HIS A   6      -5.420   2.004   0.000  0.00  0.00    +0.000 A 
ATOM     25  CD2 HIS A   6      -5.506   2.825   0.000  0.00  0.00    +0.000 A 
ATOM     26  CE1 HIS A   6      -6.726   2.281   0.000  0.00  0.00    +0.000 A 
ENDBRANCH  21  24
ENDBRANCH  10  21
ENDBRANCH   8  10
ENDBRANCH   6   9
BRANCH   6  27
ATOM     27  CB  ILE A   5      -1.848   0.766   0.000  0.00  0.00    +0.000 C 
ATOM     28  CG2 ILE A   5      -1.133   0.354   0.000  0.00  0.00    +0.000 C 
BRANCH  27  29
ATOM     29  CG1 ILE A   5      -1.848   1.591   0.000  0.00  0.00    +0.000 C 
ATOM     30  CD1 ILE A   5      -1.133   2.004   0.000  0.00  0.00    +0.000 C 
ENDBRANCH  27  29
ENDBRANCH   6  27
ENDBRANCH   3   6
ENDBRANCH   1   4
BRANCH   1  32
ATOM     31  O   UNK A   3      -0.419  -0.883   0.000  0.00  0.00    +0.000 OA
ATOM     32  N   TYR A   4      -1.133  -2.121   0.000  0.00  0.00    +0.000 NA
ATOM     33  C   UNK A   3      -0.419  -1.708   0.000  0.00  0.00    +0.000 C 
BRANCH  33  34
ATOM     34  C   UNK A   3       0.296  -2.121   0.000  0.00  0.00    +0.000 C 
BRANCH  34  36
ATOM     35  O   ARG A   2       1.724  -2.946   0.000  0.00  0.00    +0.000 OA
ATOM     36  N   UNK A   3       1.010  -1.708   0.000  0.00  0.00    +0.000 NA
ATOM     37  C   ARG A   2       1.724  -2.121   0.000  0.00  0.00    +0.000 C 
BRANCH  37  38
ATOM     38  CA  ARG A   2       2.439  -1.708   0.000  0.00  0.00    +0.000 C 
BRANCH  38  40
ATOM     39  O   ASP A   1       3.868  -0.883   0.000  0.00  0.00    +0.000 OA
ATOM     40  N   ARG A   2       3.154  -2.121   0.000  0.00  0.00    +0.000 NA
ATOM     41  C   ASP A   1       3.868  -1.708   0.000  0.00  0.00    +0.000 C 
BRANCH  41  43
ATOM     42  N   ASP A   1       4.582  -2.946   0.000  0.00  0.00    +0.000 NA
ATOM     43  CA  ASP A   1       4.582  -2.121   0.000  0.00  0.00    +0.000 C 
BRANCH  43  44
ATOM     44  CB  ASP A   1       5.297  -1.708   0.000  0.00  0.00    +0.000 C 
BRANCH  44  47
ATOM     45  OD1 ASP A   1       6.726  -1.708   0.000  0.00  0.00    +0.000 OA
ATOM     46  OD2 ASP A   1       6.011  -2.946   0.000  0.00  0.00    +0.000 OA
ATOM     47  CG  ASP A   1       6.011  -2.121   0.000  0.00  0.00    +0.000 C 
ENDBRANCH  44  47
ENDBRANCH  43  44
ENDBRANCH  41  43
ENDBRANCH  38  40
BRANCH  38  48
ATOM     48  CB  ARG A   2       2.439  -0.883   0.000  0.00  0.00    +0.000 C 
BRANCH  48  49
ATOM     49  CG  ARG A   2       3.154  -0.471   0.000  0.00  0.00    +0.000 C 
BRANCH  49  50
ATOM     50  CD  ARG A   2       3.154   0.354   0.000  0.00  0.00    +0.000 C 
BRANCH  50  51
ATOM     51  NE  ARG A   2       3.868   0.766   0.000  0.00  0.00    +0.000 NA
ATOM     52  NH1 ARG A   2       3.154   2.004   0.000  0.00  0.00    +0.000 NA
ATOM     53  NH2 ARG A   2       4.582   2.004   0.000  0.00  0.00    +0.000 NA
ATOM     54  CZ  ARG A   2       3.868   1.591   0.000  0.00  0.00    +0.000 C 
ENDBRANCH  50  51
ENDBRANCH  49  50
ENDBRANCH  48  49
ENDBRANCH  38  48
ENDBRANCH  37  38
ENDBRANCH  34  36
BRANCH  34  55
ATOM     55  C   UNK A   3       0.296  -2.946   0.000  0.00  0.00    +0.000 C 
BRANCH  55  56
ATOM     56  C   UNK A   3       1.010  -3.358   0.000  0.00  0.00    +0.000 C 
BRANCH  56  57
ATOM     57  C   UNK A   3       1.010  -4.184   0.000  0.00  0.00    +0.000 C 
ATOM     58  C   UNK A   3       1.724  -4.596   0.000  0.00  0.00    +0.000 C 
ENDBRANCH  56  57
ENDBRANCH  55  56
ENDBRANCH  34  55
ENDBRANCH  33  34
ENDBRANCH   1  32
BRANCH   1  59
ATOM     59  CB  TYR A   4      -2.562  -2.121   0.000  0.00  0.00    +0.000 C 
BRANCH  59  61
ATOM     60  OH  TYR A   4      -2.562  -5.421   0.000  0.00  0.00    +0.000 OA
ATOM     61  CG  TYR A   4      -2.562  -2.946   0.000  0.00  0.00    +0.000 A 
ATOM     62  CD1 TYR A   4      -1.848  -3.358   0.000  0.00  0.00    +0.000 A 
ATOM     63  CD2 TYR A   4      -3.277  -3.358   0.000  0.00  0.00    +0.000 A 
ATOM     64  CE1 TYR A   4      -1.848  -4.184   0.000  0.00  0.00    +0.000 A 
ATOM     65  CE2 TYR A   4      -3.277  -4.184   0.000  0.00  0.00    +0.000 A 
ATOM     66  CZ  TYR A   4      -2.562  -4.596   0.000  0.00  0.00    +0.000 A 
ENDBRANCH  59  61
ENDBRANCH   1  59
TORSDOF 27
