REMARK  Name = 
REMARK  4 active torsions:
REMARK  status: ('A' for Active; 'I' for Inactive)
REMARK    1  A    between atoms: O_1  and  C_8
REMARK    2  A    between atoms: O_1  and  C_12
REMARK    3  A    between atoms: C_4  and  C_7
REMARK    4  A    between atoms: C_12  and  C_14
REMARK                            x       y       z     vdW  Elec       q    Type
REMARK                         _______ _______ _______ _____ _____    ______ ____
ROOT
ATOM      1  C   UNL     1       1.724   0.055   0.000  0.00  0.00    +0.000 A 
ATOM      2  C   UNL     1       1.010  -0.357   0.000  0.00  0.00    +0.000 A 
ATOM      3  C   UNL     1       2.439  -0.357   0.000  0.00  0.00    +0.000 A 
ATOM      4  C   UNL     1       1.010  -1.182   0.000  0.00  0.00    +0.000 A 
ATOM      5  C   UNL     1       2.439  -1.182   0.000  0.00  0.00    +0.000 A 
ATOM      6  C   UNL     1       1.724  -1.595   0.000  0.00  0.00    +0.000 A 
ENDROOT
BRANCH   1   7
ATOM      7  C   UNL     1       1.724   0.880   0.000  0.00  0.00    +0.000 C 
ATOM      8  C   UNL     1       2.137   1.595   0.000  0.00  0.00    +0.000 C 
ATOM      9  C   UNL     1       1.312   1.595   0.000  0.00  0.00    +0.000 C 
ENDBRANCH   1   7
BRANCH   2  10
ATOM     10  O   UNL     1       0.295   0.055   0.000  0.00  0.00    +0.000 OA
BRANCH  10  11
ATOM     11  C   UNL     1      -0.419  -0.357   0.000  0.00  0.00    +0.000 C 
BRANCH  11  14
ATOM     12  N   UNL     1      -1.887  -0.280   0.000  0.00  0.00    +0.000 N 
ATOM     13  N   UNL     1      -1.220   0.876   0.000  0.00  0.00    +0.000 NA
ATOM     14  C   UNL     1      -1.133   0.055   0.000  0.00  0.00    +0.000 C 
ATOM     15  C   UNL     1      -2.439   0.333   0.000  0.00  0.00    +0.000 C 
ATOM     16  C   UNL     1      -2.026   1.047   0.000  0.00  0.00    +0.000 C 
ATOM     17  H   UNL     1      -1.993  -0.781   0.000  0.00  0.00    +0.000 HD
ENDBRANCH  11  14
ENDBRANCH  10  11
ENDBRANCH   2  10
TORSDOF 4
