REMARK  Name = 
REMARK  6 active torsions:
REMARK  status: ('A' for Active; 'I' for Inactive)
REMARK    1  A    between atoms: C_1  and  C_2
REMARK    2  A    between atoms: O_3  and  C_4
REMARK    3  A    between atoms: O_3  and  C_11
REMARK    4  A    between atoms: C_4  and  C_8
REMARK    5  A    between atoms: C_4  and  C_12
REMARK    6  A    between atoms: C_12  and  C_16
REMARK                            x       y       z     vdW  Elec       q    Type
REMARK                         _______ _______ _______ _____ _____    ______ ____
ROOT
ATOM      1  O   UNL     1      -0.690  -0.010   0.000  0.00  0.00    +0.000 OA
ENDROOT
BRANCH   1   5
ATOM      2  C   UNL     1       1.453   1.263   0.000  0.00  0.00    +0.000 A 
ATOM      3  C   UNL     1       0.738   1.671   0.000  0.00  0.00    +0.000 A 
ATOM      4  C   UNL     1       1.453   0.413   0.000  0.00  0.00    +0.000 A 
ATOM      5  C   UNL     1       0.024   0.413   0.000  0.00  0.00    +0.000 A 
ATOM      6  C   UNL     1       0.024   1.263   0.000  0.00  0.00    +0.000 A 
ATOM      7  C   UNL     1       0.738   0.019   0.000  0.00  0.00    +0.000 A 
BRANCH   2   8
ATOM      8  C   UNL     1       2.157   1.681   0.000  0.00  0.00    +0.000 C 
ATOM      9  F   UNL     1       2.152   2.502   0.000  0.00  0.00    +0.000 F 
ATOM     10  F   UNL     1       2.872   1.278   0.000  0.00  0.00    +0.000 F 
ATOM     11  F   UNL     1       2.779   2.177   0.000  0.00  0.00    +0.000 F 
ENDBRANCH   2   8
ENDBRANCH   1   5
BRANCH   1  12
ATOM     12  C   UNL     1      -0.690  -0.821   0.000  0.00  0.00    +0.000 C 
BRANCH  12  13
ATOM     13  C   UNL     1      -1.428  -1.263   0.000  0.00  0.00    +0.000 A 
ATOM     14  C   UNL     1      -1.428  -2.094   0.000  0.00  0.00    +0.000 A 
ATOM     15  C   UNL     1      -2.157  -0.841   0.000  0.00  0.00    +0.000 A 
ATOM     16  C   UNL     1      -2.157  -2.502   0.000  0.00  0.00    +0.000 A 
ATOM     17  C   UNL     1      -2.872  -1.263   0.000  0.00  0.00    +0.000 A 
ATOM     18  C   UNL     1      -2.872  -2.094   0.000  0.00  0.00    +0.000 A 
ENDBRANCH  12  13
BRANCH  12  19
ATOM     19  C   UNL     1       0.024  -1.234   0.000  0.00  0.00    +0.000 C 
BRANCH  19  21
ATOM     20  N   UNL     1       1.438  -1.234   0.000  0.00  0.00    +0.000 NA
ATOM     21  C   UNL     1       0.714  -0.821   0.000  0.00  0.00    +0.000 C 
ENDBRANCH  19  21
ENDBRANCH  12  19
ENDBRANCH   1  12
TORSDOF 6
