REMARK  Name = 
REMARK  4 active torsions:
REMARK  status: ('A' for Active; 'I' for Inactive)
REMARK    1  A    between atoms: C_3  and  C_5
REMARK    2  A    between atoms: C_5  and  C_6
REMARK    3  A    between atoms: C_6  and  C_7
REMARK    4  A    between atoms: C_7  and  P_8
REMARK                            x       y       z     vdW  Elec       q    Type
REMARK                         _______ _______ _______ _____ _____    ______ ____
ROOT
ATOM      1  C   UNL     1       0.357  -0.055   0.000  0.00  0.00    +0.000 C 
ENDROOT
BRANCH   1   2
ATOM      2  C   UNL     1      -0.357  -0.468   0.000  0.00  0.00    +0.000 C 
BRANCH   2   5
ATOM      3  O   UNL     1      -2.501  -0.055   0.000  0.00  0.00    +0.000 OA
ATOM      4  N   UNL     1      -1.786  -0.468   0.000  0.00  0.00    +0.000 NA
ATOM      5  C   UNL     1      -1.072  -0.055   0.000  0.00  0.00    +0.000 C 
ATOM      6  O   UNL     1      -1.072   0.770   0.000  0.00  0.00    +0.000 OA
ENDBRANCH   2   5
ENDBRANCH   1   2
BRANCH   1   7
ATOM      7  C   UNL     1       1.072  -0.468   0.000  0.00  0.00    +0.000 C 
BRANCH   7   8
ATOM      8  P   UNL     1       1.786  -0.055   0.000  0.00  0.00    +0.000 P 
ATOM      9  O   UNL     1       2.501   0.357   0.000  0.00  0.00    +0.000 OA
ATOM     10  O   UNL     1       2.199  -0.770   0.000  0.00  0.00    +0.000 OA
ATOM     11  O   UNL     1       1.374   0.659   0.000  0.00  0.00    +0.000 OA
ENDBRANCH   7   8
ENDBRANCH   1   7
TORSDOF 4
