REMARK  Name = 
REMARK  3 active torsions:
REMARK  status: ('A' for Active; 'I' for Inactive)
REMARK    1  A    between atoms: C_8  and  C_9
REMARK    2  A    between atoms: C_9  and  C_10
REMARK    3  A    between atoms: C_14  and  C_18
REMARK                            x       y       z     vdW  Elec       q    Type
REMARK                         _______ _______ _______ _____ _____    ______ ____
ROOT
ATOM      1  C   UNL     1       0.842  -0.301   0.000  0.00  0.00    +0.000 A 
ATOM      2  C   UNL     1       0.127   0.111   0.000  0.00  0.00    +0.000 A 
ATOM      3  C   UNL     1       1.556   0.111   0.000  0.00  0.00    +0.000 A 
ATOM      4  C   UNL     1       0.842   1.348   0.000  0.00  0.00    +0.000 A 
ATOM      5  C   UNL     1       0.127   0.936   0.000  0.00  0.00    +0.000 A 
ATOM      6  C   UNL     1       1.556   0.936   0.000  0.00  0.00    +0.000 A 
ENDROOT
BRANCH   4  10
ATOM      7  F   UNL     1       0.842   2.998   0.000  0.00  0.00    +0.000 F 
ATOM      8  F   UNL     1       1.667   2.173   0.000  0.00  0.00    +0.000 F 
ATOM      9  F   UNL     1       0.017   2.173   0.000  0.00  0.00    +0.000 F 
ATOM     10  C   UNL     1       0.842   2.173   0.000  0.00  0.00    +0.000 C 
ENDBRANCH   4  10
BRANCH   1  11
ATOM     11  C   UNL     1       0.842  -1.127   0.000  0.00  0.00    +0.000 C 
BRANCH  11  16
ATOM     12  S   UNL     1      -0.627  -1.204   0.000  0.00  0.00    +0.000 S 
ATOM     13  S   UNL     1      -1.999  -1.730   0.000  0.00  0.00    +0.000 S 
ATOM     14  O   UNL     1       0.654  -2.912   0.000  0.00  0.00    +0.000 OA
ATOM     15  N   UNL     1      -0.766  -2.531   0.000  0.00  0.00    +0.000 NA
ATOM     16  C   UNL     1       0.127  -1.539   0.000  0.00  0.00    +0.000 C 
ATOM     17  C   UNL     1       0.041  -2.360   0.000  0.00  0.00    +0.000 C 
ATOM     18  C   UNL     1      -1.179  -1.817   0.000  0.00  0.00    +0.000 C 
ENDBRANCH  11  16
ENDBRANCH   1  11
TORSDOF 3
