REMARK  Name = 
REMARK  1 active torsions:
REMARK  status: ('A' for Active; 'I' for Inactive)
REMARK    1  A    between atoms: C_1  and  C_4
REMARK                            x       y       z     vdW  Elec       q    Type
REMARK                         _______ _______ _______ _____ _____    ______ ____
ROOT
ATOM      1  C   UNL     1       0.000  -0.206   0.000  0.00  0.00    +0.000 A 
ATOM      2  C   UNL     1      -0.714   0.206   0.000  0.00  0.00    +0.000 A 
ATOM      3  C   UNL     1       0.714   0.206   0.000  0.00  0.00    +0.000 A 
ATOM      4  C   UNL     1      -0.714   1.031   0.000  0.00  0.00    +0.000 A 
ATOM      5  C   UNL     1       0.714   1.031   0.000  0.00  0.00    +0.000 A 
ATOM      6  N   UNL     1       0.000   1.444   0.000  0.00  0.00    +0.000 NA
ENDROOT
BRANCH   1   7
ATOM      7  C   UNL     1       0.000  -1.031   0.000  0.00  0.00    +0.000 C 
ATOM      8  O   UNL     1       0.714  -1.444   0.000  0.00  0.00    +0.000 OA
ATOM      9  O   UNL     1      -0.714  -1.444   0.000  0.00  0.00    +0.000 OA
ENDBRANCH   1   7
TORSDOF 1
