REMARK  Name = 
REMARK  7 active torsions:
REMARK  status: ('A' for Active; 'I' for Inactive)
REMARK    1  A    between atoms: C_1  and  O_26
REMARK    2  A    between atoms: C_4  and  C_11
REMARK    3  A    between atoms: C_11  and  C_15
REMARK    4  A    between atoms: C_15  and  C_16
REMARK    5  A    between atoms: C_25  and  O_26
REMARK    6  A    between atoms: C_25  and  C_30
REMARK    7  A    between atoms: C_27  and  C_30
REMARK                            x       y       z     vdW  Elec       q    Type
REMARK                         _______ _______ _______ _____ _____    ______ ____
ROOT
ATOM      1  C   UNL     1      -0.715   0.825   0.000  0.00  0.00    +0.000 C 
ATOM      2  C   UNL     1       0.000   0.412   0.000  0.00  0.00    +0.000 C 
ATOM      3  C   UNL     1       0.000  -0.412   0.000  0.00  0.00    +0.000 C 
ATOM      4  C   UNL     1       0.715   0.825   0.000  0.00  0.00    +0.000 C 
ATOM      5  C   UNL     1      -1.429   0.412   0.000  0.00  0.00    +0.000 C 
ATOM      6  C   UNL     1       0.715  -0.825   0.000  0.00  0.00    +0.000 C 
ATOM      7  C   UNL     1      -0.715  -0.825   0.000  0.00  0.00    +0.000 C 
ATOM      8  C   UNL     1       1.429   0.412   0.000  0.00  0.00    +0.000 C 
ATOM      9  C   UNL     1      -1.429  -0.412   0.000  0.00  0.00    +0.000 C 
ATOM     10  C   UNL     1       1.429  -0.412   0.000  0.00  0.00    +0.000 C 
ATOM     11  C   UNL     1      -2.145  -0.832   0.000  0.00  0.00    +0.000 C 
ATOM     12  C   UNL     1       2.143   0.816   0.000  0.00  0.00    +0.000 C 
ENDROOT
BRANCH   4  13
ATOM     13  C   UNL     1       0.717   1.649   0.000  0.00  0.00    +0.000 C 
BRANCH  13  14
ATOM     14  C   UNL     1       1.425   2.054   0.000  0.00  0.00    +0.000 C 
BRANCH  14  15
ATOM     15  C   UNL     1       1.446   2.869   0.000  0.00  0.00    +0.000 C 
ATOM     16  O   UNL     1       2.152   3.285   0.000  0.00  0.00    +0.000 OA
ATOM     17  C   UNL     1       2.146   4.100   0.000  0.00  0.00    +0.000 C 
ATOM     18  C   UNL     1       1.437   4.503   0.000  0.00  0.00    +0.000 C 
ATOM     19  C   UNL     1       0.757   4.087   0.000  0.00  0.00    +0.000 C 
ATOM     20  C   UNL     1       0.763   3.272   0.000  0.00  0.00    +0.000 C 
ATOM     21  O   UNL     1       0.042   4.501   0.000  0.00  0.00    +0.000 OA
ATOM     22  O   UNL     1       2.853   4.516   0.000  0.00  0.00    +0.000 OA
ENDBRANCH  14  15
ENDBRANCH  13  14
ENDBRANCH   4  13
BRANCH   1  23
ATOM     23  O   UNL     1      -0.716   1.650   0.000  0.00  0.00    +0.000 OA
BRANCH  23  25
ATOM     24  O   UNL     1      -1.433   2.887   0.000  0.00  0.00    +0.000 OA
ATOM     25  C   UNL     1      -1.431   2.062   0.000  0.00  0.00    +0.000 C 
BRANCH  25  27
ATOM     26  C   UNL     1      -1.930   0.851   0.000  0.00  0.00    +0.000 C 
ATOM     27  C   UNL     1      -2.145   1.648   0.000  0.00  0.00    +0.000 C 
ATOM     28  C   UNL     1      -2.357   0.851   0.000  0.00  0.00    +0.000 C 
BRANCH  27  29
ATOM     29  C   UNL     1      -2.860   2.059   0.000  0.00  0.00    +0.000 C 
ATOM     30  C   UNL     1      -3.574   1.645   0.000  0.00  0.00    +0.000 C 
ENDBRANCH  27  29
ENDBRANCH  25  27
ENDBRANCH  23  25
ENDBRANCH   1  23
TORSDOF 7
