REMARK  Name = 
REMARK  7 active torsions:
REMARK  status: ('A' for Active; 'I' for Inactive)
REMARK    1  A    between atoms: C_17  and  C_22
REMARK    2  A    between atoms: C_22  and  C_24
REMARK    3  A    between atoms: C_24  and  O_25
REMARK    4  A    between atoms: O_25  and  C_30
REMARK    5  A    between atoms: C_30  and  C_31
REMARK    6  A    between atoms: C_31  and  C_32
REMARK    7  A    between atoms: C_32  and  C_33
REMARK                            x       y       z     vdW  Elec       q    Type
REMARK                         _______ _______ _______ _____ _____    ______ ____
ROOT
ATOM      1  C   UNL     1      -1.464  -1.984   0.000  0.00  0.00    +0.000 C 
ATOM      2  C   UNL     1      -2.179  -2.396   0.000  0.00  0.00    +0.000 C 
ATOM      3  C   UNL     1      -2.893  -1.984   0.000  0.00  0.00    +0.000 C 
ATOM      4  C   UNL     1      -3.607  -2.396   0.000  0.00  0.00    +0.000 C 
ATOM      5  C   UNL     1      -4.322  -1.159   0.000  0.00  0.00    +0.000 C 
ATOM      6  C   UNL     1      -3.607  -0.746   0.000  0.00  0.00    +0.000 C 
ATOM      7  C   UNL     1      -1.464   0.491   0.000  0.00  0.00    +0.000 C 
ATOM      8  C   UNL     1       0.520  -0.334   0.000  0.00  0.00    +0.000 C 
ATOM      9  C   UNL     1       0.035  -1.001   0.000  0.00  0.00    +0.000 C 
ATOM     10  C   UNL     1      -2.179  -0.746   0.000  0.00  0.00    +0.000 C 
ATOM     11  C   UNL     1      -0.750  -0.746   0.000  0.00  0.00    +0.000 C 
ATOM     12  C   UNL     1      -1.464  -1.159   0.000  0.00  0.00    +0.000 C 
ATOM     13  C   UNL     1      -0.750   0.079   0.000  0.00  0.00    +0.000 C 
ATOM     14  C   UNL     1       0.035   0.334   0.000  0.00  0.00    +0.000 C 
ATOM     15  C   UNL     1      -4.322  -1.984   0.000  0.00  0.00    +0.000 C 
ATOM     16  O   UNL     1      -5.037  -2.396   0.000  0.00  0.00    +0.000 OA
ATOM     17  C   UNL     1      -2.179   0.079   0.000  0.00  0.00    +0.000 C 
ATOM     18  O   UNL     1      -2.893   0.491   0.000  0.00  0.00    +0.000 OA
ATOM     19  O   UNL     1       0.750   0.746   0.000  0.00  0.00    +0.000 OA
ATOM     20  C   UNL     1      -0.750   0.904   0.000  0.00  0.00    +0.000 C 
ATOM     21  C   UNL     1      -2.893  -1.159   0.000  0.00  0.00    +0.000 C 
ATOM     22  C   UNL     1      -2.893  -0.334   0.000  0.00  0.00    +0.000 C 
ENDROOT
BRANCH  14  23
ATOM     23  C   UNL     1       0.035   1.159   0.000  0.00  0.00    +0.000 C 
ATOM     24  O   UNL     1      -0.679   1.571   0.000  0.00  0.00    +0.000 OA
BRANCH  23  25
ATOM     25  C   UNL     1       0.750   1.571   0.000  0.00  0.00    +0.000 C 
BRANCH  25  26
ATOM     26  O   UNL     1       1.464   1.159   0.000  0.00  0.00    +0.000 OA
BRANCH  26  27
ATOM     27  C   UNL     1       2.179   1.571   0.000  0.00  0.00    +0.000 C 
ATOM     28  O   UNL     1       2.179   2.396   0.000  0.00  0.00    +0.000 OA
BRANCH  27  29
ATOM     29  C   UNL     1       2.893   1.159   0.000  0.00  0.00    +0.000 C 
BRANCH  29  30
ATOM     30  C   UNL     1       3.607   1.571   0.000  0.00  0.00    +0.000 C 
BRANCH  30  31
ATOM     31  C   UNL     1       4.322   1.159   0.000  0.00  0.00    +0.000 C 
ATOM     32  O   UNL     1       5.037   1.571   0.000  0.00  0.00    +0.000 OA
ATOM     33  O   UNL     1       4.322   0.334   0.000  0.00  0.00    +0.000 OA
ENDBRANCH  30  31
ENDBRANCH  29  30
ENDBRANCH  27  29
ENDBRANCH  26  27
ENDBRANCH  25  26
ENDBRANCH  23  25
ENDBRANCH  14  23
TORSDOF 7
