REMARK  Name = 
REMARK  6 active torsions:
REMARK  status: ('A' for Active; 'I' for Inactive)
REMARK    1  A    between atoms: C_2  and  C_4
REMARK    2  A    between atoms: C_8  and  C_9
REMARK    3  A    between atoms: C_9  and  C_10
REMARK    4  A    between atoms: C_10  and  C_11
REMARK    5  A    between atoms: C_11  and  B_12
REMARK    6  A    between atoms: C_15  and  C_18
REMARK                            x       y       z     vdW  Elec       q    Type
REMARK                         _______ _______ _______ _____ _____    ______ ____
ROOT
ATOM      1  C   UNL     1      -4.136   1.939   0.000  0.00  0.00    +0.000 C 
ATOM      2  O   UNL     1      -4.472   2.693   0.000  0.00  0.00    +0.000 OA
ATOM      3  N   UNL     1      -3.316   1.853   0.000  0.00  0.00    +0.000 N 
ATOM      4  C   UNL     1      -2.764   2.466   0.000  0.00  0.00    +0.000 C 
ATOM      5  C   UNL     1      -2.010   2.130   0.000  0.00  0.00    +0.000 C 
ATOM      6  C   UNL     1      -2.096   1.310   0.000  0.00  0.00    +0.000 C 
ATOM      7  N   UNL     1      -1.271   1.310   0.000  0.00  0.00    +0.000 NA
ATOM      8  C   UNL     1      -2.903   1.138   0.000  0.00  0.00    +0.000 C 
ENDROOT
BRANCH   1  10
ATOM      9  C   UNL     1      -5.442   1.358   0.000  0.00  0.00    +0.000 C 
ATOM     10  C   UNL     1      -4.621   1.272   0.000  0.00  0.00    +0.000 C 
ATOM     11  N   UNL     1      -4.286   0.518   0.000  0.00  0.00    +0.000 NA
ENDBRANCH   1  10
BRANCH   6  12
ATOM     12  C   UNL     1      -2.010   0.489   0.000  0.00  0.00    +0.000 C 
ATOM     13  O   UNL     1      -2.678   0.004   0.000  0.00  0.00    +0.000 OA
ATOM     14  O   UNL     1      -1.256   0.154   0.000  0.00  0.00    +0.000 OA
ENDBRANCH   6  12
BRANCH   5  15
ATOM     15  C   UNL     1      -1.296   2.543   0.000  0.00  0.00    +0.000 C 
BRANCH  15  16
ATOM     16  C   UNL     1      -0.581   2.130   0.000  0.00  0.00    +0.000 C 
BRANCH  16  17
ATOM     17  C   UNL     1       0.133   2.543   0.000  0.00  0.00    +0.000 C 
BRANCH  17  18
ATOM     18  B   UNL     1       0.848   2.130   0.000  0.00  0.00    +0.000 B 
ATOM     19  O   UNL     1       1.562   2.543   0.000  0.00  0.00    +0.000 OA
ATOM     20  O   UNL     1       0.848   1.305   0.000  0.00  0.00    +0.000 OA
ENDBRANCH  17  18
ENDBRANCH  16  17
ENDBRANCH  15  16
ENDBRANCH   5  15
TORSDOF 6
