REMARK  Name = 
REMARK  3 active torsions:
REMARK  status: ('A' for Active; 'I' for Inactive)
REMARK    1  A    between atoms: CA_6  and  CB_7
REMARK    2  A    between atoms: CA_6  and  C_8
REMARK    3  A    between atoms: CB_7  and  CG_9
REMARK                            x       y       z     vdW  Elec       q    Type
REMARK                         _______ _______ _______ _____ _____    ______ ____
ROOT
ATOM      1  N   ASN A   1       0.357  -1.031   0.000  0.00  0.00    +0.000 NA
ATOM      2  CA  ASN A   1       0.357  -0.206   0.000  0.00  0.00    +0.000 C 
ENDROOT
BRANCH   2   5
ATOM      3  O   ASN A   1       1.786  -0.206   0.000  0.00  0.00    +0.000 OA
ATOM      4  OXT ASN A   1       1.072   1.031   0.000  0.00  0.00    +0.000 OA
ATOM      5  C   ASN A   1       1.072   0.206   0.000  0.00  0.00    +0.000 C 
ENDBRANCH   2   5
BRANCH   2   6
ATOM      6  CB  ASN A   1      -0.357   0.206   0.000  0.00  0.00    +0.000 C 
BRANCH   6   9
ATOM      7  OD1 ASN A   1      -1.072  -1.031   0.000  0.00  0.00    +0.000 OA
ATOM      8  ND2 ASN A   1      -1.786   0.206   0.000  0.00  0.00    +0.000 NA
ATOM      9  CG  ASN A   1      -1.072  -0.206   0.000  0.00  0.00    +0.000 C 
ENDBRANCH   6   9
ENDBRANCH   2   6
TORSDOF 3
