REMARK  Name = 
REMARK  5 active torsions:
REMARK  status: ('A' for Active; 'I' for Inactive)
REMARK    1  A    between atoms: C_2  and  C_10
REMARK    2  A    between atoms: C_3  and  N_19
REMARK    3  A    between atoms: C_6  and  C_17
REMARK    4  A    between atoms: C_10  and  C_11
REMARK    5  A    between atoms: C_11  and  C_13
REMARK                            x       y       z     vdW  Elec       q    Type
REMARK                         _______ _______ _______ _____ _____    ______ ____
ROOT
ATOM      1  O   UNL     1       0.715   1.031   0.000  0.00  0.00    +0.000 OA
ATOM      2  C   UNL     1       0.000   0.619   0.000  0.00  0.00    +0.000 C 
ATOM      3  C   UNL     1       0.000  -0.206   0.000  0.00  0.00    +0.000 C 
ATOM      4  C   UNL     1       0.715  -0.619   0.000  0.00  0.00    +0.000 C 
ATOM      5  C   UNL     1       1.429  -0.206   0.000  0.00  0.00    +0.000 C 
ATOM      6  O   UNL     1       0.714  -1.444   0.000  0.00  0.00    +0.000 OA
ATOM      7  C   UNL     1       1.429   0.619   0.000  0.00  0.00    +0.000 C 
ATOM      8  O   UNL     1       1.429   1.444   0.000  0.00  0.00    +0.000 OA
ENDROOT
BRANCH   3   9
ATOM      9  N   UNL     1      -0.715  -0.619   0.000  0.00  0.00    +0.000 NA
ATOM     10  C   UNL     1       0.000  -1.856   0.000  0.00  0.00    +0.000 C 
ATOM     11  C   UNL     1      -0.715  -1.444   0.000  0.00  0.00    +0.000 C 
ATOM     12  O   UNL     1      -1.429  -1.856   0.000  0.00  0.00    +0.000 OA
ENDBRANCH   3   9
BRANCH   7  13
ATOM     13  C   UNL     1       2.144   1.031   0.000  0.00  0.00    +0.000 C 
ATOM     14  O   UNL     1       2.858   0.619   0.000  0.00  0.00    +0.000 OA
ATOM     15  O   UNL     1       2.144   1.856   0.000  0.00  0.00    +0.000 OA
ENDBRANCH   7  13
BRANCH   2  16
ATOM     16  C   UNL     1      -0.715   1.031   0.000  0.00  0.00    +0.000 C 
ATOM     17  O   UNL     1      -0.714   1.856   0.000  0.00  0.00    +0.000 OA
BRANCH  16  18
ATOM     18  C   UNL     1      -1.429   0.619   0.000  0.00  0.00    +0.000 C 
ATOM     19  O   UNL     1      -1.429  -0.206   0.000  0.00  0.00    +0.000 OA
BRANCH  18  20
ATOM     20  C   UNL     1      -2.143   1.031   0.000  0.00  0.00    +0.000 C 
ATOM     21  O   UNL     1      -2.858   0.619   0.000  0.00  0.00    +0.000 OA
ENDBRANCH  18  20
ENDBRANCH  16  18
ENDBRANCH   2  16
TORSDOF 5
