REMARK  Name = 
REMARK  7 active torsions:
REMARK  status: ('A' for Active; 'I' for Inactive)
REMARK    1  A    between atoms: C_3  and  C_7
REMARK    2  A    between atoms: C_6  and  C_12
REMARK    3  A    between atoms: C_6  and  C_13
REMARK    4  A    between atoms: C_7  and  C_22
REMARK    5  A    between atoms: C_12  and  N_26
REMARK    6  A    between atoms: C_13  and  N_27
REMARK    7  A    between atoms: C_19  and  C_22
REMARK                            x       y       z     vdW  Elec       q    Type
REMARK                         _______ _______ _______ _____ _____    ______ ____
ROOT
ATOM      1  C   UNL     1       5.001   1.238   0.000  0.00  0.00    +0.000 A 
ATOM      2  C   UNL     1       5.001   2.062   0.000  0.00  0.00    +0.000 A 
ATOM      3  C   UNL     1       4.287   0.825   0.000  0.00  0.00    +0.000 A 
ATOM      4  C   UNL     1       4.287   2.475   0.000  0.00  0.00    +0.000 A 
ATOM      5  C   UNL     1       0.715   2.062   0.000  0.00  0.00    +0.000 A 
ATOM      6  C   UNL     1       1.429   2.475   0.000  0.00  0.00    +0.000 A 
ATOM      7  C   UNL     1       1.429   0.825   0.000  0.00  0.00    +0.000 A 
ATOM      8  C   UNL     1       0.715   1.238   0.000  0.00  0.00    +0.000 A 
ATOM      9  C   UNL     1       3.572   1.238   0.000  0.00  0.00    +0.000 A 
ATOM     10  C   UNL     1       2.143   1.238   0.000  0.00  0.00    +0.000 A 
ATOM     11  C   UNL     1       3.572   2.062   0.000  0.00  0.00    +0.000 A 
ATOM     12  C   UNL     1       2.143   2.062   0.000  0.00  0.00    +0.000 A 
ATOM     13  N   UNL     1       2.858   0.825   0.000  0.00  0.00    +0.000 N 
ATOM     14  S   UNL     1       2.858   2.475   0.000  0.00  0.00    +0.000 S 
ENDROOT
BRANCH   8  15
ATOM     15  C   UNL     1       0.000   0.825   0.000  0.00  0.00    +0.000 C 
ATOM     16  O   UNL     1       0.000   0.000   0.000  0.00  0.00    +0.000 OA
BRANCH  15  17
ATOM     17  C   UNL     1      -0.715   1.238   0.000  0.00  0.00    +0.000 C 
BRANCH  17  19
ATOM     18  C   UNL     1      -2.143   1.238   0.000  0.00  0.00    +0.000 C 
ATOM     19  C   UNL     1      -1.429   0.825   0.000  0.00  0.00    +0.000 C 
ENDBRANCH  17  19
ENDBRANCH  15  17
ENDBRANCH   8  15
BRANCH  13  20
ATOM     20  C   UNL     1       2.858   0.000   0.000  0.00  0.00    +0.000 C 
BRANCH  20  21
ATOM     21  C   UNL     1       2.143  -0.412   0.000  0.00  0.00    +0.000 C 
BRANCH  21  22
ATOM     22  C   UNL     1       2.143  -1.238   0.000  0.00  0.00    +0.000 C 
BRANCH  22  29
ATOM     23  C   UNL     1       5.001  -2.888   0.000  0.00  0.00    +0.000 C 
ATOM     24  C   UNL     1       4.287  -1.650   0.000  0.00  0.00    +0.000 C 
ATOM     25  C   UNL     1       3.572  -2.888   0.000  0.00  0.00    +0.000 C 
ATOM     26  C   UNL     1       3.572  -1.238   0.000  0.00  0.00    +0.000 C 
ATOM     27  C   UNL     1       2.858  -2.475   0.000  0.00  0.00    +0.000 C 
ATOM     28  N   UNL     1       4.287  -2.475   0.000  0.00  0.00    +0.000 NA
ATOM     29  N   UNL     1       2.858  -1.650   0.000  0.00  0.00    +0.000 NA
ENDBRANCH  22  29
ENDBRANCH  21  22
ENDBRANCH  20  21
ENDBRANCH  13  20
TORSDOF 7
