REMARK  Name = 
REMARK  4 active torsions:
REMARK  status: ('A' for Active; 'I' for Inactive)
REMARK    1  A    between atoms: O_1  and  AL_2
REMARK    2  A    between atoms: O_1  and  C_3
REMARK    3  A    between atoms: AL_2  and  O_4
REMARK    4  A    between atoms: O_4  and  C_8
REMARK                            x       y       z     vdW  Elec       q    Type
REMARK                         _______ _______ _______ _____ _____    ______ ____
ROOT
ATOM      1 AL   UNL     1      -0.357  -0.208   0.000  0.00  0.00    +0.000 Al
ATOM      2  O   UNL     1      -1.071  -0.620   0.000  0.00  0.00    +0.000 OA
ENDROOT
BRANCH   1   3
ATOM      3  O   UNL     1       0.357  -0.620   0.000  0.00  0.00    +0.000 OA
BRANCH   3   4
ATOM      4  C   UNL     1       0.357  -1.443   0.000  0.00  0.00    +0.000 C 
ATOM      5  C   UNL     1       1.071  -1.856   0.000  0.00  0.00    +0.000 C 
ATOM      6  O   UNL     1      -0.357  -1.856   0.000  0.00  0.00    +0.000 OA
ENDBRANCH   3   4
ENDBRANCH   1   3
BRANCH   1   7
ATOM      7  O   UNL     1      -0.357   0.618   0.000  0.00  0.00    +0.000 OA
BRANCH   7   8
ATOM      8  C   UNL     1       0.357   1.030   0.000  0.00  0.00    +0.000 C 
ATOM      9  C   UNL     1       0.357   1.856   0.000  0.00  0.00    +0.000 C 
ATOM     10  O   UNL     1       1.071   0.618   0.000  0.00  0.00    +0.000 OA
ENDBRANCH   7   8
ENDBRANCH   1   7
TORSDOF 4
