REMARK  Name = 
REMARK  15 active torsions:
REMARK  status: ('A' for Active; 'I' for Inactive)
REMARK    1  A    between atoms: C_1  and  C_8
REMARK    2  A    between atoms: C_1  and  C_25
REMARK    3  A    between atoms: C_4  and  C_10
REMARK    4  A    between atoms: C_10  and  O_11
REMARK    5  A    between atoms: O_11  and  P_12
REMARK    6  A    between atoms: P_12  and  N_13
REMARK    7  A    between atoms: P_12  and  O_35
REMARK    8  A    between atoms: N_13  and  C_14
REMARK    9  A    between atoms: C_14  and  C_15
REMARK   10  A    between atoms: C_15  and  O_17
REMARK   11  A    between atoms: O_17  and  C_19
REMARK   12  A    between atoms: C_19  and  C_20
REMARK   13  A    between atoms: C_20  and  C_21
REMARK   14  A    between atoms: C_20  and  C_22
REMARK   15  A    between atoms: O_35  and  C_37
REMARK                            x       y       z     vdW  Elec       q    Type
REMARK                         _______ _______ _______ _____ _____    ______ ____
ROOT
ATOM      1  O   UNL     1       1.086  -0.908   0.000  0.00  0.00    +0.000 OA
ENDROOT
BRANCH   1   2
ATOM      2  P   UNL     1       0.358  -0.495   0.000  0.00  0.00    +0.000 P 
ATOM      3  O   UNL     1       0.767   0.221   0.000  0.00  0.00    +0.000 OA
BRANCH   2   4
ATOM      4  N   UNL     1      -0.367  -0.913   0.000  0.00  0.00    +0.000 NA
BRANCH   4   5
ATOM      5  C   UNL     1      -1.102  -0.489   0.000  0.00  0.00    +0.000 C 
ATOM      6  C   UNL     1      -1.103   0.347   0.000  0.00  0.00    +0.000 C 
BRANCH   5   7
ATOM      7  C   UNL     1      -1.817  -0.901   0.000  0.00  0.00    +0.000 C 
ATOM      8  O   UNL     1      -1.817  -1.744   0.000  0.00  0.00    +0.000 OA
BRANCH   7   9
ATOM      9  O   UNL     1      -2.527  -0.492   0.000  0.00  0.00    +0.000 OA
BRANCH   9  10
ATOM     10  C   UNL     1      -3.239  -0.903   0.000  0.00  0.00    +0.000 C 
BRANCH  10  11
ATOM     11  C   UNL     1      -3.949  -0.493   0.000  0.00  0.00    +0.000 C 
BRANCH  11  12
ATOM     12  C   UNL     1      -3.950   0.347   0.000  0.00  0.00    +0.000 C 
ATOM     13  C   UNL     1      -4.662   0.758   0.000  0.00  0.00    +0.000 C 
ENDBRANCH  11  12
BRANCH  11  14
ATOM     14  C   UNL     1      -4.660  -0.904   0.000  0.00  0.00    +0.000 C 
ATOM     15  C   UNL     1      -5.372  -0.493   0.000  0.00  0.00    +0.000 C 
ENDBRANCH  11  14
ENDBRANCH  10  11
ENDBRANCH   9  10
ENDBRANCH   7   9
ENDBRANCH   5   7
ENDBRANCH   4   5
ENDBRANCH   2   4
BRANCH   2  16
ATOM     16  O   UNL     1      -0.058   0.217   0.000  0.00  0.00    +0.000 OA
BRANCH  16  17
ATOM     17  C   UNL     1       0.353   0.935   0.000  0.00  0.00    +0.000 A 
ATOM     18  C   UNL     1      -0.063   1.648   0.000  0.00  0.00    +0.000 A 
ATOM     19  C   UNL     1       1.178   0.938   0.000  0.00  0.00    +0.000 A 
ATOM     20  C   UNL     1       0.347   2.364   0.000  0.00  0.00    +0.000 A 
ATOM     21  C   UNL     1       1.587   1.654   0.000  0.00  0.00    +0.000 A 
ATOM     22  C   UNL     1       1.172   2.367   0.000  0.00  0.00    +0.000 A 
ENDBRANCH  16  17
ENDBRANCH   2  16
ENDBRANCH   1   2
BRANCH   1  23
ATOM     23  C   UNL     1       1.797  -0.489   0.000  0.00  0.00    +0.000 C 
BRANCH  23  27
ATOM     24  C   UNL     1       3.888  -0.908   0.000  0.00  0.00    +0.000 C 
ATOM     25  O   UNL     1       3.177  -0.406   0.000  0.00  0.00    +0.000 OA
ATOM     26  C   UNL     1       3.595  -1.744   0.000  0.00  0.00    +0.000 C 
ATOM     27  C   UNL     1       2.508  -0.908   0.000  0.00  0.00    +0.000 C 
ATOM     28  C   UNL     1       2.759  -1.744   0.000  0.00  0.00    +0.000 C 
ATOM     29  O   UNL     1       4.139  -2.413   0.000  0.00  0.00    +0.000 OA
ATOM     30  O   UNL     1       2.299  -2.413   0.000  0.00  0.00    +0.000 OA
BRANCH  24  31
ATOM     31  C   UNL     1       4.337  -0.213   0.000  0.00  0.00    +0.000 A 
ATOM     32  N   UNL     1       4.039   0.556   0.000  0.00  0.00    +0.000 N 
ATOM     33  C   UNL     1       5.160  -0.168   0.000  0.00  0.00    +0.000 A 
ATOM     34  C   UNL     1       4.678   1.077   0.000  0.00  0.00    +0.000 A 
ATOM     35  C   UNL     1       5.372   0.630   0.000  0.00  0.00    +0.000 A 
ATOM     36  N   UNL     1       3.268   0.850   0.000  0.00  0.00    +0.000 NA
ATOM     37  C   UNL     1       3.136   1.664   0.000  0.00  0.00    +0.000 A 
ATOM     38  C   UNL     1       4.547   1.891   0.000  0.00  0.00    +0.000 A 
ATOM     39  N   UNL     1       3.776   2.185   0.000  0.00  0.00    +0.000 NA
ATOM     40  N   UNL     1       5.188   2.413   0.000  0.00  0.00    +0.000 NA
ENDBRANCH  24  31
BRANCH  24  41
ATOM     41  C   UNL     1       4.599  -1.326   0.000  0.00  0.00    +0.000 C 
ATOM     42  N   UNL     1       5.352  -1.744   0.000  0.00  0.00    +0.000 NA
ENDBRANCH  24  41
ENDBRANCH  23  27
ENDBRANCH   1  23
TORSDOF 15
