REMARK  Name = 
REMARK  4 active torsions:
REMARK  status: ('A' for Active; 'I' for Inactive)
REMARK    1  A    between atoms: C_1  and  CA_3
REMARK    2  A    between atoms: CA_3  and  C_4
REMARK    3  A    between atoms: C_4  and  C_6
REMARK    4  A    between atoms: C_9  and  N_16
REMARK                            x       y       z     vdW  Elec       q    Type
REMARK                         _______ _______ _______ _____ _____    ______ ____
ROOT
ATOM      1  C   UNL     1       0.000   0.000   0.000  0.00  0.00    +0.000 A 
ATOM      2  C   UNL     1       0.000  -0.825   0.000  0.00  0.00    +0.000 A 
ATOM      3  C   UNL     1      -0.714   0.412   0.000  0.00  0.00    +0.000 A 
ATOM      4  C   UNL     1      -1.429   0.000   0.000  0.00  0.00    +0.000 A 
ATOM      5  C   UNL     1      -1.429  -0.825   0.000  0.00  0.00    +0.000 A 
ATOM      6  C   UNL     1      -0.714  -1.237   0.000  0.00  0.00    +0.000 A 
ATOM      7  O   UNL     1      -2.143  -1.237   0.000  0.00  0.00    +0.000 OA
ENDROOT
BRANCH   4  10
ATOM      8  O   UNL     1      -2.858   0.000   0.000  0.00  0.00    +0.000 OA
ATOM      9  O   UNL     1      -2.143   1.238   0.000  0.00  0.00    +0.000 OA
ATOM     10  N   UNL     1      -2.143   0.412   0.000  0.00  0.00    +0.000 N 
ENDBRANCH   4  10
BRANCH   1  11
ATOM     11  C   UNL     1       0.715   0.412   0.000  0.00  0.00    +0.000 C 
BRANCH  11  12
ATOM     12  CA  UNL     1       1.429   0.000   0.000  0.00  0.00    +0.000 C 
ATOM     13  N   UNL     1       1.429  -0.825   0.000  0.00  0.00    +0.000 NA
BRANCH  12  14
ATOM     14  C   UNL     1       2.143   0.412   0.000  0.00  0.00    +0.000 C 
ATOM     15  O   UNL     1       2.143   1.238   0.000  0.00  0.00    +0.000 OA
ATOM     16  OXT UNL     1       2.858   0.000   0.000  0.00  0.00    +0.000 OA
ENDBRANCH  12  14
ENDBRANCH  11  12
ENDBRANCH   1  11
TORSDOF 4
