REMARK  Name = 
REMARK  4 active torsions:
REMARK  status: ('A' for Active; 'I' for Inactive)
REMARK    1  A    between atoms: C_5  and  C_8
REMARK    2  A    between atoms: C_13  and  C_16
REMARK    3  A    between atoms: C_16  and  C_17
REMARK    4  A    between atoms: C_22  and  O_24
REMARK                            x       y       z     vdW  Elec       q    Type
REMARK                         _______ _______ _______ _____ _____    ______ ____
ROOT
ATOM      1  C   UNL     1      -1.975  -0.568   0.000  0.00  0.00    +0.000 C 
ATOM      2  N   UNL     1      -1.261  -0.156   0.000  0.00  0.00    +0.000 N 
ATOM      3  O   UNL     1      -1.975  -1.393   0.000  0.00  0.00    +0.000 OA
ATOM      4  C   UNL     1      -0.507  -0.491   0.000  0.00  0.00    +0.000 A 
ATOM      5  C   UNL     1       0.045   0.122   0.000  0.00  0.00    +0.000 A 
ATOM      6  C   UNL     1      -0.367   0.836   0.000  0.00  0.00    +0.000 A 
ATOM      7  C   UNL     1      -1.174   0.665   0.000  0.00  0.00    +0.000 A 
ATOM      8  C   UNL     1      -1.787   1.216   0.000  0.00  0.00    +0.000 C 
ATOM      9  C   UNL     1      -0.252  -1.276   0.000  0.00  0.00    +0.000 A 
ATOM     10  C   UNL     1       0.555  -1.448   0.000  0.00  0.00    +0.000 A 
ATOM     11  C   UNL     1       1.107  -0.835   0.000  0.00  0.00    +0.000 A 
ATOM     12  C   UNL     1       0.852  -0.050   0.000  0.00  0.00    +0.000 A 
ENDROOT
BRANCH   1  17
ATOM     13  C   UNL     1      -3.404   1.082   0.000  0.00  0.00    +0.000 A 
ATOM     14  C   UNL     1      -4.118   0.669   0.000  0.00  0.00    +0.000 A 
ATOM     15  C   UNL     1      -4.118  -0.156   0.000  0.00  0.00    +0.000 A 
ATOM     16  C   UNL     1      -3.404  -0.568   0.000  0.00  0.00    +0.000 A 
ATOM     17  C   UNL     1      -2.689  -0.156   0.000  0.00  0.00    +0.000 A 
ATOM     18  C   UNL     1      -2.689   0.669   0.000  0.00  0.00    +0.000 A 
ATOM     19 CL   UNL     1      -4.833   1.082   0.000  0.00  0.00    +0.000 Cl
ENDBRANCH   1  17
BRANCH  11  20
ATOM     20  O   UNL     1       1.914  -1.006   0.000  0.00  0.00    +0.000 OA
ATOM     21  C   UNL     1       2.466  -0.393   0.000  0.00  0.00    +0.000 C 
ENDBRANCH  11  20
BRANCH   6  22
ATOM     22  C   UNL     1      -0.032   1.590   0.000  0.00  0.00    +0.000 C 
BRANCH  22  23
ATOM     23  C   UNL     1      -0.517   2.257   0.000  0.00  0.00    +0.000 C 
ATOM     24  O   UNL     1      -1.337   2.171   0.000  0.00  0.00    +0.000 OA
ATOM     25  O   UNL     1      -0.181   3.011   0.000  0.00  0.00    +0.000 OA
ENDBRANCH  22  23
ENDBRANCH   6  22
TORSDOF 4
