REMARK  Name = 
REMARK  3 active torsions:
REMARK  status: ('A' for Active; 'I' for Inactive)
REMARK    1  A    between atoms: C_2  and  C_4
REMARK    2  A    between atoms: C_4  and  C_14
REMARK    3  A    between atoms: C_14  and  C_15
REMARK                            x       y       z     vdW  Elec       q    Type
REMARK                         _______ _______ _______ _____ _____    ______ ____
ROOT
ATOM      1  C   UNL     1       0.715   1.238   0.000  0.00  0.00    +0.000 C 
ATOM      2  C   UNL     1       1.429   0.825   0.000  0.00  0.00    +0.000 C 
ATOM      3  O   UNL     1       2.143   1.238   0.000  0.00  0.00    +0.000 OA
ATOM      4  N   UNL     1       1.429   0.000   0.000  0.00  0.00    +0.000 NA
ATOM      5  C   UNL     1       0.715  -0.412   0.000  0.00  0.00    +0.000 C 
ATOM      6  O   UNL     1       0.715  -1.238   0.000  0.00  0.00    +0.000 OA
ATOM      7  N   UNL     1       0.000   0.000   0.000  0.00  0.00    +0.000 N 
ATOM      8  C   UNL     1       0.000   0.825   0.000  0.00  0.00    +0.000 C 
ATOM      9  O   UNL     1      -0.715   1.238   0.000  0.00  0.00    +0.000 OA
ATOM     10  C   UNL     1      -0.715  -0.412   0.000  0.00  0.00    +0.000 C 
ENDROOT
BRANCH   1  12
ATOM     11  C   UNL     1       0.963   2.645   0.000  0.00  0.00    +0.000 C 
ATOM     12  C   UNL     1       1.245   1.869   0.000  0.00  0.00    +0.000 C 
ATOM     13  C   UNL     1       2.057   1.726   0.000  0.00  0.00    +0.000 C 
ENDBRANCH   1  12
BRANCH   1  14
ATOM     14  C   UNL     1       0.184   1.869   0.000  0.00  0.00    +0.000 C 
BRANCH  14  15
ATOM     15  C   UNL     1       0.466   2.645   0.000  0.00  0.00    +0.000 C 
ATOM     16  C   UNL     1      -0.064   3.277   0.000  0.00  0.00    +0.000 C 
ATOM     17 BR   UNL     1       1.195   3.032   0.000  0.00  0.00    +0.000 Br
ENDBRANCH  14  15
ENDBRANCH   1  14
TORSDOF 3
