REMARK  Name = 
REMARK  2 active torsions:
REMARK  status: ('A' for Active; 'I' for Inactive)
REMARK    1  A    between atoms: P_2  and  O_4
REMARK    2  A    between atoms: P_2  and  O_6
REMARK                            x       y       z     vdW  Elec       q    Type
REMARK                         _______ _______ _______ _____ _____    ______ ____
ROOT
ATOM      1  O   UNL     1      -0.825   0.000   0.000  0.00  0.00    +0.000 OA
ATOM      2  P   UNL     1       0.000   0.000   0.000  0.00  0.00    +0.000 P 
ATOM      3  O   UNL     1       0.825   0.000   0.000  0.00  0.00    +0.000 OA
ENDROOT
BRANCH   2   4
ATOM      4  O   UNL     1       0.000   0.825   0.000  0.00  0.00    +0.000 OA
ATOM      5  H   UNL     1       0.715   1.237   0.000  0.00  0.00    +0.000 HD
ENDBRANCH   2   4
BRANCH   2   6
ATOM      6  O   UNL     1       0.008  -0.825   0.000  0.00  0.00    +0.000 OA
ATOM      7  H   UNL     1      -0.715  -1.237   0.000  0.00  0.00    +0.000 HD
ENDBRANCH   2   6
TORSDOF 2
