REMARK  Name = 
REMARK  7 active torsions:
REMARK  status: ('A' for Active; 'I' for Inactive)
REMARK    1  A    between atoms: C_5  and  N_6
REMARK    2  A    between atoms: C_7  and  C_9
REMARK    3  A    between atoms: C_14  and  C_15
REMARK    4  A    between atoms: C_18  and  N_19
REMARK    5  A    between atoms: N_19  and  C_20
REMARK    6  A    between atoms: C_27  and  C_29
REMARK    7  A    between atoms: C_38  and  C_39
REMARK                            x       y       z     vdW  Elec       q    Type
REMARK                         _______ _______ _______ _____ _____    ______ ____
ROOT
ATOM      1  C   UNL     1      -0.715  -2.888   0.000  0.00  0.00    +0.000 C 
ATOM      2  C   UNL     1      -1.429  -2.475   0.000  0.00  0.00    +0.000 C 
ATOM      3  C   UNL     1      -1.429  -1.650   0.000  0.00  0.00    +0.000 C 
ATOM      4  C   UNL     1      -0.715  -1.238   0.000  0.00  0.00    +0.000 C 
ATOM      5  N   UNL     1       0.000  -1.650   0.000  0.00  0.00    +0.000 N 
ATOM      6  C   UNL     1       0.000  -2.475   0.000  0.00  0.00    +0.000 C 
ATOM      7  C   UNL     1       0.715  -1.238   0.000  0.00  0.00    +0.000 C 
ATOM      8  O   UNL     1       1.429  -1.650   0.000  0.00  0.00    +0.000 OA
ENDROOT
BRANCH   7   9
ATOM      9  C   UNL     1       0.715  -0.412   0.000  0.00  0.00    +0.000 A 
ATOM     10  C   UNL     1       0.000   0.000   0.000  0.00  0.00    +0.000 A 
ATOM     11  F   UNL     1      -0.715  -0.412   0.000  0.00  0.00    +0.000 F 
ATOM     12  C   UNL     1       0.000   0.825   0.000  0.00  0.00    +0.000 A 
ATOM     13  C   UNL     1       0.715   1.238   0.000  0.00  0.00    +0.000 A 
ATOM     14  C   UNL     1       1.429   0.825   0.000  0.00  0.00    +0.000 A 
ATOM     15  C   UNL     1       1.429   0.000   0.000  0.00  0.00    +0.000 A 
ATOM     16  C   UNL     1       2.143  -0.412   0.000  0.00  0.00    +0.000 C 
ENDBRANCH   7   9
BRANCH   6  17
ATOM     17  C   UNL     1       0.715  -2.888   0.000  0.00  0.00    +0.000 A 
ATOM     18  C   UNL     1       1.429  -2.475   0.000  0.00  0.00    +0.000 A 
ATOM     19  C   UNL     1       2.143  -2.888   0.000  0.00  0.00    +0.000 A 
ATOM     20  C   UNL     1       2.143  -3.712   0.000  0.00  0.00    +0.000 A 
ATOM     21  C   UNL     1       1.429  -4.125   0.000  0.00  0.00    +0.000 A 
ATOM     22  C   UNL     1       0.715  -3.712   0.000  0.00  0.00    +0.000 A 
BRANCH  20  23
ATOM     23  N   UNL     1       2.858  -4.125   0.000  0.00  0.00    +0.000 NA
BRANCH  23  24
ATOM     24  C   UNL     1       2.858  -4.950   0.000  0.00  0.00    +0.000 C 
ATOM     25  C   UNL     1       3.525  -5.435   0.000  0.00  0.00    +0.000 C 
ATOM     26  C   UNL     1       3.270  -6.220   0.000  0.00  0.00    +0.000 C 
ATOM     27  C   UNL     1       2.445  -6.220   0.000  0.00  0.00    +0.000 C 
ATOM     28  C   UNL     1       2.190  -5.435   0.000  0.00  0.00    +0.000 C 
ENDBRANCH  23  24
ENDBRANCH  20  23
ENDBRANCH   6  17
BRANCH   1  30
ATOM     29  N   UNL     1      -1.429  -4.125   0.000  0.00  0.00    +0.000 NA
ATOM     30  C   UNL     1      -0.715  -3.712   0.000  0.00  0.00    +0.000 C 
ATOM     31  O   UNL     1       0.000  -4.125   0.000  0.00  0.00    +0.000 OA
BRANCH  29  36
ATOM     32  C   UNL     1      -1.429  -7.425   0.000  0.00  0.00    +0.000 C 
ATOM     33  C   UNL     1      -1.429  -6.600   0.000  0.00  0.00    +0.000 A 
ATOM     34  C   UNL     1      -2.143  -6.188   0.000  0.00  0.00    +0.000 A 
ATOM     35  C   UNL     1      -2.143  -5.362   0.000  0.00  0.00    +0.000 A 
ATOM     36  C   UNL     1      -1.429  -4.950   0.000  0.00  0.00    +0.000 A 
ATOM     37  C   UNL     1      -0.715  -5.362   0.000  0.00  0.00    +0.000 A 
ATOM     38  C   UNL     1      -0.715  -6.188   0.000  0.00  0.00    +0.000 A 
BRANCH  38  39
ATOM     39  C   UNL     1       0.000  -6.600   0.000  0.00  0.00    +0.000 C 
ATOM     40  F   UNL     1       0.715  -7.013   0.000  0.00  0.00    +0.000 F 
ATOM     41  F   UNL     1      -0.412  -7.314   0.000  0.00  0.00    +0.000 F 
ATOM     42  F   UNL     1       0.412  -5.886   0.000  0.00  0.00    +0.000 F 
ENDBRANCH  38  39
ENDBRANCH  29  36
ENDBRANCH   1  30
TORSDOF 7
