REMARK  Name = 
REMARK  4 active torsions:
REMARK  status: ('A' for Active; 'I' for Inactive)
REMARK    1  A    between atoms: O_2  and  C_11
REMARK    2  A    between atoms: O_2  and  C_15
REMARK    3  A    between atoms: O_3  and  C_14
REMARK    4  A    between atoms: C_15  and  C_16
REMARK                            x       y       z     vdW  Elec       q    Type
REMARK                         _______ _______ _______ _____ _____    ______ ____
ROOT
ATOM      1  S   UNL     1       1.056   0.969   0.000  0.00  0.00    +0.000 S 
ATOM      2  O   UNL     1       2.366  -1.127   0.000  0.00  0.00    +0.000 OA
ATOM      3  N   UNL     1       1.056  -0.365   0.000  0.00  0.00    +0.000 NA
ATOM      4  N   UNL     1       2.366   0.302   0.000  0.00  0.00    +0.000 NA
ATOM      5  C   UNL     1       0.271   0.715   0.000  0.00  0.00    +0.000 A 
ATOM      6  C   UNL     1       0.271  -0.111   0.000  0.00  0.00    +0.000 A 
ATOM      7  C   UNL     1       1.541   0.302   0.000  0.00  0.00    +0.000 A 
ATOM      8  C   UNL     1      -0.443   1.127   0.000  0.00  0.00    +0.000 A 
ATOM      9  C   UNL     1      -1.158   0.715   0.000  0.00  0.00    +0.000 A 
ATOM     10  C   UNL     1      -0.443  -0.523   0.000  0.00  0.00    +0.000 A 
ATOM     11  C   UNL     1      -1.158  -0.111   0.000  0.00  0.00    +0.000 A 
ATOM     12  C   UNL     1       2.778  -0.412   0.000  0.00  0.00    +0.000 C 
ENDROOT
BRANCH  12  13
ATOM     13  O   UNL     1       3.603  -0.412   0.000  0.00  0.00    +0.000 OA
ATOM     14  C   UNL     1       4.016  -1.127   0.000  0.00  0.00    +0.000 C 
ENDBRANCH  12  13
BRANCH   9  15
ATOM     15  O   UNL     1      -1.872   1.127   0.000  0.00  0.00    +0.000 OA
BRANCH  15  16
ATOM     16  C   UNL     1      -2.587   0.715   0.000  0.00  0.00    +0.000 C 
BRANCH  16  17
ATOM     17  C   UNL     1      -3.301   1.127   0.000  0.00  0.00    +0.000 C 
ATOM     18  C   UNL     1      -4.016   0.715   0.000  0.00  0.00    +0.000 C 
ENDBRANCH  16  17
ENDBRANCH  15  16
ENDBRANCH   9  15
TORSDOF 4
