REMARK  Name = 
REMARK  3 active torsions:
REMARK  status: ('A' for Active; 'I' for Inactive)
REMARK    1  A    between atoms: C_1  and  N_9
REMARK    2  A    between atoms: C_10  and  C_11
REMARK    3  A    between atoms: C_11  and  C_12
REMARK                            x       y       z     vdW  Elec       q    Type
REMARK                         _______ _______ _______ _____ _____    ______ ____
ROOT
ATOM      1  N   UNL     1      -0.635   0.461   0.000  0.00  0.00    +0.000 NA
ATOM      2  C   UNL     1       0.080   0.049   0.000  0.00  0.00    +0.000 C 
ATOM      3  O   UNL     1       0.080  -0.776   0.000  0.00  0.00    +0.000 OA
ENDROOT
BRANCH   1   4
ATOM      4  C   UNL     1      -1.349   0.049   0.000  0.00  0.00    +0.000 A 
ATOM      5  C   UNL     1      -1.349  -0.776   0.000  0.00  0.00    +0.000 A 
ATOM      6  C   UNL     1      -2.064   0.461   0.000  0.00  0.00    +0.000 A 
ATOM      7  C   UNL     1      -2.064  -1.189   0.000  0.00  0.00    +0.000 A 
ATOM      8  C   UNL     1      -2.778   0.049   0.000  0.00  0.00    +0.000 A 
ATOM      9  C   UNL     1      -2.778  -0.776   0.000  0.00  0.00    +0.000 A 
ATOM     10  C   UNL     1      -2.064   1.286   0.000  0.00  0.00    +0.000 C 
ATOM     11  C   UNL     1      -0.635  -1.189   0.000  0.00  0.00    +0.000 C 
ENDBRANCH   1   4
BRANCH   2  12
ATOM     12  C   UNL     1       0.794   0.461   0.000  0.00  0.00    +0.000 C 
BRANCH  12  13
ATOM     13  C   UNL     1       1.509   0.049   0.000  0.00  0.00    +0.000 C 
ATOM     14  C   UNL     1       2.293   1.129   0.000  0.00  0.00    +0.000 C 
ATOM     15  C   UNL     1       2.778   0.461   0.000  0.00  0.00    +0.000 C 
ATOM     16  C   UNL     1       1.509   0.874   0.000  0.00  0.00    +0.000 C 
ATOM     17  N   UNL     1       2.293  -0.206   0.000  0.00  0.00    +0.000 NA
ATOM     18  C   UNL     1       2.293  -1.031   0.000  0.00  0.00    +0.000 C 
ATOM     19  C   UNL     1       1.509  -1.286   0.000  0.00  0.00    +0.000 C 
ATOM     20  C   UNL     1       1.024  -0.619   0.000  0.00  0.00    +0.000 C 
ENDBRANCH  12  13
ENDBRANCH   2  12
TORSDOF 3
