REMARK  Name = 
REMARK  2 active torsions:
REMARK  status: ('A' for Active; 'I' for Inactive)
REMARK    1  A    between atoms: N_5  and  C_10
REMARK    2  A    between atoms: C_13  and  C_14
REMARK                            x       y       z     vdW  Elec       q    Type
REMARK                         _______ _______ _______ _____ _____    ______ ____
ROOT
ATOM      1  O   UNL     1      -0.666  -2.915   0.000  0.00  0.00    +0.000 OA
ATOM      2  N   UNL     1       0.830  -0.601   0.000  0.00  0.00    +0.000 N 
ATOM      3  N   UNL     1      -0.666  -0.440   0.000  0.00  0.00    +0.000 N 
ATOM      4  N   UNL     1       0.830  -1.929   0.000  0.00  0.00    +0.000 NA
ATOM      5  N   UNL     1      -1.380  -1.678   0.000  0.00  0.00    +0.000 NA
ATOM      6  N   UNL     1      -2.095  -0.440   0.000  0.00  0.00    +0.000 N 
ATOM      7  C   UNL     1       0.049  -0.853   0.000  0.00  0.00    +0.000 A 
ATOM      8  C   UNL     1       1.311  -1.265   0.000  0.00  0.00    +0.000 A 
ATOM      9  C   UNL     1       0.049  -1.678   0.000  0.00  0.00    +0.000 A 
ATOM     10  C   UNL     1      -0.666  -2.090   0.000  0.00  0.00    +0.000 A 
ATOM     11  C   UNL     1      -1.380  -0.853   0.000  0.00  0.00    +0.000 A 
ATOM     12  H   UNL     1      -0.666   0.071   0.000  0.00  0.00    +0.000 HD
ATOM     13  H   UNL     1      -2.538  -0.696   0.000  0.00  0.00    +0.000 HD
ATOM     14  H   UNL     1      -2.095   0.071   0.000  0.00  0.00    +0.000 HD
ENDROOT
BRANCH   2  17
ATOM     15  O   UNL     1       0.602   0.851   0.000  0.00  0.00    +0.000 OA
ATOM     16  O   UNL     1       2.538  -0.049   0.000  0.00  0.00    +0.000 OA
ATOM     17  C   UNL     1       1.086   0.183   0.000  0.00  0.00    +0.000 C 
ATOM     18  C   UNL     1       1.871   0.436   0.000  0.00  0.00    +0.000 C 
ATOM     19  C   UNL     1       1.872   1.262   0.000  0.00  0.00    +0.000 C 
ATOM     20  C   UNL     1       1.088   1.518   0.000  0.00  0.00    +0.000 C 
BRANCH  20  22
ATOM     21  O   UNL     1       1.388   2.915   0.000  0.00  0.00    +0.000 OA
ATOM     22  C   UNL     1       0.835   2.303   0.000  0.00  0.00    +0.000 C 
ENDBRANCH  20  22
ENDBRANCH   2  17
TORSDOF 2
