REMARK  Name = 
REMARK  9 active torsions:
REMARK  status: ('A' for Active; 'I' for Inactive)
REMARK    1  A    between atoms: C_5  and  C_8
REMARK    2  A    between atoms: N_10  and  C_11
REMARK    3  A    between atoms: N_10  and  C_25
REMARK    4  A    between atoms: C_14  and  C_18
REMARK    5  A    between atoms: C_18  and  O_19
REMARK    6  A    between atoms: O_19  and  C_20
REMARK    7  A    between atoms: C_26  and  C_36
REMARK    8  A    between atoms: C_28  and  C_30
REMARK    9  A    between atoms: C_31  and  C_32
REMARK                            x       y       z     vdW  Elec       q    Type
REMARK                         _______ _______ _______ _____ _____    ______ ____
ROOT
ATOM      1  C   UNL     1       1.371   8.321   0.000  0.00  0.00    +0.000 C 
ATOM      2  O   UNL     1       0.934   7.622   0.000  0.00  0.00    +0.000 OA
ATOM      3  N   UNL     1       2.196   8.292   0.000  0.00  0.00    +0.000 N 
ENDROOT
BRANCH   1   8
ATOM      4  C   UNL     1      -0.178  11.235   0.000  0.00  0.00    +0.000 C 
ATOM      5  C   UNL     1       0.209  10.507   0.000  0.00  0.00    +0.000 C 
ATOM      6  C   UNL     1       1.034  10.478   0.000  0.00  0.00    +0.000 C 
ATOM      7  C   UNL     1       1.421   9.749   0.000  0.00  0.00    +0.000 C 
ATOM      8  C   UNL     1       0.984   9.050   0.000  0.00  0.00    +0.000 C 
ATOM      9  C   UNL     1       0.159   9.078   0.000  0.00  0.00    +0.000 C 
ATOM     10  C   UNL     1      -0.228   9.807   0.000  0.00  0.00    +0.000 C 
ENDBRANCH   1   8
BRANCH   3  11
ATOM     11  C   UNL     1       2.583   7.564   0.000  0.00  0.00    +0.000 C 
ATOM     12  C   UNL     1       3.407   7.535   0.000  0.00  0.00    +0.000 C 
ATOM     13  C   UNL     1       3.795   6.807   0.000  0.00  0.00    +0.000 C 
ATOM     14  C   UNL     1       3.357   6.107   0.000  0.00  0.00    +0.000 C 
ATOM     15  C   UNL     1       2.533   6.136   0.000  0.00  0.00    +0.000 C 
ATOM     16  C   UNL     1       2.146   6.864   0.000  0.00  0.00    +0.000 C 
ATOM     17  O   UNL     1       4.042   5.646   0.000  0.00  0.00    +0.000 OA
BRANCH  14  18
ATOM     18  C   UNL     1       3.357   5.282   0.000  0.00  0.00    +0.000 C 
BRANCH  18  19
ATOM     19  O   UNL     1       2.643   4.870   0.000  0.00  0.00    +0.000 OA
BRANCH  19  20
ATOM     20  C   UNL     1       2.643   4.045   0.000  0.00  0.00    +0.000 C 
ATOM     21  C   UNL     1       1.976   3.560   0.000  0.00  0.00    +0.000 C 
ATOM     22  O   UNL     1       2.231   2.775   0.000  0.00  0.00    +0.000 OA
ATOM     23  C   UNL     1       3.056   2.775   0.000  0.00  0.00    +0.000 C 
ATOM     24  C   UNL     1       3.311   3.560   0.000  0.00  0.00    +0.000 C 
ENDBRANCH  19  20
ENDBRANCH  18  19
ENDBRANCH  14  18
ENDBRANCH   3  11
BRANCH   3  25
ATOM     25  C   UNL     1       2.633   8.992   0.000  0.00  0.00    +0.000 A 
ATOM     26  C   UNL     1       3.456   9.050   0.000  0.00  0.00    +0.000 A 
ATOM     27  S   UNL     1       3.655   9.850   0.000  0.00  0.00    +0.000 S 
ATOM     28  C   UNL     1       2.956  10.287   0.000  0.00  0.00    +0.000 A 
ATOM     29  C   UNL     1       2.324   9.757   0.000  0.00  0.00    +0.000 A 
BRANCH  26  30
ATOM     30  C   UNL     1       3.986   8.418   0.000  0.00  0.00    +0.000 C 
ATOM     31  O   UNL     1       4.798   8.561   0.000  0.00  0.00    +0.000 OA
ATOM     32  O   UNL     1       3.704   7.642   0.000  0.00  0.00    +0.000 OA
ENDBRANCH  26  30
BRANCH  28  33
ATOM     33  C   UNL     1       2.898  11.110   0.000  0.00  0.00    +0.000 C 
ATOM     34  C   UNL     1       2.841  11.933   0.000  0.00  0.00    +0.000 C 
BRANCH  34  35
ATOM     35  C   UNL     1       2.783  12.756   0.000  0.00  0.00    +0.000 C 
ATOM     36  C   UNL     1       2.725  13.579   0.000  0.00  0.00    +0.000 C 
ATOM     37  C   UNL     1       1.960  12.699   0.000  0.00  0.00    +0.000 C 
ATOM     38  C   UNL     1       3.606  12.814   0.000  0.00  0.00    +0.000 C 
ENDBRANCH  34  35
ENDBRANCH  28  33
ENDBRANCH   3  25
TORSDOF 9
