REMARK  Name = 
REMARK  10 active torsions:
REMARK  status: ('A' for Active; 'I' for Inactive)
REMARK    1  A    between atoms: C_8  and  O_14
REMARK    2  A    between atoms: O_14  and  C_25
REMARK    3  A    between atoms: C_25  and  C_26
REMARK    4  A    between atoms: C_26  and  C_27
REMARK    5  A    between atoms: C_27  and  C_28
REMARK    6  A    between atoms: C_28  and  C_29
REMARK    7  A    between atoms: C_29  and  C_30
REMARK    8  A    between atoms: C_30  and  C_31
REMARK    9  A    between atoms: C_31  and  C_32
REMARK   10  A    between atoms: C_32  and  C_33
REMARK                            x       y       z     vdW  Elec       q    Type
REMARK                         _______ _______ _______ _____ _____    ______ ____
ROOT
ATOM      1  C   UNL     1      -2.310  -0.810   0.000  0.00  0.00    +0.000 C 
ATOM      2  C   UNL     1      -2.934  -1.244   0.000  0.00  0.00    +0.000 C 
ATOM      3  C   UNL     1      -2.274  -0.092   0.000  0.00  0.00    +0.000 C 
ATOM      4  C   UNL     1      -1.424  -1.084   0.000  0.00  0.00    +0.000 C 
ATOM      5  C   UNL     1      -3.630  -0.887   0.000  0.00  0.00    +0.000 C 
ATOM      6  C   UNL     1      -2.934  -2.079   0.000  0.00  0.00    +0.000 C 
ATOM      7  C   UNL     1      -2.956   0.276   0.000  0.00  0.00    +0.000 C 
ATOM      8  C   UNL     1      -1.453   0.276   0.000  0.00  0.00    +0.000 C 
ATOM      9  C   UNL     1      -2.485   0.911   0.000  0.00  0.00    +0.000 C 
ATOM     10  C   UNL     1      -0.946  -0.362   0.000  0.00  0.00    +0.000 C 
ATOM     11  C   UNL     1      -4.345  -1.299   0.000  0.00  0.00    +0.000 C 
ATOM     12  C   UNL     1      -3.630  -0.106   0.000  0.00  0.00    +0.000 C 
ATOM     13  C   UNL     1      -3.608  -2.484   0.000  0.00  0.00    +0.000 C 
ATOM     14  C   UNL     1      -4.330  -2.094   0.000  0.00  0.00    +0.000 C 
ATOM     15  C   UNL     1      -5.045  -0.916   0.000  0.00  0.00    +0.000 C 
ATOM     16  C   UNL     1      -5.019  -2.502   0.000  0.00  0.00    +0.000 C 
ATOM     17  C   UNL     1      -5.738  -1.328   0.000  0.00  0.00    +0.000 C 
ATOM     18  C   UNL     1      -5.738  -2.116   0.000  0.00  0.00    +0.000 C 
ATOM     19  O   UNL     1      -6.438  -2.528   0.000  0.00  0.00    +0.000 OA
ENDROOT
BRANCH   8  20
ATOM     20  O   UNL     1      -1.491   1.195   0.000  0.00  0.00    +0.000 OA
BRANCH  20  21
ATOM     21  C   UNL     1      -0.700   1.655   0.000  0.00  0.00    +0.000 C 
ATOM     22  O   UNL     1      -0.703   2.528   0.000  0.00  0.00    +0.000 OA
BRANCH  21  23
ATOM     23  C   UNL     1       0.093   1.201   0.000  0.00  0.00    +0.000 C 
BRANCH  23  24
ATOM     24  C   UNL     1       0.886   1.660   0.000  0.00  0.00    +0.000 C 
BRANCH  24  25
ATOM     25  C   UNL     1       1.679   1.206   0.000  0.00  0.00    +0.000 C 
BRANCH  25  26
ATOM     26  C   UNL     1       2.473   1.664   0.000  0.00  0.00    +0.000 C 
BRANCH  26  27
ATOM     27  C   UNL     1       3.266   1.210   0.000  0.00  0.00    +0.000 C 
BRANCH  27  28
ATOM     28  C   UNL     1       4.059   1.669   0.000  0.00  0.00    +0.000 C 
BRANCH  28  29
ATOM     29  C   UNL     1       4.852   1.215   0.000  0.00  0.00    +0.000 C 
BRANCH  29  30
ATOM     30  C   UNL     1       5.645   1.673   0.000  0.00  0.00    +0.000 C 
ATOM     31  C   UNL     1       6.438   1.219   0.000  0.00  0.00    +0.000 C 
ENDBRANCH  29  30
ENDBRANCH  28  29
ENDBRANCH  27  28
ENDBRANCH  26  27
ENDBRANCH  25  26
ENDBRANCH  24  25
ENDBRANCH  23  24
ENDBRANCH  21  23
ENDBRANCH  20  21
ENDBRANCH   8  20
TORSDOF 10
