REMARK  Name = 
REMARK  3 active torsions:
REMARK  status: ('A' for Active; 'I' for Inactive)
REMARK    1  A    between atoms: C_2  and  N_4
REMARK    2  A    between atoms: C_8  and  C_10
REMARK    3  A    between atoms: C_14  and  C_16
REMARK                            x       y       z     vdW  Elec       q    Type
REMARK                         _______ _______ _______ _____ _____    ______ ____
ROOT
ATOM      1  C   UNL     1      -0.715  -2.888   0.000  0.00  0.00    +0.000 A 
ATOM      2  C   UNL     1      -0.715  -3.712   0.000  0.00  0.00    +0.000 A 
ATOM      3  C   UNL     1      -1.429  -4.125   0.000  0.00  0.00    +0.000 A 
ATOM      4  C   UNL     1      -2.143  -3.712   0.000  0.00  0.00    +0.000 A 
ATOM      5  C   UNL     1      -2.143  -2.888   0.000  0.00  0.00    +0.000 A 
ATOM      6  C   UNL     1      -1.429  -2.475   0.000  0.00  0.00    +0.000 A 
ENDROOT
BRANCH   1  11
ATOM      7  N   UNL     1       0.715  -1.238   0.000  0.00  0.00    +0.000 NA
ATOM      8  C   UNL     1       1.429  -1.650   0.000  0.00  0.00    +0.000 C 
ATOM      9  C   UNL     1       1.429  -2.475   0.000  0.00  0.00    +0.000 C 
ATOM     10  O   UNL     1       0.715  -2.888   0.000  0.00  0.00    +0.000 OA
ATOM     11  C   UNL     1       0.000  -2.475   0.000  0.00  0.00    +0.000 C 
ATOM     12  C   UNL     1       0.000  -1.650   0.000  0.00  0.00    +0.000 C 
BRANCH   7  14
ATOM     13  C   UNL     1       1.429   0.000   0.000  0.00  0.00    +0.000 C 
ATOM     14  C   UNL     1       0.715  -0.412   0.000  0.00  0.00    +0.000 C 
ATOM     15  C   UNL     1       0.000   0.000   0.000  0.00  0.00    +0.000 C 
ENDBRANCH   7  14
ENDBRANCH   1  11
BRANCH   5  16
ATOM     16  C   UNL     1      -2.858  -2.475   0.000  0.00  0.00    +0.000 C 
ATOM     17  F   UNL     1      -3.572  -2.062   0.000  0.00  0.00    +0.000 F 
ATOM     18  F   UNL     1      -2.445  -1.760   0.000  0.00  0.00    +0.000 F 
ATOM     19  F   UNL     1      -3.270  -3.189   0.000  0.00  0.00    +0.000 F 
ENDBRANCH   5  16
TORSDOF 3
