REMARK  Name = 
REMARK  4 active torsions:
REMARK  status: ('A' for Active; 'I' for Inactive)
REMARK    1  A    between atoms: C_3  and  C_11
REMARK    2  A    between atoms: C_5  and  O_16
REMARK    3  A    between atoms: C_6  and  O_17
REMARK    4  A    between atoms: C_11  and  C_12
REMARK                            x       y       z     vdW  Elec       q    Type
REMARK                         _______ _______ _______ _____ _____    ______ ____
ROOT
ATOM      1  C   UNL     1      -0.714  -0.825   0.000  0.00  0.00    +0.000 C 
ATOM      2  C   UNL     1       0.000  -0.412   0.000  0.00  0.00    +0.000 C 
ATOM      3  C   UNL     1       0.000   0.412   0.000  0.00  0.00    +0.000 C 
ATOM      4  C   UNL     1      -0.714   0.825   0.000  0.00  0.00    +0.000 C 
ATOM      5  C   UNL     1      -1.429   0.412   0.000  0.00  0.00    +0.000 C 
ATOM      6  C   UNL     1      -1.429  -0.412   0.000  0.00  0.00    +0.000 C 
ATOM      7  O   UNL     1      -0.714   1.650   0.000  0.00  0.00    +0.000 OA
ATOM      8  O   UNL     1      -0.714  -1.650   0.000  0.00  0.00    +0.000 OA
ATOM      9  C   UNL     1       0.715  -0.825   0.000  0.00  0.00    +0.000 C 
ENDROOT
BRANCH   6  11
ATOM     10  C   UNL     1      -2.143  -1.650   0.000  0.00  0.00    +0.000 C 
ATOM     11  O   UNL     1      -2.143  -0.825   0.000  0.00  0.00    +0.000 OA
ENDBRANCH   6  11
BRANCH   5  12
ATOM     12  O   UNL     1      -2.143   0.825   0.000  0.00  0.00    +0.000 OA
ATOM     13  C   UNL     1      -2.858   0.412   0.000  0.00  0.00    +0.000 C 
ENDBRANCH   5  12
BRANCH   3  14
ATOM     14  C   UNL     1       0.714   0.825   0.000  0.00  0.00    +0.000 C 
BRANCH  14  15
ATOM     15  C   UNL     1       1.429   0.412   0.000  0.00  0.00    +0.000 C 
ATOM     16  C   UNL     1       2.143   0.825   0.000  0.00  0.00    +0.000 C 
ATOM     17  C   UNL     1       2.858   0.412   0.000  0.00  0.00    +0.000 C 
ATOM     18  C   UNL     1       2.143   1.650   0.000  0.00  0.00    +0.000 C 
ENDBRANCH  14  15
ENDBRANCH   3  14
TORSDOF 4
