REMARK  Name = 
REMARK  9 active torsions:
REMARK  status: ('A' for Active; 'I' for Inactive)
REMARK    1  A    between atoms: O_2  and  C_3
REMARK    2  A    between atoms: C_6  and  C_16
REMARK    3  A    between atoms: C_8  and  N_9
REMARK    4  A    between atoms: C_10  and  CA_12
REMARK    5  A    between atoms: CA_12  and  C_13
REMARK    6  A    between atoms: C_17  and  C_18
REMARK    7  A    between atoms: C_20  and  O_28
REMARK    8  A    between atoms: C_21  and  O_26
REMARK    9  A    between atoms: C_22  and  O_24
REMARK                            x       y       z     vdW  Elec       q    Type
REMARK                         _______ _______ _______ _____ _____    ______ ____
ROOT
ATOM      1  C   UNL     1       3.572  -0.412   0.000  0.00  0.00    +0.000 A 
ATOM      2  C   UNL     1       2.858   0.000   0.000  0.00  0.00    +0.000 A 
ATOM      3  C   UNL     1       2.143  -0.412   0.000  0.00  0.00    +0.000 A 
ATOM      4  C   UNL     1       2.143  -1.238   0.000  0.00  0.00    +0.000 A 
ATOM      5  C   UNL     1       2.858  -1.650   0.000  0.00  0.00    +0.000 A 
ATOM      6  C   UNL     1       3.572  -1.238   0.000  0.00  0.00    +0.000 A 
ENDROOT
BRANCH   6   7
ATOM      7  N   UNL     1       4.287  -1.650   0.000  0.00  0.00    +0.000 NA
ATOM      8  C   UNL     1       4.287  -2.475   0.000  0.00  0.00    +0.000 C 
ATOM      9  O   UNL     1       3.572  -2.888   0.000  0.00  0.00    +0.000 OA
BRANCH   8  10
ATOM     10  CA  UNL     1       5.001  -2.888   0.000  0.00  0.00    +0.000 C 
ATOM     11  N   UNL     1       5.001  -3.712   0.000  0.00  0.00    +0.000 NA
BRANCH  10  12
ATOM     12  C   UNL     1       5.716  -2.475   0.000  0.00  0.00    +0.000 C 
ATOM     13  O   UNL     1       6.430  -2.888   0.000  0.00  0.00    +0.000 OA
ENDBRANCH  10  12
ENDBRANCH   8  10
ENDBRANCH   6   7
BRANCH   4  14
ATOM     14  C   UNL     1       1.429  -1.650   0.000  0.00  0.00    +0.000 C 
ATOM     15  C   UNL     1       0.715  -1.238   0.000  0.00  0.00    +0.000 C 
BRANCH  15  16
ATOM     16  C   UNL     1       0.715  -0.412   0.000  0.00  0.00    +0.000 A 
ATOM     17  C   UNL     1       0.000   0.000   0.000  0.00  0.00    +0.000 A 
ATOM     18  C   UNL     1       0.000   0.825   0.000  0.00  0.00    +0.000 A 
ATOM     19  C   UNL     1       0.715   1.238   0.000  0.00  0.00    +0.000 A 
ATOM     20  C   UNL     1       1.429   0.825   0.000  0.00  0.00    +0.000 A 
ATOM     21  C   UNL     1       1.429   0.000   0.000  0.00  0.00    +0.000 A 
BRANCH  20  22
ATOM     22  O   UNL     1       2.143   1.238   0.000  0.00  0.00    +0.000 OA
ATOM     23  C   UNL     1       2.858   0.825   0.000  0.00  0.00    +0.000 C 
ENDBRANCH  20  22
BRANCH  19  24
ATOM     24  O   UNL     1       0.715   2.062   0.000  0.00  0.00    +0.000 OA
ATOM     25  C   UNL     1       0.000   2.475   0.000  0.00  0.00    +0.000 C 
ENDBRANCH  19  24
BRANCH  18  26
ATOM     26  O   UNL     1      -0.715   1.238   0.000  0.00  0.00    +0.000 OA
ATOM     27  C   UNL     1      -0.715   2.062   0.000  0.00  0.00    +0.000 C 
ENDBRANCH  18  26
ENDBRANCH  15  16
ENDBRANCH   4  14
BRANCH   1  29
ATOM     28  C   UNL     1       5.001  -0.412   0.000  0.00  0.00    +0.000 C 
ATOM     29  O   UNL     1       4.287   0.000   0.000  0.00  0.00    +0.000 OA
ENDBRANCH   1  29
TORSDOF 9
