REMARK  Name = 
REMARK  18 active torsions:
REMARK  status: ('A' for Active; 'I' for Inactive)
REMARK    1  A    between atoms: N_8  and  C_18
REMARK    2  A    between atoms: N_9  and  C_17
REMARK    3  A    between atoms: N_10  and  C_21
REMARK    4  A    between atoms: N_12  and  C_28
REMARK    5  A    between atoms: N_14  and  C_39
REMARK    6  A    between atoms: C_17  and  C_20
REMARK    7  A    between atoms: C_17  and  C_22
REMARK    8  A    between atoms: C_18  and  C_19
REMARK    9  A    between atoms: C_18  and  C_26
REMARK   10  A    between atoms: C_19  and  C_23
REMARK   11  A    between atoms: C_20  and  C_27
REMARK   12  A    between atoms: C_21  and  C_24
REMARK   13  A    between atoms: C_21  and  C_25
REMARK   14  A    between atoms: C_23  and  C_28
REMARK   15  A    between atoms: C_24  and  C_29
REMARK   16  A    between atoms: C_26  and  C_30
REMARK   17  A    between atoms: C_29  and  C_34
REMARK   18  A    between atoms: C_33  and  C_39
REMARK                            x       y       z     vdW  Elec       q    Type
REMARK                         _______ _______ _______ _____ _____    ______ ____
ROOT
ATOM      1  C   UNL     1       1.518   2.054   0.000  0.00  0.00    +0.000 C 
ENDROOT
BRANCH   1   4
ATOM      2  O   UNL     1       0.280   1.339   0.000  0.00  0.00    +0.000 OA
ATOM      3  N   UNL     1       0.280   2.768   0.000  0.00  0.00    +0.000 NA
ATOM      4  C   UNL     1       0.692   2.054   0.000  0.00  0.00    +0.000 C 
BRANCH   3   5
ATOM      5  C   UNL     1      -0.545   2.768   0.000  0.00  0.00    +0.000 C 
BRANCH   5   7
ATOM      6  O   UNL     1      -0.545   4.197   0.000  0.00  0.00    +0.000 OA
ATOM      7  C   UNL     1      -0.958   3.483   0.000  0.00  0.00    +0.000 C 
BRANCH   7  10
ATOM      8  S   UNL     1      -2.264   4.147   0.000  0.00  0.00    +0.000 S 
ATOM      9  N   UNL     1      -2.264   2.819   0.000  0.00  0.00    +0.000 NA
ATOM     10  C   UNL     1      -1.782   3.483   0.000  0.00  0.00    +0.000 A 
ATOM     11  C   UNL     1      -3.045   3.895   0.000  0.00  0.00    +0.000 A 
ATOM     12  C   UNL     1      -3.045   3.070   0.000  0.00  0.00    +0.000 A 
ATOM     13  C   UNL     1      -3.759   4.308   0.000  0.00  0.00    +0.000 A 
ATOM     14  C   UNL     1      -3.759   2.658   0.000  0.00  0.00    +0.000 A 
ATOM     15  C   UNL     1      -4.473   3.895   0.000  0.00  0.00    +0.000 A 
ATOM     16  C   UNL     1      -4.473   3.070   0.000  0.00  0.00    +0.000 A 
ENDBRANCH   7  10
ENDBRANCH   5   7
BRANCH   5  17
ATOM     17  C   UNL     1      -0.958   2.054   0.000  0.00  0.00    +0.000 C 
BRANCH  17  18
ATOM     18  C   UNL     1      -0.545   1.339   0.000  0.00  0.00    +0.000 C 
BRANCH  18  19
ATOM     19  C   UNL     1      -0.958   0.625   0.000  0.00  0.00    +0.000 C 
BRANCH  19  20
ATOM     20  N   UNL     1      -0.545  -0.089   0.000  0.00  0.00    +0.000 NA
ATOM     21  N   UNL     1      -0.545  -1.518   0.000  0.00  0.00    +0.000 NA
ATOM     22  N   UNL     1      -1.782  -0.804   0.000  0.00  0.00    +0.000 NA
ATOM     23  C   UNL     1      -0.958  -0.804   0.000  0.00  0.00    +0.000 C 
ENDBRANCH  19  20
ENDBRANCH  18  19
ENDBRANCH  17  18
ENDBRANCH   5  17
ENDBRANCH   3   5
ENDBRANCH   1   4
BRANCH   1  25
ATOM     24  O   UNL     1       0.692   0.625   0.000  0.00  0.00    +0.000 OA
ATOM     25  N   UNL     1       1.930   1.339   0.000  0.00  0.00    +0.000 NA
ATOM     26  C   UNL     1       1.518   0.625   0.000  0.00  0.00    +0.000 C 
BRANCH  26  27
ATOM     27  C   UNL     1       1.930  -0.089   0.000  0.00  0.00    +0.000 C 
BRANCH  27  29
ATOM     28  O   UNL     1       2.755  -1.518   0.000  0.00  0.00    +0.000 OA
ATOM     29  N   UNL     1       1.518  -0.804   0.000  0.00  0.00    +0.000 NA
ATOM     30  C   UNL     1       1.930  -1.518   0.000  0.00  0.00    +0.000 C 
BRANCH  30  31
ATOM     31  C   UNL     1       1.518  -2.233   0.000  0.00  0.00    +0.000 C 
BRANCH  31  33
ATOM     32  O   UNL     1       0.692  -3.662   0.000  0.00  0.00    +0.000 OA
ATOM     33  N   UNL     1       1.930  -2.947   0.000  0.00  0.00    +0.000 NA
ATOM     34  C   UNL     1       1.518  -3.662   0.000  0.00  0.00    +0.000 C 
ATOM     35  C   UNL     1       1.930  -4.376   0.000  0.00  0.00    +0.000 C 
ENDBRANCH  31  33
ENDBRANCH  30  31
ENDBRANCH  27  29
BRANCH  27  36
ATOM     36  C   UNL     1       2.755  -0.089   0.000  0.00  0.00    +0.000 C 
BRANCH  36  37
ATOM     37  C   UNL     1       3.167  -0.804   0.000  0.00  0.00    +0.000 C 
BRANCH  37  40
ATOM     38  O   UNL     1       4.405  -0.089   0.000  0.00  0.00    +0.000 OA
ATOM     39  N   UNL     1       4.405  -1.518   0.000  0.00  0.00    +0.000 NA
ATOM     40  C   UNL     1       3.993  -0.804   0.000  0.00  0.00    +0.000 C 
ENDBRANCH  37  40
ENDBRANCH  36  37
ENDBRANCH  27  36
ENDBRANCH  26  27
ENDBRANCH   1  25
BRANCH   1  41
ATOM     41  C   UNL     1       1.930   2.768   0.000  0.00  0.00    +0.000 C 
BRANCH  41  42
ATOM     42  C   UNL     1       2.755   2.768   0.000  0.00  0.00    +0.000 A 
ATOM     43  C   UNL     1       3.167   3.483   0.000  0.00  0.00    +0.000 A 
ATOM     44  C   UNL     1       3.167   2.054   0.000  0.00  0.00    +0.000 A 
ATOM     45  C   UNL     1       3.993   3.483   0.000  0.00  0.00    +0.000 A 
ATOM     46  C   UNL     1       3.993   2.054   0.000  0.00  0.00    +0.000 A 
ATOM     47  C   UNL     1       4.405   2.768   0.000  0.00  0.00    +0.000 A 
ENDBRANCH  41  42
ENDBRANCH   1  41
TORSDOF 18
