REMARK  Name = 
REMARK  4 active torsions:
REMARK  status: ('A' for Active; 'I' for Inactive)
REMARK    1  A    between atoms: C_4  and  C_22
REMARK    2  A    between atoms: C_7  and  C_8
REMARK    3  A    between atoms: C_8  and  N_9
REMARK    4  A    between atoms: C_16  and  C_17
REMARK                            x       y       z     vdW  Elec       q    Type
REMARK                         _______ _______ _______ _____ _____    ______ ____
ROOT
ATOM      1  C   UNL     1       6.234   2.098   0.000  0.00  0.00    +0.000 C 
ATOM      2  C   UNL     1       5.446   2.341   0.000  0.00  0.00    +0.000 A 
ATOM      3  C   UNL     1       4.841   1.780   0.000  0.00  0.00    +0.000 A 
ATOM      4  C   UNL     1       4.053   2.023   0.000  0.00  0.00    +0.000 A 
ATOM      5  C   UNL     1       3.869   2.828   0.000  0.00  0.00    +0.000 A 
ATOM      6  C   UNL     1       4.474   3.389   0.000  0.00  0.00    +0.000 A 
ATOM      7  C   UNL     1       5.262   3.146   0.000  0.00  0.00    +0.000 A 
ENDROOT
BRANCH   4   8
ATOM      8  C   UNL     1       3.448   1.462   0.000  0.00  0.00    +0.000 C 
ATOM      9  O   UNL     1       2.660   1.705   0.000  0.00  0.00    +0.000 OA
ATOM     10  N   UNL     1       3.631   0.658   0.000  0.00  0.00    +0.000 N 
ATOM     11  C   UNL     1       4.436   0.474   0.000  0.00  0.00    +0.000 C 
ATOM     12  C   UNL     1       4.794  -0.269   0.000  0.00  0.00    +0.000 C 
ATOM     13  C   UNL     1       4.436  -1.012   0.000  0.00  0.00    +0.000 C 
ATOM     14  C   UNL     1       3.631  -1.196   0.000  0.00  0.00    +0.000 C 
ATOM     15  C   UNL     1       2.986  -0.682   0.000  0.00  0.00    +0.000 A 
ATOM     16  C   UNL     1       2.986   0.143   0.000  0.00  0.00    +0.000 A 
ATOM     17  C   UNL     1       2.272   0.556   0.000  0.00  0.00    +0.000 A 
ATOM     18  C   UNL     1       1.558   0.143   0.000  0.00  0.00    +0.000 A 
ATOM     19  C   UNL     1       1.558  -0.682   0.000  0.00  0.00    +0.000 A 
ATOM     20  C   UNL     1       2.272  -1.094   0.000  0.00  0.00    +0.000 A 
ENDBRANCH   4   8
BRANCH   7  21
ATOM     21  C   UNL     1       5.867   3.707   0.000  0.00  0.00    +0.000 C 
BRANCH  21  22
ATOM     22  N   UNL     1       5.683   4.511   0.000  0.00  0.00    +0.000 NA
ATOM     23  C   UNL     1       6.288   5.072   0.000  0.00  0.00    +0.000 C 
ATOM     24  O   UNL     1       7.077   4.829   0.000  0.00  0.00    +0.000 OA
ATOM     25  N   UNL     1       6.105   5.876   0.000  0.00  0.00    +0.000 N 
ATOM     26  C   UNL     1       5.346   6.201   0.000  0.00  0.00    +0.000 C 
ATOM     27  C   UNL     1       5.420   7.022   0.000  0.00  0.00    +0.000 C 
ATOM     28  C   UNL     1       6.224   7.206   0.000  0.00  0.00    +0.000 C 
ATOM     29  C   UNL     1       6.647   6.498   0.000  0.00  0.00    +0.000 C 
BRANCH  29  30
ATOM     30  C   UNL     1       7.469   6.424   0.000  0.00  0.00    +0.000 C 
ATOM     31  O   UNL     1       7.816   5.675   0.000  0.00  0.00    +0.000 OA
ATOM     32  N   UNL     1       7.944   7.098   0.000  0.00  0.00    +0.000 N 
ATOM     33  C   UNL     1       8.766   7.024   0.000  0.00  0.00    +0.000 C 
ATOM     34  C   UNL     1       7.597   7.847   0.000  0.00  0.00    +0.000 C 
ENDBRANCH  29  30
ENDBRANCH  21  22
ENDBRANCH   7  21
TORSDOF 4
