REMARK  Name = 
REMARK  6 active torsions:
REMARK  status: ('A' for Active; 'I' for Inactive)
REMARK    1  A    between atoms: C_6  and  C_10
REMARK    2  A    between atoms: C_9  and  C_17
REMARK    3  A    between atoms: C_10  and  S_18
REMARK    4  A    between atoms: N_11  and  S_18
REMARK    5  A    between atoms: C_13  and  N_15
REMARK    6  A    between atoms: C_13  and  C_17
REMARK                            x       y       z     vdW  Elec       q    Type
REMARK                         _______ _______ _______ _____ _____    ______ ____
ROOT
ATOM      1  C   UNL     1      -0.025   1.923   0.000  0.00  0.00    +0.000 A 
ATOM      2  C   UNL     1       0.689   1.511   0.000  0.00  0.00    +0.000 A 
ATOM      3  C   UNL     1      -0.025   0.273   0.000  0.00  0.00    +0.000 A 
ATOM      4  C   UNL     1       0.689   0.686   0.000  0.00  0.00    +0.000 A 
ATOM      5  C   UNL     1      -0.740   1.511   0.000  0.00  0.00    +0.000 A 
ATOM      6  C   UNL     1      -0.740   0.686   0.000  0.00  0.00    +0.000 A 
ATOM      7  C   UNL     1       1.959   1.098   0.000  0.00  0.00    +0.000 A 
ATOM      8  N   UNL     1       1.474   1.766   0.000  0.00  0.00    +0.000 NA
ATOM      9  C   UNL     1       1.474   0.431   0.000  0.00  0.00    +0.000 A 
ENDROOT
BRANCH   6  10
ATOM     10  C   UNL     1      -1.454   0.273   0.000  0.00  0.00    +0.000 C 
BRANCH  10  11
ATOM     11  S   UNL     1      -2.169   0.686   0.000  0.00  0.00    +0.000 S 
ATOM     12  O   UNL     1      -2.581   1.400   0.000  0.00  0.00    +0.000 OA
ATOM     13  O   UNL     1      -1.756   1.400   0.000  0.00  0.00    +0.000 OA
BRANCH  11  14
ATOM     14  N   UNL     1      -2.883   0.273   0.000  0.00  0.00    +0.000 NA
ATOM     15  C   UNL     1      -3.598   0.686   0.000  0.00  0.00    +0.000 C 
ENDBRANCH  11  14
ENDBRANCH  10  11
ENDBRANCH   6  10
BRANCH   9  16
ATOM     16  C   UNL     1       1.729  -0.354   0.000  0.00  0.00    +0.000 C 
BRANCH  16  17
ATOM     17  C   UNL     1       2.536  -0.525   0.000  0.00  0.00    +0.000 C 
BRANCH  17  19
ATOM     18  C   UNL     1       2.239  -1.923   0.000  0.00  0.00    +0.000 C 
ATOM     19  N   UNL     1       2.791  -1.310   0.000  0.00  0.00    +0.000 NA
ATOM     20  C   UNL     1       3.598  -1.482   0.000  0.00  0.00    +0.000 C 
ENDBRANCH  17  19
ENDBRANCH  16  17
ENDBRANCH   9  16
TORSDOF 6
