REMARK  Name = 
REMARK  10 active torsions:
REMARK  status: ('A' for Active; 'I' for Inactive)
REMARK    1  A    between atoms: C_1  and  C_22
REMARK    2  A    between atoms: N_2  and  C_8
REMARK    3  A    between atoms: C_6  and  C_23
REMARK    4  A    between atoms: N_7  and  C_9
REMARK    5  A    between atoms: C_8  and  C_10
REMARK    6  A    between atoms: C_9  and  C_11
REMARK    7  A    between atoms: C_22  and  O_24
REMARK    8  A    between atoms: C_23  and  O_25
REMARK    9  A    between atoms: O_24  and  C_26
REMARK   10  A    between atoms: O_25  and  C_27
REMARK                            x       y       z     vdW  Elec       q    Type
REMARK                         _______ _______ _______ _____ _____    ______ ____
ROOT
ATOM      1  C   UNL     1      -1.053   0.268   0.000  0.00  0.00    +0.000 C 
ATOM      2  N   UNL     1      -0.869   1.075   0.000  0.00  0.00    +0.000 N 
ATOM      3  C   UNL     1      -0.535  -0.382   0.000  0.00  0.00    +0.000 C 
ATOM      4  C   UNL     1      -0.123   1.435   0.000  0.00  0.00    +0.000 C 
ATOM      5  C   UNL     1       0.290  -0.382   0.000  0.00  0.00    +0.000 C 
ATOM      6  C   UNL     1       0.807   0.268   0.000  0.00  0.00    +0.000 C 
ATOM      7  N   UNL     1       0.623   1.075   0.000  0.00  0.00    +0.000 N 
ATOM      8  O   UNL     1      -0.886  -1.049   0.000  0.00  0.00    +0.000 OA
ATOM      9  O   UNL     1       0.632  -1.049   0.000  0.00  0.00    +0.000 OA
ATOM     10  O   UNL     1      -0.123   2.155   0.000  0.00  0.00    +0.000 OA
ENDROOT
BRANCH   2  11
ATOM     11  C   UNL     1      -1.676   1.514   0.000  0.00  0.00    +0.000 C 
BRANCH  11  12
ATOM     12  C   UNL     1      -2.589   1.514   0.000  0.00  0.00    +0.000 A 
ATOM     13  C   UNL     1      -3.002   2.234   0.000  0.00  0.00    +0.000 A 
ATOM     14  C   UNL     1      -3.827   2.234   0.000  0.00  0.00    +0.000 A 
ATOM     15  C   UNL     1      -3.002   0.803   0.000  0.00  0.00    +0.000 A 
ATOM     16  C   UNL     1      -4.239   1.514   0.000  0.00  0.00    +0.000 A 
ATOM     17  C   UNL     1      -3.827   0.803   0.000  0.00  0.00    +0.000 A 
ENDBRANCH  11  12
ENDBRANCH   2  11
BRANCH   6  18
ATOM     18  C   UNL     1       1.545   0.110   0.000  0.00  0.00    +0.000 C 
BRANCH  18  19
ATOM     19  O   UNL     1       2.019  -0.531   0.000  0.00  0.00    +0.000 OA
BRANCH  19  20
ATOM     20  C   UNL     1       2.958  -0.979   0.000  0.00  0.00    +0.000 A 
ATOM     21  C   UNL     1       4.388  -0.979   0.000  0.00  0.00    +0.000 A 
ATOM     22  C   UNL     1       4.388  -1.804   0.000  0.00  0.00    +0.000 A 
ATOM     23  C   UNL     1       3.669  -0.566   0.000  0.00  0.00    +0.000 A 
ATOM     24  C   UNL     1       3.669  -2.216   0.000  0.00  0.00    +0.000 A 
ATOM     25  C   UNL     1       2.958  -1.804   0.000  0.00  0.00    +0.000 A 
ENDBRANCH  19  20
ENDBRANCH  18  19
ENDBRANCH   6  18
BRANCH   7  26
ATOM     26  C   UNL     1       1.395   1.514   0.000  0.00  0.00    +0.000 C 
BRANCH  26  27
ATOM     27  C   UNL     1       2.220   1.514   0.000  0.00  0.00    +0.000 A 
ATOM     28  C   UNL     1       3.870   1.514   0.000  0.00  0.00    +0.000 A 
ATOM     29  C   UNL     1       3.458   2.234   0.000  0.00  0.00    +0.000 A 
ATOM     30  C   UNL     1       2.633   2.234   0.000  0.00  0.00    +0.000 A 
ATOM     31  C   UNL     1       3.458   0.803   0.000  0.00  0.00    +0.000 A 
ATOM     32  C   UNL     1       2.633   0.803   0.000  0.00  0.00    +0.000 A 
ENDBRANCH  26  27
ENDBRANCH   7  26
BRANCH   1  33
ATOM     33  C   UNL     1      -1.755   0.057   0.000  0.00  0.00    +0.000 C 
BRANCH  33  34
ATOM     34  O   UNL     1      -2.124  -0.531   0.000  0.00  0.00    +0.000 OA
BRANCH  34  35
ATOM     35  C   UNL     1      -2.958  -0.996   0.000  0.00  0.00    +0.000 A 
ATOM     36  C   UNL     1      -2.958  -1.821   0.000  0.00  0.00    +0.000 A 
ATOM     37  C   UNL     1      -3.669  -0.584   0.000  0.00  0.00    +0.000 A 
ATOM     38  C   UNL     1      -3.669  -2.234   0.000  0.00  0.00    +0.000 A 
ATOM     39  C   UNL     1      -4.388  -0.996   0.000  0.00  0.00    +0.000 A 
ATOM     40  C   UNL     1      -4.388  -1.821   0.000  0.00  0.00    +0.000 A 
ENDBRANCH  34  35
ENDBRANCH  33  34
ENDBRANCH   1  33
TORSDOF 10
