REMARK  Name = 
REMARK  8 active torsions:
REMARK  status: ('A' for Active; 'I' for Inactive)
REMARK    1  A    between atoms: C_2  and  C_3
REMARK    2  A    between atoms: C_3  and  C_14
REMARK    3  A    between atoms: C_14  and  C_17
REMARK    4  A    between atoms: C_15  and  N_20
REMARK    5  A    between atoms: C_16  and  N_21
REMARK    6  A    between atoms: C_17  and  C_18
REMARK    7  A    between atoms: C_17  and  C_19
REMARK    8  A    between atoms: N_20  and  N_21
REMARK                            x       y       z     vdW  Elec       q    Type
REMARK                         _______ _______ _______ _____ _____    ______ ____
ROOT
ATOM      1  C   UNL     1       8.416   1.760   0.000  0.00  0.00    +0.000 C 
ATOM      2  N   UNL     1       9.226   1.605   0.000  0.00  0.00    +0.000 N 
ATOM      3  O   UNL     1       8.146   2.540   0.000  0.00  0.00    +0.000 OA
ENDROOT
BRANCH   2   9
ATOM      4  C   UNL     1      10.847   3.475   0.000  0.00  0.00    +0.000 A 
ATOM      5  C   UNL     1      10.037   3.631   0.000  0.00  0.00    +0.000 A 
ATOM      6  C   UNL     1      11.117   2.696   0.000  0.00  0.00    +0.000 A 
ATOM      7  C   UNL     1       9.496   3.008   0.000  0.00  0.00    +0.000 A 
ATOM      8  C   UNL     1      10.577   2.072   0.000  0.00  0.00    +0.000 A 
ATOM      9  C   UNL     1       9.766   2.228   0.000  0.00  0.00    +0.000 A 
ENDBRANCH   2   9
BRANCH   1  10
ATOM     10  C   UNL     1       7.876   1.137   0.000  0.00  0.00    +0.000 C 
BRANCH  10  11
ATOM     11  C   UNL     1       8.146   0.357   0.000  0.00  0.00    +0.000 C 
ATOM     12  O   UNL     1       8.956   0.201   0.000  0.00  0.00    +0.000 OA
ATOM     13  O   UNL     1       7.606  -0.266   0.000  0.00  0.00    +0.000 OA
ENDBRANCH  10  11
BRANCH  10  14
ATOM     14  C   UNL     1       7.066   1.293   0.000  0.00  0.00    +0.000 C 
BRANCH  14  15
ATOM     15  C   UNL     1       6.526   0.669   0.000  0.00  0.00    +0.000 C 
BRANCH  15  17
ATOM     16  C   UNL     1       5.176   0.201   0.000  0.00  0.00    +0.000 C 
ATOM     17  C   UNL     1       5.716   0.825   0.000  0.00  0.00    +0.000 C 
ENDBRANCH  15  17
ENDBRANCH  14  15
ENDBRANCH  10  14
ENDBRANCH   1  10
BRANCH   2  18
ATOM     18  N   UNL     1       9.496   0.825   0.000  0.00  0.00    +0.000 NA
BRANCH  18  24
ATOM     19  C   UNL     1      11.927   0.357   0.000  0.00  0.00    +0.000 A 
ATOM     20  C   UNL     1      11.657   1.137   0.000  0.00  0.00    +0.000 A 
ATOM     21  C   UNL     1      11.387  -0.266   0.000  0.00  0.00    +0.000 A 
ATOM     22  C   UNL     1      10.847   1.293   0.000  0.00  0.00    +0.000 A 
ATOM     23  C   UNL     1      10.577  -0.111   0.000  0.00  0.00    +0.000 A 
ATOM     24  C   UNL     1      10.306   0.669   0.000  0.00  0.00    +0.000 A 
ENDBRANCH  18  24
ENDBRANCH   2  18
TORSDOF 8
