REMARK  Name = 
REMARK  3 active torsions:
REMARK  status: ('A' for Active; 'I' for Inactive)
REMARK    1  A    between atoms: C_2  and  C_10
REMARK    2  A    between atoms: C_6  and  S_7
REMARK    3  A    between atoms: S_7  and  C_13
REMARK                            x       y       z     vdW  Elec       q    Type
REMARK                         _______ _______ _______ _____ _____    ______ ____
ROOT
ATOM      1  O   UNL     1       0.000   0.619   0.000  0.00  0.00    +0.000 OA
ATOM      2  C   UNL     1      -0.714   0.206   0.000  0.00  0.00    +0.000 C 
ATOM      3  C   UNL     1      -0.714  -0.619   0.000  0.00  0.00    +0.000 C 
ATOM      4  C   UNL     1       0.000  -1.031   0.000  0.00  0.00    +0.000 C 
ATOM      5  C   UNL     1       0.714  -0.619   0.000  0.00  0.00    +0.000 C 
ATOM      6  C   UNL     1       0.714   0.206   0.000  0.00  0.00    +0.000 C 
ATOM      7  O   UNL     1       0.000  -1.856   0.000  0.00  0.00    +0.000 OA
ATOM      8  O   UNL     1      -1.429  -1.031   0.000  0.00  0.00    +0.000 OA
ATOM      9  O   UNL     1       1.429  -1.031   0.000  0.00  0.00    +0.000 OA
ENDROOT
BRANCH   2  10
ATOM     10  C   UNL     1      -1.429   0.619   0.000  0.00  0.00    +0.000 C 
ATOM     11  O   UNL     1      -2.143   0.206   0.000  0.00  0.00    +0.000 OA
ENDBRANCH   2  10
BRANCH   6  12
ATOM     12  S   UNL     1       1.429   0.619   0.000  0.00  0.00    +0.000 S 
BRANCH  12  13
ATOM     13  C   UNL     1       1.429   1.444   0.000  0.00  0.00    +0.000 C 
ATOM     14  C   UNL     1       2.143   1.856   0.000  0.00  0.00    +0.000 C 
ATOM     15  C   UNL     1       0.714   1.856   0.000  0.00  0.00    +0.000 C 
ENDBRANCH  12  13
ENDBRANCH   6  12
TORSDOF 3
