REMARK  Name = 
REMARK  6 active torsions:
REMARK  status: ('A' for Active; 'I' for Inactive)
REMARK    1  A    between atoms: C_2  and  C_4
REMARK    2  A    between atoms: C_4  and  C_6
REMARK    3  A    between atoms: C_6  and  C_7
REMARK    4  A    between atoms: C_7  and  C_8
REMARK    5  A    between atoms: C_8  and  C_9
REMARK    6  A    between atoms: C_9  and  N_10
REMARK                            x       y       z     vdW  Elec       q    Type
REMARK                         _______ _______ _______ _____ _____    ______ ____
ROOT
ATOM      1  C   UNK     1      -0.055  -0.357   0.000  0.00  0.00    +0.000 C 
ENDROOT
BRANCH   1   2
ATOM      2  C   UNK     1       0.770  -0.357   0.000  0.00  0.00    +0.000 C 
BRANCH   2   3
ATOM      3  C   UNK     1       1.182  -1.072   0.000  0.00  0.00    +0.000 C 
ATOM      4  N   UNK     1       0.770  -1.786   0.000  0.00  0.00    +0.000 NA
BRANCH   3   6
ATOM      5  O   UNK     1       2.420  -1.786   0.000  0.00  0.00    +0.000 OA
ATOM      6  C   UNK     1       2.007  -1.072   0.000  0.00  0.00    +0.000 C 
ATOM      7  O   UNK     1       2.420  -0.357   0.000  0.00  0.00    +0.000 OA
ENDBRANCH   3   6
ENDBRANCH   2   3
ENDBRANCH   1   2
BRANCH   1   8
ATOM      8  C   UNK     1      -0.468   0.357   0.000  0.00  0.00    +0.000 C 
BRANCH   8   9
ATOM      9  C   UNK     1      -1.293   0.357   0.000  0.00  0.00    +0.000 C 
BRANCH   9  10
ATOM     10  N   UNK     1      -1.705   1.072   0.000  0.00  0.00    +0.000 N 
ATOM     11  C   UNK     1      -0.991   1.484   0.000  0.00  0.00    +0.000 C 
ATOM     12  C   UNK     1      -2.118   1.786   0.000  0.00  0.00    +0.000 C 
ATOM     13  C   UNK     1      -2.420   0.659   0.000  0.00  0.00    +0.000 C 
ENDBRANCH   9  10
ENDBRANCH   8   9
ENDBRANCH   1   8
TORSDOF 6
