REMARK  Name = 
REMARK  8 active torsions:
REMARK  status: ('A' for Active; 'I' for Inactive)
REMARK    1  A    between atoms: C_1  and  C_2
REMARK    2  A    between atoms: C_1  and  O_9
REMARK    3  A    between atoms: C_3  and  C_10
REMARK    4  A    between atoms: C_10  and  C_11
REMARK    5  A    between atoms: C_14  and  O_18
REMARK    6  A    between atoms: O_18  and  C_19
REMARK    7  A    between atoms: C_19  and  C_20
REMARK    8  A    between atoms: C_20  and  N_21
REMARK                            x       y       z     vdW  Elec       q    Type
REMARK                         _______ _______ _______ _____ _____    ______ ____
ROOT
ATOM      1  C   UNL     1       1.072  -0.206   0.000  0.00  0.00    +0.000 A 
ATOM      2  C   UNL     1       1.072  -1.031   0.000  0.00  0.00    +0.000 A 
ATOM      3  C   UNL     1       0.357  -1.444   0.000  0.00  0.00    +0.000 A 
ATOM      4  C   UNL     1      -0.357  -1.031   0.000  0.00  0.00    +0.000 A 
ATOM      5  C   UNL     1      -0.357  -0.206   0.000  0.00  0.00    +0.000 A 
ATOM      6  C   UNL     1       0.357   0.206   0.000  0.00  0.00    +0.000 A 
ENDROOT
BRANCH   1   7
ATOM      7  C   UNL     1       1.786   0.206   0.000  0.00  0.00    +0.000 C 
ATOM      8  O   UNL     1       1.786   1.031   0.000  0.00  0.00    +0.000 OA
BRANCH   7  10
ATOM      9  C   UNL     1       3.215   0.206   0.000  0.00  0.00    +0.000 A 
ATOM     10  C   UNL     1       2.501  -0.206   0.000  0.00  0.00    +0.000 A 
ATOM     11  C   UNL     1       2.501  -1.031   0.000  0.00  0.00    +0.000 A 
ATOM     12  C   UNL     1       3.215  -1.444   0.000  0.00  0.00    +0.000 A 
ATOM     13  C   UNL     1       3.929  -1.031   0.000  0.00  0.00    +0.000 A 
ATOM     14  C   UNL     1       3.929  -0.206   0.000  0.00  0.00    +0.000 A 
BRANCH   9  15
ATOM     15  C   UNL     1       3.215   1.031   0.000  0.00  0.00    +0.000 C 
ATOM     16  O   UNL     1       2.501   1.444   0.000  0.00  0.00    +0.000 OA
BRANCH  15  17
ATOM     17  O   UNL     1       3.929   1.444   0.000  0.00  0.00    +0.000 OA
ATOM     18  C   UNL     1       4.644   1.031   0.000  0.00  0.00    +0.000 C 
ENDBRANCH  15  17
ENDBRANCH   9  15
ENDBRANCH   7  10
ENDBRANCH   1   7
BRANCH   4  19
ATOM     19  O   UNL     1      -1.072  -1.444   0.000  0.00  0.00    +0.000 OA
BRANCH  19  20
ATOM     20  C   UNL     1      -1.786  -1.031   0.000  0.00  0.00    +0.000 C 
BRANCH  20  21
ATOM     21  C   UNL     1      -2.501  -1.444   0.000  0.00  0.00    +0.000 C 
BRANCH  21  22
ATOM     22  N   UNL     1      -3.215  -1.031   0.000  0.00  0.00    +0.000 NA
ATOM     23  C   UNL     1      -3.930  -1.444   0.000  0.00  0.00    +0.000 C 
ATOM     24  C   UNL     1      -4.644  -1.031   0.000  0.00  0.00    +0.000 C 
ATOM     25  C   UNL     1      -4.644  -0.206   0.000  0.00  0.00    +0.000 C 
ATOM     26  C   UNL     1      -3.930   0.206   0.000  0.00  0.00    +0.000 C 
ATOM     27  C   UNL     1      -3.215  -0.206   0.000  0.00  0.00    +0.000 C 
ENDBRANCH  21  22
ENDBRANCH  20  21
ENDBRANCH  19  20
ENDBRANCH   4  19
TORSDOF 8
