REMARK  Name = 
REMARK  3 active torsions:
REMARK  status: ('A' for Active; 'I' for Inactive)
REMARK    1  A    between atoms: S_1  and  N_2
REMARK    2  A    between atoms: S_1  and  C_5
REMARK    3  A    between atoms: N_4  and  C_15
REMARK                            x       y       z     vdW  Elec       q    Type
REMARK                         _______ _______ _______ _____ _____    ______ ____
ROOT
ATOM      1  N   UNL     1       0.244   1.131   0.000  0.00  0.00    +0.000 NA
ATOM      2  C   UNL     1      -0.474   0.718   0.000  0.00  0.00    +0.000 C 
ATOM      3  N   UNL     1      -1.115   1.069   0.000  0.00  0.00    +0.000 NA
ATOM      4  O   UNL     1      -0.474  -0.107   0.000  0.00  0.00    +0.000 OA
ENDROOT
BRANCH   3   5
ATOM      5  C   UNL     1      -1.810   0.657   0.000  0.00  0.00    +0.000 C 
ATOM      6  C   UNL     1      -2.521   1.054   0.000  0.00  0.00    +0.000 C 
ATOM      7  C   UNL     1      -1.810  -0.168   0.000  0.00  0.00    +0.000 C 
ATOM      8  C   UNL     1      -3.224   0.642   0.000  0.00  0.00    +0.000 C 
ATOM      9  C   UNL     1      -2.513  -0.581   0.000  0.00  0.00    +0.000 C 
ATOM     10  C   UNL     1      -3.224  -0.183   0.000  0.00  0.00    +0.000 C 
ATOM     11  C   UNL     1      -2.956   0.313   0.000  0.00  0.00    +0.000 C 
ATOM     12  C   UNL     1      -2.727  -1.406   0.000  0.00  0.00    +0.000 C 
ATOM     13  O   UNL     1      -1.054  -0.596   0.000  0.00  0.00    +0.000 OA
ATOM     14  C   UNL     1      -3.820   0.313   0.000  0.00  0.00    +0.000 C 
ATOM     15  C   UNL     1      -1.321   0.313   0.000  0.00  0.00    +0.000 C 
ENDBRANCH   3   5
BRANCH   1  16
ATOM     16  S   UNL     1       0.955   0.695   0.000  0.00  0.00    +0.000 S 
ATOM     17  O   UNL     1       1.383   1.406   0.000  0.00  0.00    +0.000 OA
ATOM     18  O   UNL     1       0.535  -0.038   0.000  0.00  0.00    +0.000 OA
BRANCH  16  19
ATOM     19  C   UNL     1       1.673   0.252   0.000  0.00  0.00    +0.000 A 
ATOM     20  C   UNL     1       1.673  -0.557   0.000  0.00  0.00    +0.000 A 
ATOM     21  C   UNL     1       2.376   0.665   0.000  0.00  0.00    +0.000 A 
ATOM     22  C   UNL     1       3.094   0.252   0.000  0.00  0.00    +0.000 A 
ATOM     23  C   UNL     1       2.376  -0.978   0.000  0.00  0.00    +0.000 A 
ATOM     24  C   UNL     1       3.094  -0.557   0.000  0.00  0.00    +0.000 A 
ATOM     25  C   UNL     1       3.820  -0.978   0.000  0.00  0.00    +0.000 C 
ENDBRANCH  16  19
ENDBRANCH   1  16
TORSDOF 3
