REMARK  Name = 
REMARK  5 active torsions:
REMARK  status: ('A' for Active; 'I' for Inactive)
REMARK    1  A    between atoms: C_2  and  O_4
REMARK    2  A    between atoms: O_4  and  C_5
REMARK    3  A    between atoms: C_5  and  C_6
REMARK    4  A    between atoms: C_6  and  C_7
REMARK    5  A    between atoms: C_7  and  C_8
REMARK                            x       y       z     vdW  Elec       q    Type
REMARK                         _______ _______ _______ _____ _____    ______ ____
ROOT
ATOM      1  C   UNL     1       5.001  -3.712   0.000  0.00  0.00    +0.000 C 
ENDROOT
BRANCH   1   2
ATOM      2  C   UNL     1       5.716  -4.125   0.000  0.00  0.00    +0.000 A 
ATOM      3  C   UNL     1       6.430  -3.712   0.000  0.00  0.00    +0.000 A 
ATOM      4  C   UNL     1       7.145  -4.125   0.000  0.00  0.00    +0.000 A 
ATOM      5  C   UNL     1       7.145  -4.950   0.000  0.00  0.00    +0.000 A 
ATOM      6  C   UNL     1       6.430  -5.362   0.000  0.00  0.00    +0.000 A 
ATOM      7  C   UNL     1       5.716  -4.950   0.000  0.00  0.00    +0.000 A 
ENDBRANCH   1   2
BRANCH   1   8
ATOM      8  C   UNL     1       4.287  -4.125   0.000  0.00  0.00    +0.000 C 
BRANCH   8   9
ATOM      9  C   UNL     1       3.572  -3.712   0.000  0.00  0.00    +0.000 C 
BRANCH   9  10
ATOM     10  O   UNL     1       2.858  -4.125   0.000  0.00  0.00    +0.000 OA
BRANCH  10  12
ATOM     11  N   UNL     1       1.429  -4.125   0.000  0.00  0.00    +0.000 NA
ATOM     12  C   UNL     1       2.143  -3.712   0.000  0.00  0.00    +0.000 C 
ATOM     13  O   UNL     1       2.143  -2.888   0.000  0.00  0.00    +0.000 OA
ENDBRANCH  10  12
ENDBRANCH   9  10
ENDBRANCH   8   9
ENDBRANCH   1   8
TORSDOF 5
