REMARK  Name = 
REMARK  8 active torsions:
REMARK  status: ('A' for Active; 'I' for Inactive)
REMARK    1  A    between atoms: C_1  and  C_3
REMARK    2  A    between atoms: C_3  and  N_4
REMARK    3  A    between atoms: C_3  and  C_5
REMARK    4  A    between atoms: C_3  and  O_26
REMARK    5  A    between atoms: CA_9  and  C_10
REMARK    6  A    between atoms: C_13  and  C_15
REMARK    7  A    between atoms: C_15  and  C_16
REMARK    8  A    between atoms: C_15  and  C_23
REMARK                            x       y       z     vdW  Elec       q    Type
REMARK                         _______ _______ _______ _____ _____    ______ ____
ROOT
ATOM      1  C   UNL     1      -0.828  -0.172   0.000  0.00  0.00    +0.000 C 
ENDROOT
BRANCH   1   2
ATOM      2  C   UNL     1      -1.542  -0.586   0.000  0.00  0.00    +0.000 C 
ATOM      3  O   UNL     1      -1.542  -1.414   0.000  0.00  0.00    +0.000 OA
ATOM      4  C   UNL     1      -2.255  -1.828   0.000  0.00  0.00    +0.000 C 
ATOM      5  C   UNL     1      -2.978  -1.414   0.000  0.00  0.00    +0.000 C 
ATOM      6  CA  UNL     1      -2.978  -0.586   0.000  0.00  0.00    +0.000 C 
ATOM      7  N   UNL     1      -2.255  -0.172   0.000  0.00  0.00    +0.000 NA
ATOM      8  C   UNL     1      -3.691  -1.828   0.000  0.00  0.00    +0.000 C 
BRANCH   6   9
ATOM      9  C   UNL     1      -3.691  -0.172   0.000  0.00  0.00    +0.000 C 
ATOM     10  O   UNL     1      -4.405  -0.586   0.000  0.00  0.00    +0.000 OA
ATOM     11  OXT UNL     1      -3.691   0.647   0.000  0.00  0.00    +0.000 OA
ENDBRANCH   6   9
ENDBRANCH   1   2
BRANCH   1  12
ATOM     12  N   UNL     1      -0.115   0.242   0.000  0.00  0.00    +0.000 NA
ATOM     13  C   UNL     1       0.669  -0.048   0.000  0.00  0.00    +0.000 C 
ATOM     14  O   UNL     1       0.810  -0.859   0.000  0.00  0.00    +0.000 OA
BRANCH  13  15
ATOM     15  C   UNL     1       1.295   0.489   0.000  0.00  0.00    +0.000 C 
BRANCH  15  16
ATOM     16  C   UNL     1       2.079   0.207   0.000  0.00  0.00    +0.000 A 
ATOM     17  C   UNL     1       2.704   0.736   0.000  0.00  0.00    +0.000 A 
ATOM     18  C   UNL     1       3.489   0.454   0.000  0.00  0.00    +0.000 A 
ATOM     19  C   UNL     1       3.630  -0.365   0.000  0.00  0.00    +0.000 A 
ATOM     20  O   UNL     1       4.405  -0.647   0.000  0.00  0.00    +0.000 OA
ATOM     21  C   UNL     1       2.995  -0.894   0.000  0.00  0.00    +0.000 A 
ATOM     22  C   UNL     1       2.220  -0.612   0.000  0.00  0.00    +0.000 A 
ENDBRANCH  15  16
BRANCH  15  23
ATOM     23  C   UNL     1       1.154   1.299   0.000  0.00  0.00    +0.000 C 
ATOM     24  O   UNL     1       1.788   1.828   0.000  0.00  0.00    +0.000 OA
ATOM     25  O   UNL     1       0.379   1.581   0.000  0.00  0.00    +0.000 OA
ENDBRANCH  15  23
ENDBRANCH  13  15
ENDBRANCH   1  12
BRANCH   1  26
ATOM     26  C   UNL     1      -1.242   0.542   0.000  0.00  0.00    +0.000 C 
ATOM     27  O   UNL     1      -0.828   1.255   0.000  0.00  0.00    +0.000 OA
ENDBRANCH   1  26
BRANCH   1  28
ATOM     28  O   UNL     1      -0.414  -0.894   0.000  0.00  0.00    +0.000 OA
ATOM     29  C   UNL     1      -0.828  -1.608   0.000  0.00  0.00    +0.000 C 
ENDBRANCH   1  28
TORSDOF 8
