REMARK  Name = 
REMARK  9 active torsions:
REMARK  status: ('A' for Active; 'I' for Inactive)
REMARK    1  A    between atoms: N_1  and  CA_6
REMARK    2  A    between atoms: N_1  and  C_8
REMARK    3  A    between atoms: N_2  and  CA_5
REMARK    4  A    between atoms: N_2  and  C_7
REMARK    5  A    between atoms: CA_5  and  C_9
REMARK    6  A    between atoms: CA_5  and  C_11
REMARK    7  A    between atoms: CA_6  and  C_10
REMARK    8  A    between atoms: CA_6  and  C_12
REMARK    9  A    between atoms: C_7  and  C_8
REMARK                            x       y       z     vdW  Elec       q    Type
REMARK                         _______ _______ _______ _____ _____    ______ ____
ROOT
ATOM      1  C   UNL     1       8.249  -8.168   0.000  0.00  0.00    +0.000 C 
ENDROOT
BRANCH   1   2
ATOM      2  C   UNL     1       8.940  -8.590   0.000  0.00  0.00    +0.000 C 
BRANCH   2   3
ATOM      3  N   UNL     1       9.669  -8.168   0.000  0.00  0.00    +0.000 NA
BRANCH   3   4
ATOM      4  CA  UNL     1      10.379  -8.590   0.000  0.00  0.00    +0.000 C 
BRANCH   4   5
ATOM      5  C   UNL     1      11.108  -8.168   0.000  0.00  0.00    +0.000 C 
ATOM      6  C   UNL     1      11.823  -8.580   0.000  0.00  0.00    +0.000 C 
ENDBRANCH   4   5
BRANCH   4   8
ATOM      7  O   UNL     1      11.108  -9.837   0.000  0.00  0.00    +0.000 OA
ATOM      8  C   UNL     1      10.379  -9.415   0.000  0.00  0.00    +0.000 C 
ENDBRANCH   4   8
ENDBRANCH   3   4
ENDBRANCH   2   3
ENDBRANCH   1   2
BRANCH   1   9
ATOM      9  N   UNL     1       7.501  -8.571   0.000  0.00  0.00    +0.000 NA
BRANCH   9  10
ATOM     10  CA  UNL     1       6.810  -8.168   0.000  0.00  0.00    +0.000 C 
BRANCH  10  11
ATOM     11  C   UNL     1       6.062  -8.571   0.000  0.00  0.00    +0.000 C 
ATOM     12  C   UNL     1       5.352  -8.168   0.000  0.00  0.00    +0.000 C 
ENDBRANCH  10  11
BRANCH  10  14
ATOM     13  O   UNL     1       7.501  -6.921   0.000  0.00  0.00    +0.000 OA
ATOM     14  C   UNL     1       6.810  -7.343   0.000  0.00  0.00    +0.000 C 
ENDBRANCH  10  14
ENDBRANCH   9  10
ENDBRANCH   1   9
TORSDOF 9
