REMARK  Name = 
REMARK  12 active torsions:
REMARK  status: ('A' for Active; 'I' for Inactive)
REMARK    1  A    between atoms: C_2  and  C_3
REMARK    2  A    between atoms: C_3  and  S_4
REMARK    3  A    between atoms: S_4  and  N_7
REMARK    4  A    between atoms: N_10  and  C_13
REMARK    5  A    between atoms: C_13  and  C_14
REMARK    6  A    between atoms: C_17  and  N_20
REMARK    7  A    between atoms: C_21  and  C_23
REMARK    8  A    between atoms: C_26  and  C_29
REMARK    9  A    between atoms: C_31  and  N_40
REMARK   10  A    between atoms: C_34  and  O_35
REMARK   11  A    between atoms: O_35  and  C_36
REMARK   12  A    between atoms: C_41  and  C_43
REMARK                            x       y       z     vdW  Elec       q    Type
REMARK                         _______ _______ _______ _____ _____    ______ ____
ROOT
ATOM      1  C   UNL     1      -0.412   6.489   0.000  0.00  0.00    +0.000 A 
ATOM      2  C   UNL     1      -0.412   5.665   0.000  0.00  0.00    +0.000 A 
ATOM      3  C   UNL     1      -1.127   5.252   0.000  0.00  0.00    +0.000 A 
ATOM      4  C   UNL     1      -1.841   5.665   0.000  0.00  0.00    +0.000 A 
ATOM      5  C   UNL     1      -1.841   6.489   0.000  0.00  0.00    +0.000 A 
ATOM      6  C   UNL     1      -1.127   6.902   0.000  0.00  0.00    +0.000 A 
ENDROOT
BRANCH   4   7
ATOM      7  C   UNL     1      -2.556   5.252   0.000  0.00  0.00    +0.000 A 
ATOM      8  C   UNL     1      -2.556   4.427   0.000  0.00  0.00    +0.000 A 
ATOM      9  C   UNL     1      -3.270   4.014   0.000  0.00  0.00    +0.000 A 
ATOM     10  C   UNL     1      -3.985   4.427   0.000  0.00  0.00    +0.000 A 
ATOM     11  C   UNL     1      -3.985   5.252   0.000  0.00  0.00    +0.000 A 
ATOM     12  C   UNL     1      -3.270   5.665   0.000  0.00  0.00    +0.000 A 
BRANCH   9  13
ATOM     13  N   UNL     1      -3.270   3.189   0.000  0.00  0.00    +0.000 NA
ATOM     14  C   UNL     1      -2.556   2.777   0.000  0.00  0.00    +0.000 C 
ATOM     15  O   UNL     1      -1.841   3.189   0.000  0.00  0.00    +0.000 OA
BRANCH  14  16
ATOM     16  C   UNL     1      -2.556   1.952   0.000  0.00  0.00    +0.000 C 
ATOM     17  C   UNL     1      -2.143   1.238   0.000  0.00  0.00    +0.000 C 
ATOM     18  C   UNL     1      -2.968   1.238   0.000  0.00  0.00    +0.000 C 
ENDBRANCH  14  16
ENDBRANCH   9  13
BRANCH  12  19
ATOM     19  O   UNL     1      -3.270   6.489   0.000  0.00  0.00    +0.000 OA
BRANCH  19  20
ATOM     20  C   UNL     1      -3.985   6.902   0.000  0.00  0.00    +0.000 C 
ATOM     21  F   UNL     1      -3.572   7.616   0.000  0.00  0.00    +0.000 F 
ATOM     22  F   UNL     1      -4.397   6.188   0.000  0.00  0.00    +0.000 F 
ATOM     23  F   UNL     1      -4.699   7.314   0.000  0.00  0.00    +0.000 F 
ENDBRANCH  19  20
ENDBRANCH  12  19
ENDBRANCH   4   7
BRANCH   1  25
ATOM     24  N   UNL     1       0.302   7.727   0.000  0.00  0.00    +0.000 NA
ATOM     25  C   UNL     1       0.302   6.902   0.000  0.00  0.00    +0.000 C 
ATOM     26  O   UNL     1       1.016   6.489   0.000  0.00  0.00    +0.000 OA
BRANCH  24  30
ATOM     27  C   UNL     1       2.445   8.964   0.000  0.00  0.00    +0.000 A 
ATOM     28  C   UNL     1       2.445   8.139   0.000  0.00  0.00    +0.000 A 
ATOM     29  C   UNL     1       1.731   7.727   0.000  0.00  0.00    +0.000 A 
ATOM     30  C   UNL     1       1.016   8.139   0.000  0.00  0.00    +0.000 A 
ATOM     31  C   UNL     1       1.016   8.964   0.000  0.00  0.00    +0.000 A 
ATOM     32  C   UNL     1       1.731   9.377   0.000  0.00  0.00    +0.000 A 
BRANCH  27  33
ATOM     33  C   UNL     1       3.160   9.377   0.000  0.00  0.00    +0.000 C 
BRANCH  33  37
ATOM     34  N   UNL     1       3.160  11.852   0.000  0.00  0.00    +0.000 NA
ATOM     35  C   UNL     1       3.874  11.440   0.000  0.00  0.00    +0.000 C 
ATOM     36  C   UNL     1       3.874  10.614   0.000  0.00  0.00    +0.000 C 
ATOM     37  N   UNL     1       3.160  10.202   0.000  0.00  0.00    +0.000 NA
ATOM     38  C   UNL     1       2.445  10.614   0.000  0.00  0.00    +0.000 C 
ATOM     39  C   UNL     1       2.445  11.440   0.000  0.00  0.00    +0.000 C 
BRANCH  34  40
ATOM     40  S   UNL     1       3.160  12.677   0.000  0.00  0.00    +0.000 S 
ATOM     41  O   UNL     1       2.335  12.677   0.000  0.00  0.00    +0.000 OA
ATOM     42  O   UNL     1       3.985  12.677   0.000  0.00  0.00    +0.000 OA
BRANCH  40  43
ATOM     43  C   UNL     1       3.160  13.502   0.000  0.00  0.00    +0.000 C 
BRANCH  43  45
ATOM     44  C   UNL     1       2.445  14.739   0.000  0.00  0.00    +0.000 C 
ATOM     45  C   UNL     1       2.445  13.915   0.000  0.00  0.00    +0.000 C 
ENDBRANCH  43  45
ENDBRANCH  40  43
ENDBRANCH  34  40
ENDBRANCH  33  37
ENDBRANCH  27  33
ENDBRANCH  24  30
ENDBRANCH   1  25
TORSDOF 12
