REMARK  Name = 
REMARK  3 active torsions:
REMARK  status: ('A' for Active; 'I' for Inactive)
REMARK    1  A    between atoms: N_7  and  C_10
REMARK    2  A    between atoms: C_13  and  C_16
REMARK    3  A    between atoms: C_19  and  N_22
REMARK                            x       y       z     vdW  Elec       q    Type
REMARK                         _______ _______ _______ _____ _____    ______ ____
ROOT
ATOM      1  C   UNL     1       3.094  -1.707   0.000  0.00  0.00    +0.000 A 
ATOM      2  C   UNL     1       3.901  -1.879   0.000  0.00  0.00    +0.000 A 
ATOM      3  C   UNL     1       4.156  -2.663   0.000  0.00  0.00    +0.000 A 
ATOM      4  C   UNL     1       3.604  -3.276   0.000  0.00  0.00    +0.000 A 
ATOM      5  C   UNL     1       2.797  -3.105   0.000  0.00  0.00    +0.000 A 
ATOM      6  C   UNL     1       2.542  -2.320   0.000  0.00  0.00    +0.000 A 
ENDROOT
BRANCH   1  13
ATOM      7  C   UNL     1      -0.040  -0.255   0.000  0.00  0.00    +0.000 C 
ATOM      8  N   UNL     1       0.785  -0.255   0.000  0.00  0.00    +0.000 NA
ATOM      9  C   UNL     1       1.270   0.412   0.000  0.00  0.00    +0.000 C 
ATOM     10  C   UNL     1       2.054   0.158   0.000  0.00  0.00    +0.000 C 
ATOM     11  C   UNL     1       2.839   0.412   0.000  0.00  0.00    +0.000 C 
ATOM     12  C   UNL     1       3.324  -0.255   0.000  0.00  0.00    +0.000 C 
ATOM     13  N   UNL     1       2.839  -0.922   0.000  0.00  0.00    +0.000 N 
ATOM     14  C   UNL     1       2.054  -0.667   0.000  0.00  0.00    +0.000 C 
ATOM     15  C   UNL     1       1.270  -0.922   0.000  0.00  0.00    +0.000 C 
ENDBRANCH   1  13
BRANCH   4  16
ATOM     16  C   UNL     1       3.858  -4.061   0.000  0.00  0.00    +0.000 A 
ATOM     17  C   UNL     1       4.665  -4.232   0.000  0.00  0.00    +0.000 A 
ATOM     18  C   UNL     1       4.920  -5.017   0.000  0.00  0.00    +0.000 A 
ATOM     19  C   UNL     1       4.368  -5.630   0.000  0.00  0.00    +0.000 A 
ATOM     20  C   UNL     1       3.562  -5.459   0.000  0.00  0.00    +0.000 A 
ATOM     21  C   UNL     1       3.307  -4.674   0.000  0.00  0.00    +0.000 A 
BRANCH  19  22
ATOM     22  N   UNL     1       4.623  -6.415   0.000  0.00  0.00    +0.000 N 
ATOM     23  N   UNL     1       5.430  -6.586   0.000  0.00  0.00    +0.000 NA
ATOM     24  C   UNL     1       5.685  -7.371   0.000  0.00  0.00    +0.000 A 
ATOM     25  C   UNL     1       5.133  -7.984   0.000  0.00  0.00    +0.000 A 
ATOM     26  C   UNL     1       4.326  -7.812   0.000  0.00  0.00    +0.000 A 
ATOM     27  C   UNL     1       4.071  -7.028   0.000  0.00  0.00    +0.000 A 
ATOM     28  O   UNL     1       3.264  -6.856   0.000  0.00  0.00    +0.000 OA
ENDBRANCH  19  22
ENDBRANCH   4  16
TORSDOF 3
