REMARK  Name = 
REMARK  4 active torsions:
REMARK  status: ('A' for Active; 'I' for Inactive)
REMARK    1  A    between atoms: C_1  and  C_2
REMARK    2  A    between atoms: C_2  and  C_5
REMARK    3  A    between atoms: C_13  and  C_14
REMARK    4  A    between atoms: C_14  and  C_17
REMARK                            x       y       z     vdW  Elec       q    Type
REMARK                         _______ _______ _______ _____ _____    ______ ____
ROOT
ATOM      1  C   UNL     1      -2.115  -0.552   0.000  0.00  0.00    +0.000 C 
ATOM      2  C   UNL     1      -1.860  -1.337   0.000  0.00  0.00    +0.000 C 
ATOM      3  C   UNL     1      -1.448  -0.067   0.000  0.00  0.00    +0.000 C 
ATOM      4  C   UNL     1      -1.035  -1.337   0.000  0.00  0.00    +0.000 C 
ATOM      5  O   UNL     1      -2.900  -0.297   0.000  0.00  0.00    +0.000 OA
ATOM      6  O   UNL     1      -2.345  -2.004   0.000  0.00  0.00    +0.000 OA
ATOM      7  O   UNL     1      -0.550  -2.004   0.000  0.00  0.00    +0.000 OA
ATOM      8  O   UNL     1      -0.780  -0.552   0.000  0.00  0.00    +0.000 OA
ENDROOT
BRANCH   3   9
ATOM      9  C   UNL     1      -1.448   0.758   0.000  0.00  0.00    +0.000 C 
ATOM     10  O   UNL     1      -2.162   1.170   0.000  0.00  0.00    +0.000 OA
BRANCH   9  11
ATOM     11  C   UNL     1      -0.733   1.170   0.000  0.00  0.00    +0.000 C 
ATOM     12  O   UNL     1      -0.733   1.995   0.000  0.00  0.00    +0.000 OA
ENDBRANCH   9  11
ENDBRANCH   3   9
TORSDOF 2
REMARK  Name = 
REMARK  4 active torsions:
REMARK  status: ('A' for Active; 'I' for Inactive)
REMARK    1  A    between atoms: C_1  and  C_2
REMARK    2  A    between atoms: C_2  and  C_5
REMARK    3  A    between atoms: C_13  and  C_14
REMARK    4  A    between atoms: C_14  and  C_17
REMARK                            x       y       z     vdW  Elec       q    Type
REMARK                         _______ _______ _______ _____ _____    ______ ____
ROOT
ATOM      1  C   UNL     1       2.120  -0.543   0.000  0.00  0.00    +0.000 C 
ATOM      2  C   UNL     1       2.375  -1.328   0.000  0.00  0.00    +0.000 C 
ATOM      3  C   UNL     1       2.787  -0.058   0.000  0.00  0.00    +0.000 C 
ATOM      4  C   UNL     1       3.200  -1.328   0.000  0.00  0.00    +0.000 C 
ATOM      5  O   UNL     1       1.335  -0.288   0.000  0.00  0.00    +0.000 OA
ATOM      6  O   UNL     1       1.890  -1.995   0.000  0.00  0.00    +0.000 OA
ATOM      7  O   UNL     1       3.685  -1.995   0.000  0.00  0.00    +0.000 OA
ATOM      8  O   UNL     1       3.455  -0.543   0.000  0.00  0.00    +0.000 OA
ENDROOT
BRANCH   3   9
ATOM      9  C   UNL     1       2.787   0.766   0.000  0.00  0.00    +0.000 C 
ATOM     10  O   UNL     1       2.073   1.179   0.000  0.00  0.00    +0.000 OA
BRANCH   9  11
ATOM     11  C   UNL     1       3.502   1.179   0.000  0.00  0.00    +0.000 C 
ATOM     12  O   UNL     1       3.502   2.004   0.000  0.00  0.00    +0.000 OA
ENDBRANCH   9  11
ENDBRANCH   3   9
TORSDOF 2
REMARK  Name = 
REMARK  4 active torsions:
REMARK  status: ('A' for Active; 'I' for Inactive)
REMARK    1  A    between atoms: C_1  and  C_2
REMARK    2  A    between atoms: C_2  and  C_5
REMARK    3  A    between atoms: C_13  and  C_14
REMARK    4  A    between atoms: C_14  and  C_17
REMARK                            x       y       z     vdW  Elec       q    Type
REMARK                         _______ _______ _______ _____ _____    ______ ____
ROOT
ATOM      1 FE   UNL     1      -3.685  -0.042   0.000  0.00  0.00    +0.000 Fe
ENDROOT
TORSDOF 0
