REMARK  Name = 
REMARK  6 active torsions:
REMARK  status: ('A' for Active; 'I' for Inactive)
REMARK    1  A    between atoms: O_2  and  C_3
REMARK    2  A    between atoms: C_5  and  O_6
REMARK    3  A    between atoms: O_6  and  C_7
REMARK    4  A    between atoms: C_10  and  C_13
REMARK    5  A    between atoms: C_15  and  C_34
REMARK    6  A    between atoms: C_16  and  C_27
REMARK                            x       y       z     vdW  Elec       q    Type
REMARK                         _______ _______ _______ _____ _____    ______ ____
ROOT
ATOM      1  C   UNL     1       0.715  -1.238   0.000  0.00  0.00    +0.000 C 
ATOM      2  N   UNL     1       1.382  -1.722   0.000  0.00  0.00    +0.000 NA
ATOM      3  C   UNL     1       1.127  -2.507   0.000  0.00  0.00    +0.000 C 
ATOM      4  C   UNL     1       0.302  -2.507   0.000  0.00  0.00    +0.000 C 
ATOM      5  N   UNL     1       0.047  -1.722   0.000  0.00  0.00    +0.000 N 
ATOM      6  C   UNL     1      -0.828  -1.515   0.000  0.00  0.00    +0.000 C 
ATOM      7  O   UNL     1      -1.705  -1.640   0.000  0.00  0.00    +0.000 OA
ATOM      8  N   UNL     1      -0.909  -0.660   0.000  0.00  0.00    +0.000 N 
ATOM      9  C   UNL     1      -1.694  -0.406   0.000  0.00  0.00    +0.000 C 
ATOM     10  C   UNL     1      -1.865   0.401   0.000  0.00  0.00    +0.000 C 
ATOM     11  N   UNL     1      -1.252   0.953   0.000  0.00  0.00    +0.000 NA
ATOM     12  C   UNL     1      -0.468   0.699   0.000  0.00  0.00    +0.000 C 
ATOM     13  O   UNL     1       0.334   1.174   0.000  0.00  0.00    +0.000 OA
ATOM     14  C   UNL     1      -0.296  -0.108   0.000  0.00  0.00    +0.000 C 
ENDROOT
BRANCH   3  15
ATOM     15  C   UNL     1       1.612  -3.175   0.000  0.00  0.00    +0.000 A 
ATOM     16  C   UNL     1       2.432  -3.088   0.000  0.00  0.00    +0.000 A 
ATOM     17  C   UNL     1       2.917  -3.756   0.000  0.00  0.00    +0.000 A 
ATOM     18  C   UNL     1       2.582  -4.509   0.000  0.00  0.00    +0.000 A 
ATOM     19 CL   UNL     1       3.103  -5.190   0.000  0.00  0.00    +0.000 Cl
ATOM     20  C   UNL     1       1.761  -4.596   0.000  0.00  0.00    +0.000 A 
ATOM     21  C   UNL     1       1.276  -3.928   0.000  0.00  0.00    +0.000 A 
ENDBRANCH   3  15
BRANCH   4  22
ATOM     22  C   UNL     1      -0.183  -3.175   0.000  0.00  0.00    +0.000 A 
ATOM     23  C   UNL     1       0.153  -3.928   0.000  0.00  0.00    +0.000 A 
ATOM     24  C   UNL     1      -0.332  -4.596   0.000  0.00  0.00    +0.000 A 
ATOM     25  C   UNL     1      -1.153  -4.509   0.000  0.00  0.00    +0.000 A 
ATOM     26 CL   UNL     1      -1.670  -5.194   0.000  0.00  0.00    +0.000 Cl
ATOM     27  C   UNL     1      -1.488  -3.756   0.000  0.00  0.00    +0.000 A 
ATOM     28  C   UNL     1      -1.003  -3.088   0.000  0.00  0.00    +0.000 A 
ENDBRANCH   4  22
BRANCH   1  32
ATOM     29  C   UNL     1       2.169   0.765   0.000  0.00  0.00    +0.000 A 
ATOM     30  C   UNL     1       1.349   0.851   0.000  0.00  0.00    +0.000 A 
ATOM     31  C   UNL     1       0.864   0.184   0.000  0.00  0.00    +0.000 A 
ATOM     32  C   UNL     1       1.199  -0.570   0.000  0.00  0.00    +0.000 A 
ATOM     33  C   UNL     1       2.020  -0.656   0.000  0.00  0.00    +0.000 A 
ATOM     34  C   UNL     1       2.505   0.011   0.000  0.00  0.00    +0.000 A 
BRANCH  29  36
ATOM     35  C   UNL     1       3.591   1.477   0.000  0.00  0.00    +0.000 C 
ATOM     36  O   UNL     1       2.739   1.446   0.000  0.00  0.00    +0.000 OA
ENDBRANCH  29  36
BRANCH  31  37
ATOM     37  O   UNL     1       0.119   0.492   0.000  0.00  0.00    +0.000 OA
BRANCH  37  38
ATOM     38  C   UNL     1      -0.227   1.430   0.000  0.00  0.00    +0.000 C 
ATOM     39  C   UNL     1      -1.053   1.647   0.000  0.00  0.00    +0.000 C 
ATOM     40  C   UNL     1      -0.115   2.321   0.000  0.00  0.00    +0.000 C 
ENDBRANCH  37  38
ENDBRANCH  31  37
ENDBRANCH   1  32
TORSDOF 6
