REMARK  Name = 
REMARK  8 active torsions:
REMARK  status: ('A' for Active; 'I' for Inactive)
REMARK    1  A    between atoms: P_1  and  O_6
REMARK    2  A    between atoms: P_1  and  O_8
REMARK    3  A    between atoms: P_2  and  O_8
REMARK    4  A    between atoms: P_2  and  O_12
REMARK    5  A    between atoms: O_6  and  C_21
REMARK    6  A    between atoms: O_12  and  C_26
REMARK    7  A    between atoms: N_15  and  C_20
REMARK    8  A    between atoms: C_19  and  C_21
REMARK                            x       y       z     vdW  Elec       q    Type
REMARK                         _______ _______ _______ _____ _____    ______ ____
ROOT
ATOM      1  O   UNL     1      -1.666   0.416   0.000  0.00  0.00    +0.000 OA
ATOM      2  O   UNL     1      -3.231  -1.036   0.000  0.00  0.00    +0.000 OA
ATOM      3  O   UNL     1      -3.785   0.671   0.000  0.00  0.00    +0.000 OA
ATOM      4  C   UNL     1      -2.746  -0.369   0.000  0.00  0.00    +0.000 C 
ATOM      5  C   UNL     1      -3.001   0.416   0.000  0.00  0.00    +0.000 C 
ATOM      6  C   UNL     1      -1.921  -0.369   0.000  0.00  0.00    +0.000 C 
ATOM      7  C   UNL     1      -2.333   0.901   0.000  0.00  0.00    +0.000 C 
ENDROOT
BRANCH   7  10
ATOM      8  O   UNL     1      -3.762   1.726   0.000  0.00  0.00    +0.000 OA
ATOM      9  O   UNL     1      -2.333   4.201   0.000  0.00  0.00    +0.000 OA
ATOM     10  N   UNL     1      -2.333   1.726   0.000  0.00  0.00    +0.000 N 
ATOM     11  N   UNL     1      -3.048   2.963   0.000  0.00  0.00    +0.000 N 
ATOM     12  C   UNL     1      -3.048   2.138   0.000  0.00  0.00    +0.000 A 
ATOM     13  C   UNL     1      -1.619   2.138   0.000  0.00  0.00    +0.000 A 
ATOM     14  C   UNL     1      -1.619   2.963   0.000  0.00  0.00    +0.000 A 
ATOM     15  C   UNL     1      -2.333   3.376   0.000  0.00  0.00    +0.000 A 
ATOM     16  H   UNL     1      -3.491   3.219   0.000  0.00  0.00    +0.000 HD
ENDBRANCH   7  10
BRANCH   6  17
ATOM     17  C   UNL     1      -1.436  -1.036   0.000  0.00  0.00    +0.000 C 
BRANCH  17  18
ATOM     18  O   UNL     1      -0.616  -0.950   0.000  0.00  0.00    +0.000 OA
BRANCH  18  19
ATOM     19  P   UNL     1      -0.131  -1.617   0.000  0.00  0.00    +0.000 P 
ATOM     20  O   UNL     1       0.537  -1.132   0.000  0.00  0.00    +0.000 OA
ATOM     21  O   UNL     1      -0.798  -2.102   0.000  0.00  0.00    +0.000 OA
BRANCH  19  22
ATOM     22  O   UNL     1       0.354  -2.285   0.000  0.00  0.00    +0.000 OA
BRANCH  22  23
ATOM     23  P   UNL     1       1.175  -2.199   0.000  0.00  0.00    +0.000 P 
ATOM     24  O   UNL     1       1.261  -3.019   0.000  0.00  0.00    +0.000 OA
ATOM     25  O   UNL     1       1.089  -1.378   0.000  0.00  0.00    +0.000 OA
BRANCH  23  26
ATOM     26  O   UNL     1       1.995  -2.112   0.000  0.00  0.00    +0.000 OA
BRANCH  26  27
ATOM     27  C   UNL     1       2.480  -2.780   0.000  0.00  0.00    +0.000 A 
ATOM     28  C   UNL     1       3.301  -2.693   0.000  0.00  0.00    +0.000 A 
ATOM     29  C   UNL     1       2.145  -3.533   0.000  0.00  0.00    +0.000 A 
ATOM     30  C   UNL     1       3.785  -3.361   0.000  0.00  0.00    +0.000 A 
ATOM     31  C   UNL     1       2.630  -4.201   0.000  0.00  0.00    +0.000 A 
ATOM     32  C   UNL     1       3.450  -4.115   0.000  0.00  0.00    +0.000 A 
ENDBRANCH  26  27
ENDBRANCH  23  26
ENDBRANCH  22  23
ENDBRANCH  19  22
ENDBRANCH  18  19
ENDBRANCH  17  18
ENDBRANCH   6  17
TORSDOF 8
