REMARK  Name = 
REMARK  9 active torsions:
REMARK  status: ('A' for Active; 'I' for Inactive)
REMARK    1  A    between atoms: CG_1  and  CB_2
REMARK    2  A    between atoms: CB_2  and  CA_3
REMARK    3  A    between atoms: CA_3  and  C_4
REMARK    4  A    between atoms: CA_3  and  N_6
REMARK    5  A    between atoms: N_5  and  CA_8
REMARK    6  A    between atoms: C_7  and  CA_8
REMARK    7  A    between atoms: CA_8  and  CB_16
REMARK    8  A    between atoms: CD_10  and  CG_17
REMARK    9  A    between atoms: CB_16  and  CG_17
REMARK                            x       y       z     vdW  Elec       q    Type
REMARK                         _______ _______ _______ _____ _____    ______ ____
ROOT
ATOM      1  CG  GLU A   1      -0.029  -0.378   0.000  0.00  0.00    +0.000 C 
ATOM      2  N   GLU A   1       0.673  -0.788   0.000  0.00  0.00    +0.000 NA
ATOM      3  OD1 GLU A   1      -0.795  -0.745   0.000  0.00  0.00    +0.000 OA
ENDROOT
BRANCH   1   4
ATOM      4  CB  GLU A   1      -0.018   0.446   0.000  0.00  0.00    +0.000 C 
BRANCH   4   5
ATOM      5  CA  GLU A   1      -0.676   0.896   0.000  0.00  0.00    +0.000 C 
BRANCH   5   6
ATOM      6  N   GLU A   1      -0.623   1.706   0.000  0.00  0.00    +0.000 NA
ATOM      7  C   UNK A   0      -1.303   2.170   0.000  0.00  0.00    +0.000 C 
ATOM      8  O   UNK A   0      -1.303   2.980   0.000  0.00  0.00    +0.000 OA
ATOM      9  C   UNK A   0      -2.059   1.803   0.000  0.00  0.00    +0.000 C 
ENDBRANCH   5   6
BRANCH   5  10
ATOM     10  C   GLU A   1      -1.411   0.518   0.000  0.00  0.00    +0.000 C 
ATOM     11  O   GLU A   1      -1.400  -0.288   0.000  0.00  0.00    +0.000 OA
ATOM     12  OXT GLU A   1      -2.192   0.885   0.000  0.00  0.00    +0.000 OA
ENDBRANCH   5  10
ENDBRANCH   4   5
ENDBRANCH   1   4
BRANCH   2  13
ATOM     13  CA  GLU A   1       0.695  -1.692   0.000  0.00  0.00    +0.000 C 
BRANCH  13  14
ATOM     14  C   GLU A   1       1.418  -2.062   0.000  0.00  0.00    +0.000 C 
ATOM     15  O   GLU A   1       1.429  -2.912   0.000  0.00  0.00    +0.000 OA
ATOM     16  OXT GLU A   1       2.192  -1.652   0.000  0.00  0.00    +0.000 OA
ENDBRANCH  13  14
BRANCH  13  17
ATOM     17  CB  GLU A   1      -0.050  -2.062   0.000  0.00  0.00    +0.000 C 
BRANCH  17  18
ATOM     18  CG  GLU A   1      -0.698  -1.728   0.000  0.00  0.00    +0.000 C 
BRANCH  18  19
ATOM     19  CD  GLU A   1      -1.468  -2.138   0.000  0.00  0.00    +0.000 C 
ATOM     20  OE1 GLU A   1      -1.468  -2.980   0.000  0.00  0.00    +0.000 OA
ATOM     21  OE2 GLU A   1      -2.159  -1.702   0.000  0.00  0.00    +0.000 OA
ENDBRANCH  18  19
ENDBRANCH  17  18
ENDBRANCH  13  17
ENDBRANCH   2  13
TORSDOF 9
