REMARK  Name = 
REMARK  0 active torsions:
REMARK  status: ('A' for Active; 'I' for Inactive)
REMARK                            x       y       z     vdW  Elec       q    Type
REMARK                         _______ _______ _______ _____ _____    ______ ____
ROOT
ATOM      1  C   UNL     1      -2.144   0.614   0.000  0.00  0.00    +0.000 A 
ATOM      2  C   UNL     1      -2.145  -0.213   0.000  0.00  0.00    +0.000 A 
ATOM      3  C   UNL     1      -1.431  -0.626   0.000  0.00  0.00    +0.000 A 
ATOM      4  C   UNL     1      -0.714  -0.213   0.000  0.00  0.00    +0.000 A 
ATOM      5  C   UNL     1      -0.717   0.617   0.000  0.00  0.00    +0.000 A 
ATOM      6  C   UNL     1      -1.432   1.027   0.000  0.00  0.00    +0.000 A 
ATOM      7  O   UNL     1      -1.435   1.851   0.000  0.00  0.00    +0.000 OA
ATOM      8  O   UNL     1      -2.860  -0.625   0.000  0.00  0.00    +0.000 OA
ATOM      9 CL   UNL     1      -1.431  -1.451   0.000  0.00  0.00    +0.000 Cl
ATOM     10  C   UNL     1      -0.004   1.033   0.000  0.00  0.00    +0.000 C 
ATOM     11  O   UNL     1       0.712   0.623   0.000  0.00  0.00    +0.000 OA
ATOM     12  O   UNL     1      -0.007   1.858   0.000  0.00  0.00    +0.000 OA
ATOM     13  C   UNL     1       1.425   1.038   0.000  0.00  0.00    +0.000 C 
ATOM     14  C   UNL     1       2.141   0.628   0.000  0.00  0.00    +0.000 C 
ATOM     15  C   UNL     1       1.422   1.863   0.000  0.00  0.00    +0.000 C 
ATOM     16  C   UNL     1       2.144  -0.197   0.000  0.00  0.00    +0.000 C 
ATOM     17  C   UNL     1       2.860  -0.607   0.000  0.00  0.00    +0.000 C 
ATOM     18  C   UNL     1       0.001  -0.624   0.000  0.00  0.00    +0.000 C 
ATOM     19  C   UNL     1       0.002  -1.449   0.000  0.00  0.00    +0.000 C 
ATOM     20  C   UNL     1       0.717  -1.861   0.000  0.00  0.00    +0.000 C 
ATOM     21  O   UNL     1      -0.712  -1.863   0.000  0.00  0.00    +0.000 OA
ATOM     22  C   UNL     1       1.431  -1.447   0.000  0.00  0.00    +0.000 C 
ATOM     23  C   UNL     1       2.146  -1.859   0.000  0.00  0.00    +0.000 C 
ATOM     24  C   UNL     1       2.860  -1.445   0.000  0.00  0.00    +0.000 C 
ATOM     25  O   UNL     1       2.853   0.222   0.000  0.00  0.00    +0.000 OA
ENDROOT
TORSDOF 0
