REMARK  Name = 
REMARK  12 active torsions:
REMARK  status: ('A' for Active; 'I' for Inactive)
REMARK    1  A    between atoms: N_9  and  C_10
REMARK    2  A    between atoms: C_12  and  C_30
REMARK    3  A    between atoms: O_17  and  P_19
REMARK    4  A    between atoms: O_17  and  C_30
REMARK    5  A    between atoms: P_19  and  O_21
REMARK    6  A    between atoms: O_21  and  P_23
REMARK    7  A    between atoms: P_23  and  O_25
REMARK    8  A    between atoms: O_25  and  P_28
REMARK    9  A    between atoms: C_31  and  N_44
REMARK   10  A    between atoms: C_37  and  C_38
REMARK   11  A    between atoms: C_38  and  O_39
REMARK   12  A    between atoms: O_39  and  P_42
REMARK                            x       y       z     vdW  Elec       q    Type
REMARK                         _______ _______ _______ _____ _____    ______ ____
ROOT
ATOM      1  N   UNL     1       0.627   2.255   0.000  0.00  0.00    +0.000 NA
ATOM      2  C   UNL     1       0.627   1.430   0.000  0.00  0.00    +0.000 A 
ATOM      3  C   UNL     1      -0.088   0.193   0.000  0.00  0.00    +0.000 A 
ATOM      4  N   UNL     1       0.627  -0.220   0.000  0.00  0.00    +0.000 NA
ATOM      5  C   UNL     1       1.341   0.193   0.000  0.00  0.00    +0.000 A 
ATOM      6  C   UNL     1       1.341   1.018   0.000  0.00  0.00    +0.000 A 
ATOM      7  N   UNL     1       2.126   1.272   0.000  0.00  0.00    +0.000 NA
ATOM      8  C   UNL     1       2.611   0.605   0.000  0.00  0.00    +0.000 A 
ATOM      9  N   UNL     1       2.126  -0.062   0.000  0.00  0.00    +0.000 N 
ATOM     10  N   UNL     1      -0.087   1.018   0.000  0.00  0.00    +0.000 N 
ENDROOT
BRANCH   9  11
ATOM     11  C   UNL     1       2.381  -0.847   0.000  0.00  0.00    +0.000 C 
ATOM     12  O   UNL     1       1.896  -1.514   0.000  0.00  0.00    +0.000 OA
ATOM     13  C   UNL     1       2.381  -2.182   0.000  0.00  0.00    +0.000 C 
ATOM     14  C   UNL     1       3.165  -1.927   0.000  0.00  0.00    +0.000 C 
ATOM     15  O   UNL     1       3.833  -2.412   0.000  0.00  0.00    +0.000 OA
ATOM     16  C   UNL     1       3.166  -1.102   0.000  0.00  0.00    +0.000 C 
ATOM     17  O   UNL     1       3.833  -0.617   0.000  0.00  0.00    +0.000 OA
BRANCH  13  18
ATOM     18  C   UNL     1       2.126  -2.967   0.000  0.00  0.00    +0.000 C 
BRANCH  18  19
ATOM     19  O   UNL     1       1.301  -2.967   0.000  0.00  0.00    +0.000 OA
BRANCH  19  21
ATOM     20  O   UNL     1       0.586  -4.204   0.000  0.00  0.00    +0.000 OA
ATOM     21  P   UNL     1       0.586  -3.379   0.000  0.00  0.00    +0.000 P 
ATOM     22  O   UNL     1       0.586  -2.554   0.000  0.00  0.00    +0.000 OA
BRANCH  21  23
ATOM     23  O   UNL     1      -0.128  -2.967   0.000  0.00  0.00    +0.000 OA
BRANCH  23  25
ATOM     24  O   UNL     1      -0.843  -4.204   0.000  0.00  0.00    +0.000 OA
ATOM     25  P   UNL     1      -0.843  -3.379   0.000  0.00  0.00    +0.000 P 
ATOM     26  O   UNL     1      -0.843  -2.534   0.000  0.00  0.00    +0.000 OA
BRANCH  25  27
ATOM     27  O   UNL     1      -1.557  -2.967   0.000  0.00  0.00    +0.000 OA
BRANCH  27  30
ATOM     28  O   UNL     1      -2.271  -4.204   0.000  0.00  0.00    +0.000 OA
ATOM     29  O   UNL     1      -2.986  -2.967   0.000  0.00  0.00    +0.000 OA
ATOM     30  P   UNL     1      -2.271  -3.379   0.000  0.00  0.00    +0.000 P 
ATOM     31  O   UNL     1      -2.271  -2.554   0.000  0.00  0.00    +0.000 OA
ENDBRANCH  27  30
ENDBRANCH  25  27
ENDBRANCH  23  25
ENDBRANCH  21  23
ENDBRANCH  19  21
ENDBRANCH  18  19
ENDBRANCH  13  18
ENDBRANCH   9  11
BRANCH  10  32
ATOM     32  C   UNL     1      -0.802   1.430   0.000  0.00  0.00    +0.000 C 
ATOM     33  O   UNL     1      -0.720   2.251   0.000  0.00  0.00    +0.000 OA
ATOM     34  C   UNL     1      -1.608   1.254   0.000  0.00  0.00    +0.000 C 
ATOM     35  O   UNL     1      -2.020   0.539   0.000  0.00  0.00    +0.000 OA
ATOM     36  C   UNL     1      -2.025   1.966   0.000  0.00  0.00    +0.000 C 
ATOM     37  O   UNL     1      -2.849   1.966   0.000  0.00  0.00    +0.000 OA
ATOM     38  C   UNL     1      -1.476   2.582   0.000  0.00  0.00    +0.000 C 
BRANCH  38  39
ATOM     39  C   UNL     1      -1.690   3.379   0.000  0.00  0.00    +0.000 C 
BRANCH  39  40
ATOM     40  O   UNL     1      -2.404   3.792   0.000  0.00  0.00    +0.000 OA
BRANCH  40  43
ATOM     41  O   UNL     1      -3.118   2.554   0.000  0.00  0.00    +0.000 OA
ATOM     42  O   UNL     1      -3.833   3.792   0.000  0.00  0.00    +0.000 OA
ATOM     43  P   UNL     1      -3.118   3.379   0.000  0.00  0.00    +0.000 P 
ATOM     44  O   UNL     1      -3.118   4.204   0.000  0.00  0.00    +0.000 OA
ENDBRANCH  40  43
ENDBRANCH  39  40
ENDBRANCH  38  39
ENDBRANCH  10  32
TORSDOF 12
