REMARK  Name = 
REMARK  1 active torsions:
REMARK  status: ('A' for Active; 'I' for Inactive)
REMARK    1  A    between atoms: N_15  and  C_16
REMARK                            x       y       z     vdW  Elec       q    Type
REMARK                         _______ _______ _______ _____ _____    ______ ____
ROOT
ATOM      1  C   UNL     1       0.000   0.825   0.000  0.00  0.00    +0.000 C 
ATOM      2  C   UNL     1       0.000   0.000   0.000  0.00  0.00    +0.000 C 
ATOM      3  N   UNL     1      -0.715  -0.412   0.000  0.00  0.00    +0.000 N 
ATOM      4  C   UNL     1      -0.715  -1.238   0.000  0.00  0.00    +0.000 C 
ATOM      5  C   UNL     1       0.000  -1.650   0.000  0.00  0.00    +0.000 C 
ATOM      6  C   UNL     1       0.715  -1.238   0.000  0.00  0.00    +0.000 A 
ATOM      7  C   UNL     1       0.715  -0.412   0.000  0.00  0.00    +0.000 A 
ATOM      8  C   UNL     1       1.429   0.000   0.000  0.00  0.00    +0.000 A 
ATOM      9  C   UNL     1       2.143  -0.412   0.000  0.00  0.00    +0.000 A 
ATOM     10  C   UNL     1       2.143  -1.238   0.000  0.00  0.00    +0.000 A 
ATOM     11  C   UNL     1       1.429  -1.650   0.000  0.00  0.00    +0.000 A 
ATOM     12  C   UNL     1      -1.429   0.000   0.000  0.00  0.00    +0.000 A 
ATOM     13  N   UNL     1      -2.143  -0.412   0.000  0.00  0.00    +0.000 NA
ATOM     14  C   UNL     1      -2.858   0.000   0.000  0.00  0.00    +0.000 A 
ATOM     15  N   UNL     1      -3.572  -0.412   0.000  0.00  0.00    +0.000 NA
ATOM     16  N   UNL     1      -2.858   0.825   0.000  0.00  0.00    +0.000 NA
ATOM     17  C   UNL     1      -2.143   1.238   0.000  0.00  0.00    +0.000 A 
ATOM     18  C   UNL     1      -2.143   2.062   0.000  0.00  0.00    +0.000 C 
ATOM     19  C   UNL     1      -1.429   0.825   0.000  0.00  0.00    +0.000 A 
ATOM     20  C   UNL     1      -0.715   1.238   0.000  0.00  0.00    +0.000 C 
ENDROOT
BRANCH  15  21
ATOM     21  C   UNL     1      -4.287   0.000   0.000  0.00  0.00    +0.000 A 
ATOM     22  C   UNL     1      -5.001  -0.412   0.000  0.00  0.00    +0.000 A 
ATOM     23  C   UNL     1      -5.716   0.000   0.000  0.00  0.00    +0.000 A 
ATOM     24  C   UNL     1      -5.716   0.825   0.000  0.00  0.00    +0.000 A 
ATOM     25  F   UNL     1      -6.430   1.238   0.000  0.00  0.00    +0.000 F 
ATOM     26  C   UNL     1      -5.001   1.238   0.000  0.00  0.00    +0.000 A 
ATOM     27  C   UNL     1      -4.287   0.825   0.000  0.00  0.00    +0.000 A 
ENDBRANCH  15  21
TORSDOF 1
