REMARK  Name = 
REMARK  4 active torsions:
REMARK  status: ('A' for Active; 'I' for Inactive)
REMARK    1  A    between atoms: N_6  and  C_7
REMARK    2  A    between atoms: C_7  and  C_8
REMARK    3  A    between atoms: C_10  and  C_14
REMARK    4  A    between atoms: C_18  and  C_20
REMARK                            x       y       z     vdW  Elec       q    Type
REMARK                         _______ _______ _______ _____ _____    ______ ____
ROOT
ATOM      1  C   UNL     1       0.832  -0.859   0.000  0.00  0.00    +0.000 A 
ATOM      2  C   UNL     1       0.048  -0.604   0.000  0.00  0.00    +0.000 A 
ATOM      3  C   UNL     1      -0.124   0.203   0.000  0.00  0.00    +0.000 A 
ATOM      4  C   UNL     1       0.489   0.755   0.000  0.00  0.00    +0.000 A 
ATOM      5  N   UNL     1       1.274   0.500   0.000  0.00  0.00    +0.000 NA
ATOM      6  N   UNL     1       1.445  -0.307   0.000  0.00  0.00    +0.000 NA
ENDROOT
BRANCH   3   7
ATOM      7  C   UNL     1      -0.909   0.458   0.000  0.00  0.00    +0.000 A 
ATOM      8  C   UNL     1      -1.522  -0.095   0.000  0.00  0.00    +0.000 A 
ATOM      9  C   UNL     1      -2.306   0.160   0.000  0.00  0.00    +0.000 A 
ATOM     10  C   UNL     1      -2.478   0.967   0.000  0.00  0.00    +0.000 A 
ATOM     11  C   UNL     1      -1.865   1.519   0.000  0.00  0.00    +0.000 A 
ATOM     12  C   UNL     1      -1.080   1.264   0.000  0.00  0.00    +0.000 A 
ATOM     13  F   UNL     1      -3.263   1.222   0.000  0.00  0.00    +0.000 F 
BRANCH  11  14
ATOM     14  C   UNL     1      -2.036   2.326   0.000  0.00  0.00    +0.000 C 
ATOM     15  F   UNL     1      -2.821   2.581   0.000  0.00  0.00    +0.000 F 
ATOM     16  F   UNL     1      -1.423   2.878   0.000  0.00  0.00    +0.000 F 
ENDBRANCH  11  14
ENDBRANCH   3   7
BRANCH   1  17
ATOM     17  C   UNL     1       1.004  -1.666   0.000  0.00  0.00    +0.000 C 
BRANCH  17  23
ATOM     18  C   UNL     1       2.456  -0.611   0.000  0.00  0.00    +0.000 C 
ATOM     19  C   UNL     1       2.456  -1.436   0.000  0.00  0.00    +0.000 A 
ATOM     20  N   UNL     1       3.123  -1.921   0.000  0.00  0.00    +0.000 NA
ATOM     21  C   UNL     1       2.868  -2.706   0.000  0.00  0.00    +0.000 A 
ATOM     22  C   UNL     1       2.043  -2.706   0.000  0.00  0.00    +0.000 A 
ATOM     23  N   UNL     1       1.788  -1.921   0.000  0.00  0.00    +0.000 N 
ENDBRANCH  17  23
ENDBRANCH   1  17
TORSDOF 4
REMARK  Name = 
REMARK  4 active torsions:
REMARK  status: ('A' for Active; 'I' for Inactive)
REMARK    1  A    between atoms: N_6  and  C_7
REMARK    2  A    between atoms: C_7  and  C_8
REMARK    3  A    between atoms: C_10  and  C_14
REMARK    4  A    between atoms: C_18  and  C_20
REMARK                            x       y       z     vdW  Elec       q    Type
REMARK                         _______ _______ _______ _____ _____    ______ ____
ROOT
ATOM      1 CL   UNL     1       5.127   0.000   0.000  0.00  0.00    +0.000 Cl
ENDROOT
TORSDOF 0
REMARK  Name = 
REMARK  4 active torsions:
REMARK  status: ('A' for Active; 'I' for Inactive)
REMARK    1  A    between atoms: N_6  and  C_7
REMARK    2  A    between atoms: C_7  and  C_8
REMARK    3  A    between atoms: C_10  and  C_14
REMARK    4  A    between atoms: C_18  and  C_20
REMARK                            x       y       z     vdW  Elec       q    Type
REMARK                         _______ _______ _______ _____ _____    ______ ____
ROOT
ATOM      1 CL   UNL     1       0.000  -4.356   0.000  0.00  0.00    +0.000 Cl
ENDROOT
TORSDOF 0
