REMARK  Name = 
REMARK  6 active torsions:
REMARK  status: ('A' for Active; 'I' for Inactive)
REMARK    1  A    between atoms: N_10  and  C_11
REMARK    2  A    between atoms: C_13  and  C_26
REMARK    3  A    between atoms: O_18  and  P_20
REMARK    4  A    between atoms: O_18  and  C_26
REMARK    5  A    between atoms: P_20  and  C_27
REMARK    6  A    between atoms: P_23  and  C_27
REMARK                            x       y       z     vdW  Elec       q    Type
REMARK                         _______ _______ _______ _____ _____    ______ ____
ROOT
ATOM      1  C   UNL     1       1.243   0.127   0.000  0.00  0.00    +0.000 C 
ATOM      2  O   UNL     1       0.758  -0.540   0.000  0.00  0.00    +0.000 OA
ATOM      3  C   UNL     1       1.243  -1.208   0.000  0.00  0.00    +0.000 C 
ATOM      4  C   UNL     1       2.027  -0.953   0.000  0.00  0.00    +0.000 C 
ATOM      5  O   UNL     1       2.695  -1.438   0.000  0.00  0.00    +0.000 OA
ATOM      6  C   UNL     1       2.028  -0.128   0.000  0.00  0.00    +0.000 C 
ATOM      7  O   UNL     1       2.695   0.357   0.000  0.00  0.00    +0.000 OA
ENDROOT
BRANCH   1  17
ATOM      8  N   UNL     1      -0.511   3.230   0.000  0.00  0.00    +0.000 NA
ATOM      9  C   UNL     1      -0.511   2.405   0.000  0.00  0.00    +0.000 A 
ATOM     10  N   UNL     1      -1.225   1.992   0.000  0.00  0.00    +0.000 NA
ATOM     11  C   UNL     1      -1.226   1.167   0.000  0.00  0.00    +0.000 A 
ATOM     12  N   UNL     1      -0.511   0.755   0.000  0.00  0.00    +0.000 NA
ATOM     13  C   UNL     1       0.203   1.167   0.000  0.00  0.00    +0.000 A 
ATOM     14  C   UNL     1       0.203   1.992   0.000  0.00  0.00    +0.000 A 
ATOM     15  N   UNL     1       0.988   2.247   0.000  0.00  0.00    +0.000 NA
ATOM     16  C   UNL     1       1.473   1.579   0.000  0.00  0.00    +0.000 A 
ATOM     17  N   UNL     1       0.988   0.912   0.000  0.00  0.00    +0.000 N 
ENDBRANCH   1  17
BRANCH   3  18
ATOM     18  C   UNL     1       0.988  -1.992   0.000  0.00  0.00    +0.000 C 
BRANCH  18  19
ATOM     19  O   UNL     1       0.163  -1.992   0.000  0.00  0.00    +0.000 OA
BRANCH  19  21
ATOM     20  O   UNL     1      -0.551  -3.230   0.000  0.00  0.00    +0.000 OA
ATOM     21  P   UNL     1      -0.551  -2.405   0.000  0.00  0.00    +0.000 P 
ATOM     22  O   UNL     1      -0.551  -1.580   0.000  0.00  0.00    +0.000 OA
BRANCH  21  23
ATOM     23  C   UNL     1      -1.266  -1.992   0.000  0.00  0.00    +0.000 C 
BRANCH  23  25
ATOM     24  O   UNL     1      -1.980  -3.230   0.000  0.00  0.00    +0.000 OA
ATOM     25  P   UNL     1      -1.980  -2.405   0.000  0.00  0.00    +0.000 P 
ATOM     26  O   UNL     1      -1.980  -1.560   0.000  0.00  0.00    +0.000 OA
ATOM     27  O   UNL     1      -2.695  -1.992   0.000  0.00  0.00    +0.000 OA
ENDBRANCH  23  25
ENDBRANCH  21  23
ENDBRANCH  19  21
ENDBRANCH  18  19
ENDBRANCH   3  18
TORSDOF 6
