REMARK  Name = 
REMARK  11 active torsions:
REMARK  status: ('A' for Active; 'I' for Inactive)
REMARK    1  A    between atoms: N_1  and  C_36
REMARK    2  A    between atoms: N_4  and  C_5
REMARK    3  A    between atoms: C_5  and  C_6
REMARK    4  A    between atoms: C_7  and  S_12
REMARK    5  A    between atoms: S_12  and  C_16
REMARK    6  A    between atoms: C_21  and  C_22
REMARK    7  A    between atoms: C_23  and  S_28
REMARK    8  A    between atoms: S_28  and  C_29
REMARK    9  A    between atoms: C_29  and  C_30
REMARK   10  A    between atoms: N_32  and  C_37
REMARK   11  A    between atoms: C_34  and  C_45
REMARK                            x       y       z     vdW  Elec       q    Type
REMARK                         _______ _______ _______ _____ _____    ______ ____
ROOT
ATOM      1  C   UNL     1      -2.188  -0.622   0.000  0.00  0.00    +0.000 A 
ATOM      2  C   UNL     1      -2.188  -1.447   0.000  0.00  0.00    +0.000 A 
ATOM      3  C   UNL     1      -2.902  -1.860   0.000  0.00  0.00    +0.000 A 
ATOM      4  C   UNL     1      -3.617  -1.447   0.000  0.00  0.00    +0.000 A 
ATOM      5  C   UNL     1      -3.617  -0.622   0.000  0.00  0.00    +0.000 A 
ATOM      6  C   UNL     1      -2.902  -0.210   0.000  0.00  0.00    +0.000 A 
ENDROOT
BRANCH   2   7
ATOM      7  S   UNL     1      -1.473  -1.860   0.000  0.00  0.00    +0.000 S 
BRANCH   7  11
ATOM      8  C   UNL     1       0.670  -0.622   0.000  0.00  0.00    +0.000 A 
ATOM      9  C   UNL     1      -0.044  -0.210   0.000  0.00  0.00    +0.000 A 
ATOM     10  C   UNL     1      -0.759  -0.622   0.000  0.00  0.00    +0.000 A 
ATOM     11  C   UNL     1      -0.759  -1.447   0.000  0.00  0.00    +0.000 A 
ATOM     12  C   UNL     1      -0.044  -1.860   0.000  0.00  0.00    +0.000 A 
ATOM     13  N   UNL     1       0.670  -1.447   0.000  0.00  0.00    +0.000 N 
ATOM     14  N   UNL     1       1.940  -1.035   0.000  0.00  0.00    +0.000 NA
ATOM     15  N   UNL     1       1.455  -0.367   0.000  0.00  0.00    +0.000 NA
ATOM     16  C   UNL     1       1.455  -1.702   0.000  0.00  0.00    +0.000 A 
BRANCH  16  17
ATOM     17  C   UNL     1       1.710  -2.487   0.000  0.00  0.00    +0.000 A 
ATOM     18  C   UNL     1       1.158  -3.100   0.000  0.00  0.00    +0.000 A 
ATOM     19  C   UNL     1       1.413  -3.885   0.000  0.00  0.00    +0.000 A 
ATOM     20  C   UNL     1       2.220  -4.056   0.000  0.00  0.00    +0.000 A 
ATOM     21  C   UNL     1       2.772  -3.443   0.000  0.00  0.00    +0.000 A 
ATOM     22  C   UNL     1       2.517  -2.659   0.000  0.00  0.00    +0.000 A 
BRANCH  18  23
ATOM     23  S   UNL     1       0.351  -2.929   0.000  0.00  0.00    +0.000 S 
BRANCH  23  24
ATOM     24  C   UNL     1      -0.201  -3.542   0.000  0.00  0.00    +0.000 C 
BRANCH  24  25
ATOM     25  C   UNL     1      -1.008  -3.370   0.000  0.00  0.00    +0.000 C 
ATOM     26  O   UNL     1      -1.560  -3.983   0.000  0.00  0.00    +0.000 OA
ENDBRANCH  24  25
ENDBRANCH  23  24
ENDBRANCH  18  23
ENDBRANCH  16  17
ENDBRANCH   7  11
ENDBRANCH   2   7
BRANCH   1  27
ATOM     27  C   UNL     1      -1.473  -0.210   0.000  0.00  0.00    +0.000 C 
BRANCH  27  31
ATOM     28  N   UNL     1      -0.044   0.615   0.000  0.00  0.00    +0.000 NA
ATOM     29  C   UNL     1      -0.759   1.028   0.000  0.00  0.00    +0.000 C 
ATOM     30  O   UNL     1      -0.759   1.646   0.000  0.00  0.00    +0.000 OA
ATOM     31  N   UNL     1      -1.473   0.615   0.000  0.00  0.00    +0.000 NA
BRANCH  28  36
ATOM     32  N   UNL     1       0.756   1.848   0.000  0.00  0.00    +0.000 N 
ATOM     33  N   UNL     1       1.563   2.020   0.000  0.00  0.00    +0.000 NA
ATOM     34  C   UNL     1       1.976   1.305   0.000  0.00  0.00    +0.000 A 
ATOM     35  C   UNL     1       1.424   0.692   0.000  0.00  0.00    +0.000 A 
ATOM     36  C   UNL     1       0.670   1.028   0.000  0.00  0.00    +0.000 A 
BRANCH  32  37
ATOM     37  C   UNL     1       0.143   2.400   0.000  0.00  0.00    +0.000 A 
ATOM     38  C   UNL     1      -0.641   2.145   0.000  0.00  0.00    +0.000 A 
ATOM     39  C   UNL     1      -1.254   2.697   0.000  0.00  0.00    +0.000 A 
ATOM     40  C   UNL     1      -1.083   3.504   0.000  0.00  0.00    +0.000 A 
ATOM     41  C   UNL     1      -0.298   3.759   0.000  0.00  0.00    +0.000 A 
ATOM     42  C   UNL     1       0.315   3.207   0.000  0.00  0.00    +0.000 A 
ATOM     43  O   UNL     1      -1.696   4.056   0.000  0.00  0.00    +0.000 OA
ATOM     44 CL   UNL     1      -2.039   2.442   0.000  0.00  0.00    +0.000 Cl
ENDBRANCH  32  37
BRANCH  34  45
ATOM     45  C   UNL     1       2.796   1.219   0.000  0.00  0.00    +0.000 C 
ATOM     46  C   UNL     1       3.617   1.133   0.000  0.00  0.00    +0.000 C 
ATOM     47  C   UNL     1       3.132   0.465   0.000  0.00  0.00    +0.000 C 
ATOM     48  C   UNL     1       3.281   1.886   0.000  0.00  0.00    +0.000 C 
ENDBRANCH  34  45
ENDBRANCH  28  36
ENDBRANCH  27  31
ENDBRANCH   1  27
TORSDOF 11
