REMARK  Name = 
REMARK  6 active torsions:
REMARK  status: ('A' for Active; 'I' for Inactive)
REMARK    1  A    between atoms: C_4  and  C_7
REMARK    2  A    between atoms: C_4  and  C_8
REMARK    3  A    between atoms: C_7  and  C_12
REMARK    4  A    between atoms: C_8  and  N_15
REMARK    5  A    between atoms: C_9  and  N_15
REMARK    6  A    between atoms: C_10  and  C_13
REMARK                            x       y       z     vdW  Elec       q    Type
REMARK                         _______ _______ _______ _____ _____    ______ ____
ROOT
ATOM      1  C   UNL     1       1.042   1.473   0.000  0.00  0.00    +0.000 C 
ATOM      2  C   UNL     1       1.042   0.648   0.000  0.00  0.00    +0.000 C 
ATOM      3  C   UNL     1       1.454  -0.622   0.000  0.00  0.00    +0.000 C 
ATOM      4  C   UNL     1       0.374   0.163   0.000  0.00  0.00    +0.000 C 
ATOM      5  N   UNL     1       1.709   0.163   0.000  0.00  0.00    +0.000 NA
ATOM      6  O   UNL     1      -0.410   0.418   0.000  0.00  0.00    +0.000 OA
ATOM      7  O   UNL     1       0.629  -0.622   0.000  0.00  0.00    +0.000 OA
ENDROOT
BRANCH   3  13
ATOM      8  C   UNL     1       2.909  -2.624   0.000  0.00  0.00    +0.000 A 
ATOM      9  C   UNL     1       3.245  -1.870   0.000  0.00  0.00    +0.000 A 
ATOM     10  C   UNL     1       2.089  -2.710   0.000  0.00  0.00    +0.000 A 
ATOM     11  C   UNL     1       2.760  -1.203   0.000  0.00  0.00    +0.000 A 
ATOM     12  C   UNL     1       1.604  -2.043   0.000  0.00  0.00    +0.000 A 
ATOM     13  C   UNL     1       1.939  -1.289   0.000  0.00  0.00    +0.000 A 
ENDBRANCH   3  13
BRANCH   1  14
ATOM     14  N   UNL     1       0.328   1.885   0.000  0.00  0.00    +0.000 NA
BRANCH  14  15
ATOM     15  C   UNL     1      -0.387   1.473   0.000  0.00  0.00    +0.000 C 
BRANCH  15  16
ATOM     16  C   UNL     1      -1.101   1.885   0.000  0.00  0.00    +0.000 C 
BRANCH  16  17
ATOM     17  C   UNL     1      -1.816   1.473   0.000  0.00  0.00    +0.000 C 
BRANCH  17  18
ATOM     18  C   UNL     1      -2.530   1.885   0.000  0.00  0.00    +0.000 C 
ATOM     19  O   UNL     1      -3.245   1.473   0.000  0.00  0.00    +0.000 OA
ATOM     20  O   UNL     1      -2.530   2.710   0.000  0.00  0.00    +0.000 OA
ENDBRANCH  17  18
ENDBRANCH  16  17
ENDBRANCH  15  16
ENDBRANCH  14  15
ENDBRANCH   1  14
TORSDOF 6
