REMARK  Name = 
REMARK  6 active torsions:
REMARK  status: ('A' for Active; 'I' for Inactive)
REMARK    1  A    between atoms: C_6  and  C_7
REMARK    2  A    between atoms: C_7  and  O_8
REMARK    3  A    between atoms: O_8  and  C_9
REMARK    4  A    between atoms: C_9  and  C_11
REMARK    5  A    between atoms: C_11  and  C_12
REMARK    6  A    between atoms: C_11  and  C_18
REMARK                            x       y       z     vdW  Elec       q    Type
REMARK                         _______ _______ _______ _____ _____    ______ ____
ROOT
ATOM      1  C   UNL     1       0.961   3.140   0.000  0.00  0.00    +0.000 C 
ATOM      2  O   UNL     1       0.154   2.968   0.000  0.00  0.00    +0.000 OA
ENDROOT
BRANCH   1   3
ATOM      3  C   UNL     1       1.768   3.311   0.000  0.00  0.00    +0.000 A 
ATOM      4  C   UNL     1       2.022   4.096   0.000  0.00  0.00    +0.000 A 
ATOM      5  C   UNL     1       2.829   4.268   0.000  0.00  0.00    +0.000 A 
ATOM      6  C   UNL     1       3.381   3.655   0.000  0.00  0.00    +0.000 A 
ATOM      7  C   UNL     1       3.127   2.870   0.000  0.00  0.00    +0.000 A 
ATOM      8  C   UNL     1       2.320   2.698   0.000  0.00  0.00    +0.000 A 
ENDBRANCH   1   3
BRANCH   1   9
ATOM      9  C   UNL     1       0.789   3.947   0.000  0.00  0.00    +0.000 A 
ATOM     10  C   UNL     1       0.004   4.202   0.000  0.00  0.00    +0.000 A 
ATOM     11  C   UNL     1      -0.167   5.009   0.000  0.00  0.00    +0.000 A 
ATOM     12  C   UNL     1       0.446   5.561   0.000  0.00  0.00    +0.000 A 
ATOM     13  C   UNL     1       1.231   5.306   0.000  0.00  0.00    +0.000 A 
ATOM     14  C   UNL     1       1.402   4.499   0.000  0.00  0.00    +0.000 A 
ENDBRANCH   1   9
BRANCH   1  15
ATOM     15  C   UNL     1       1.132   2.333   0.000  0.00  0.00    +0.000 C 
ATOM     16  O   UNL     1       0.519   1.781   0.000  0.00  0.00    +0.000 OA
BRANCH  15  17
ATOM     17  O   UNL     1       1.917   2.078   0.000  0.00  0.00    +0.000 OA
BRANCH  17  18
ATOM     18  C   UNL     1       2.088   1.271   0.000  0.00  0.00    +0.000 C 
BRANCH  18  24
ATOM     19  C   UNL     1       2.988   2.114   0.000  0.00  0.00    +0.000 C 
ATOM     20  N   UNL     1       3.540   1.501   0.000  0.00  0.00    +0.000 N 
ATOM     21  C   UNL     1       4.208   1.016   0.000  0.00  0.00    +0.000 C 
ATOM     22  C   UNL     1       3.953   0.231   0.000  0.00  0.00    +0.000 C 
ATOM     23  C   UNL     1       3.128   0.231   0.000  0.00  0.00    +0.000 C 
ATOM     24  C   UNL     1       2.873   1.016   0.000  0.00  0.00    +0.000 C 
ATOM     25  C   UNL     1       4.092   2.114   0.000  0.00  0.00    +0.000 C 
ENDBRANCH  18  24
ENDBRANCH  17  18
ENDBRANCH  15  17
ENDBRANCH   1  15
TORSDOF 6
