REMARK  Name = 
REMARK  3 active torsions:
REMARK  status: ('A' for Active; 'I' for Inactive)
REMARK    1  A    between atoms: N_4  and  C_5
REMARK    2  A    between atoms: C_7  and  C_16
REMARK    3  A    between atoms: C_9  and  C_12
REMARK                            x       y       z     vdW  Elec       q    Type
REMARK                         _______ _______ _______ _____ _____    ______ ____
ROOT
ATOM      1  C   UNL     1       0.715   1.238   0.000  0.00  0.00    +0.000 A 
ATOM      2  C   UNL     1       1.429   0.825   0.000  0.00  0.00    +0.000 A 
ATOM      3  C   UNL     1       1.429   0.000   0.000  0.00  0.00    +0.000 A 
ATOM      4  C   UNL     1       0.715  -0.412   0.000  0.00  0.00    +0.000 A 
ATOM      5  C   UNL     1       0.000   0.000   0.000  0.00  0.00    +0.000 A 
ATOM      6  C   UNL     1       0.000   0.825   0.000  0.00  0.00    +0.000 A 
ATOM      7  I   UNL     1      -0.715   1.238   0.000  0.00  0.00    +0.000 I 
ATOM      8  I   UNL     1       0.715  -1.238   0.000  0.00  0.00    +0.000 I 
ATOM      9  I   UNL     1       2.143   1.238   0.000  0.00  0.00    +0.000 I 
ENDROOT
BRANCH   1  13
ATOM     10  C   UNL     1       0.000   3.300   0.000  0.00  0.00    +0.000 C 
ATOM     11  C   UNL     1       0.000   2.475   0.000  0.00  0.00    +0.000 C 
ATOM     12  O   UNL     1      -0.715   2.062   0.000  0.00  0.00    +0.000 OA
ATOM     13  N   UNL     1       0.715   2.062   0.000  0.00  0.00    +0.000 NA
ENDBRANCH   1  13
BRANCH   3  14
ATOM     14  C   UNL     1       2.143  -0.412   0.000  0.00  0.00    +0.000 C 
ATOM     15  O   UNL     1       2.858   0.000   0.000  0.00  0.00    +0.000 OA
ATOM     16  N   UNL     1       2.143  -1.238   0.000  0.00  0.00    +0.000 NA
ATOM     17  C   UNL     1       2.858  -1.650   0.000  0.00  0.00    +0.000 C 
ENDBRANCH   3  14
BRANCH   5  18
ATOM     18  C   UNL     1      -0.715  -0.412   0.000  0.00  0.00    +0.000 C 
ATOM     19  O   UNL     1      -1.429   0.000   0.000  0.00  0.00    +0.000 OA
ATOM     20  O   UNL     1      -0.715  -1.238   0.000  0.00  0.00    +0.000 OA
ENDBRANCH   5  18
TORSDOF 3
