REMARK  Name = 
REMARK  5 active torsions:
REMARK  status: ('A' for Active; 'I' for Inactive)
REMARK    1  A    between atoms: C_2  and  C_19
REMARK    2  A    between atoms: C_3  and  C_4
REMARK    3  A    between atoms: C_4  and  C_6
REMARK    4  A    between atoms: C_9  and  C_10
REMARK    5  A    between atoms: C_10  and  C_11
REMARK                            x       y       z     vdW  Elec       q    Type
REMARK                         _______ _______ _______ _____ _____    ______ ____
ROOT
ATOM      1  C   UNL     1      -0.608  -1.299   0.000  0.00  0.00    +0.000 A 
ATOM      2  C   UNL     1       0.060  -1.784   0.000  0.00  0.00    +0.000 A 
ATOM      3  C   UNL     1      -0.195  -2.569   0.000  0.00  0.00    +0.000 A 
ATOM      4  C   UNL     1      -1.020  -2.569   0.000  0.00  0.00    +0.000 A 
ATOM      5  O   UNL     1      -1.275  -1.784   0.000  0.00  0.00    +0.000 OA
ENDROOT
BRANCH   1   6
ATOM      6  C   UNL     1      -0.608  -0.474   0.000  0.00  0.00    +0.000 C 
ATOM      7  O   UNL     1       0.107  -0.062   0.000  0.00  0.00    +0.000 OA
BRANCH   6  10
ATOM      8  O   UNL     1      -0.608   1.176   0.000  0.00  0.00    +0.000 OA
ATOM      9  C   UNL     1      -1.322   0.763   0.000  0.00  0.00    +0.000 C 
ATOM     10  C   UNL     1      -1.322  -0.062   0.000  0.00  0.00    +0.000 C 
BRANCH   9  11
ATOM     11  C   UNL     1      -2.037   1.176   0.000  0.00  0.00    +0.000 A 
ATOM     12  N   UNL     1      -2.790   0.840   0.000  0.00  0.00    +0.000 NA
ATOM     13  N   UNL     1      -3.342   1.453   0.000  0.00  0.00    +0.000 NA
ATOM     14  C   UNL     1      -2.930   2.168   0.000  0.00  0.00    +0.000 A 
ATOM     15  N   UNL     1      -2.123   1.996   0.000  0.00  0.00    +0.000 NA
ENDBRANCH   9  11
ENDBRANCH   6  10
ENDBRANCH   1   6
BRANCH   4  16
ATOM     16  C   UNL     1      -1.505  -3.236   0.000  0.00  0.00    +0.000 C 
BRANCH  16  17
ATOM     17  C   UNL     1      -1.170  -3.990   0.000  0.00  0.00    +0.000 A 
ATOM     18  C   UNL     1      -0.349  -4.076   0.000  0.00  0.00    +0.000 A 
ATOM     19  C   UNL     1      -0.014  -4.830   0.000  0.00  0.00    +0.000 A 
ATOM     20  C   UNL     1      -0.498  -5.497   0.000  0.00  0.00    +0.000 A 
ATOM     21  F   UNL     1      -0.163  -6.251   0.000  0.00  0.00    +0.000 F 
ATOM     22  C   UNL     1      -1.319  -5.411   0.000  0.00  0.00    +0.000 A 
ATOM     23  C   UNL     1      -1.655  -4.657   0.000  0.00  0.00    +0.000 A 
ENDBRANCH  16  17
ENDBRANCH   4  16
TORSDOF 5
