REMARK  Name = 
REMARK  3 active torsions:
REMARK  status: ('A' for Active; 'I' for Inactive)
REMARK    1  A    between atoms: C_2  and  C_10
REMARK    2  A    between atoms: C_10  and  CA_11
REMARK    3  A    between atoms: CA_11  and  C_12
REMARK                            x       y       z     vdW  Elec       q    Type
REMARK                         _______ _______ _______ _____ _____    ______ ____
ROOT
ATOM      1  C   UNL     1       1.429   0.825   0.000  0.00  0.00    +0.000 A 
ATOM      2  C   UNL     1       1.429   0.000   0.000  0.00  0.00    +0.000 A 
ATOM      3  C   UNL     1       0.715  -0.412   0.000  0.00  0.00    +0.000 A 
ATOM      4  C   UNL     1       0.000   0.000   0.000  0.00  0.00    +0.000 A 
ATOM      5  C   UNL     1       0.000   0.825   0.000  0.00  0.00    +0.000 A 
ATOM      6  C   UNL     1       0.715   1.238   0.000  0.00  0.00    +0.000 A 
ATOM      7  O   UNL     1       0.715   2.062   0.000  0.00  0.00    +0.000 OA
ATOM      8  O   UNL     1      -0.715   1.238   0.000  0.00  0.00    +0.000 OA
ATOM      9  F   UNL     1       0.715  -1.238   0.000  0.00  0.00    +0.000 F 
ENDROOT
BRANCH   2  10
ATOM     10  C   UNL     1       2.143  -0.412   0.000  0.00  0.00    +0.000 C 
BRANCH  10  11
ATOM     11  CA  UNL     1       2.858   0.000   0.000  0.00  0.00    +0.000 C 
ATOM     12  N   UNL     1       2.858   0.825   0.000  0.00  0.00    +0.000 NA
BRANCH  11  13
ATOM     13  C   UNL     1       3.572  -0.412   0.000  0.00  0.00    +0.000 C 
ATOM     14  O   UNL     1       4.287   0.000   0.000  0.00  0.00    +0.000 OA
ATOM     15  OXT UNL     1       3.572  -1.238   0.000  0.00  0.00    +0.000 OA
ENDBRANCH  11  13
ENDBRANCH  10  11
ENDBRANCH   2  10
TORSDOF 3
