REMARK  Name = 
REMARK  3 active torsions:
REMARK  status: ('A' for Active; 'I' for Inactive)
REMARK    1  A    between atoms: C_1  and  C_2
REMARK    2  A    between atoms: C_6  and  C_7
REMARK    3  A    between atoms: C_7  and  N_10
REMARK                            x       y       z     vdW  Elec       q    Type
REMARK                         _______ _______ _______ _____ _____    ______ ____
ROOT
ATOM      1  C   UNL     1       0.351   0.704   0.000  0.00  0.00    +0.000 C 
ATOM      2  C   UNL     1      -0.363   1.116   0.000  0.00  0.00    +0.000 C 
ATOM      3  C   UNL     1      -1.078   0.704   0.000  0.00  0.00    +0.000 C 
ATOM      4  C   UNL     1      -1.078  -0.121   0.000  0.00  0.00    +0.000 C 
ATOM      5  C   UNL     1      -0.363  -0.534   0.000  0.00  0.00    +0.000 C 
ATOM      6  O   UNL     1      -0.363   1.941   0.000  0.00  0.00    +0.000 OA
ATOM      7  O   UNL     1      -1.792   1.116   0.000  0.00  0.00    +0.000 OA
ATOM      8  O   UNL     1      -1.792  -0.534   0.000  0.00  0.00    +0.000 OA
ATOM      9  O   UNL     1       0.351  -0.121   0.000  0.00  0.00    +0.000 OA
ENDROOT
BRANCH   5  10
ATOM     10  C   UNL     1      -0.893  -1.166   0.000  0.00  0.00    +0.000 C 
ATOM     11  N   UNL     1      -0.611  -1.941   0.000  0.00  0.00    +0.000 NA
ATOM     12  O   UNL     1      -1.706  -1.023   0.000  0.00  0.00    +0.000 OA
ENDBRANCH   5  10
BRANCH   5  14
ATOM     13  N   UNL     1       1.792  -0.879   0.000  0.00  0.00    +0.000 NA
ATOM     14  N   UNL     1       0.167  -1.166   0.000  0.00  0.00    +0.000 NA
ATOM     15  N   UNL     1       0.980  -1.023   0.000  0.00  0.00    +0.000 NA
ENDBRANCH   5  14
BRANCH   1  16
ATOM     16  C   UNL     1       1.066   1.116   0.000  0.00  0.00    +0.000 C 
ATOM     17  O   UNL     1       1.066   1.941   0.000  0.00  0.00    +0.000 OA
ENDBRANCH   1  16
TORSDOF 3
