REMARK  Name = 
REMARK  14 active torsions:
REMARK  status: ('A' for Active; 'I' for Inactive)
REMARK    1  A    between atoms: S_2  and  O_5
REMARK    2  A    between atoms: O_5  and  C_6
REMARK    3  A    between atoms: C_6  and  C_7
REMARK    4  A    between atoms: C_7  and  N_8
REMARK    5  A    between atoms: N_8  and  C_9
REMARK    6  A    between atoms: N_8  and  C_12
REMARK    7  A    between atoms: C_9  and  C_10
REMARK    8  A    between atoms: C_13  and  C_24
REMARK    9  A    between atoms: C_15  and  N_21
REMARK   10  A    between atoms: C_17  and  N_18
REMARK   11  A    between atoms: N_26  and  C_27
REMARK   12  A    between atoms: C_27  and  C_28
REMARK   13  A    between atoms: C_28  and  O_29
REMARK   14  A    between atoms: O_29  and  P_30
REMARK                            x       y       z     vdW  Elec       q    Type
REMARK                         _______ _______ _______ _____ _____    ______ ____
ROOT
ATOM      1  C   UNL     1       0.000  -1.650   0.000  0.00  0.00    +0.000 A 
ATOM      2  C   UNL     1       0.000  -2.475   0.000  0.00  0.00    +0.000 A 
ATOM      3  C   UNL     1      -0.715  -2.888   0.000  0.00  0.00    +0.000 A 
ATOM      4  C   UNL     1      -1.429  -2.475   0.000  0.00  0.00    +0.000 A 
ATOM      5  C   UNL     1      -1.429  -1.650   0.000  0.00  0.00    +0.000 A 
ATOM      6  C   UNL     1      -0.715  -1.238   0.000  0.00  0.00    +0.000 A 
ENDROOT
BRANCH   6   7
ATOM      7  N   UNL     1      -0.715  -0.412   0.000  0.00  0.00    +0.000 N 
ATOM      8  O   UNL     1       0.000   0.000   0.000  0.00  0.00    +0.000 OA
ATOM      9  O   UNL     1      -1.429   0.000   0.000  0.00  0.00    +0.000 OA
ENDBRANCH   6   7
BRANCH   4  10
ATOM     10  N   UNL     1      -2.143  -2.888   0.000  0.00  0.00    +0.000 N 
ATOM     11  O   UNL     1      -2.858  -2.475   0.000  0.00  0.00    +0.000 OA
ATOM     12  O   UNL     1      -2.143  -3.712   0.000  0.00  0.00    +0.000 OA
ENDBRANCH   4  10
BRANCH   2  13
ATOM     13  C   UNL     1       0.715  -2.888   0.000  0.00  0.00    +0.000 C 
ATOM     14  O   UNL     1       0.715  -3.712   0.000  0.00  0.00    +0.000 OA
ATOM     15  N   UNL     1       1.429  -2.475   0.000  0.00  0.00    +0.000 NA
BRANCH  15  16
ATOM     16  C   UNL     1       2.143  -2.888   0.000  0.00  0.00    +0.000 C 
BRANCH  16  17
ATOM     17  C   UNL     1       2.858  -2.475   0.000  0.00  0.00    +0.000 C 
BRANCH  17  18
ATOM     18  O   UNL     1       3.572  -2.888   0.000  0.00  0.00    +0.000 OA
BRANCH  18  19
ATOM     19  P   UNL     1       4.287  -2.475   0.000  0.00  0.00    +0.000 P 
ATOM     20  O   UNL     1       5.001  -2.062   0.000  0.00  0.00    +0.000 OA
ATOM     21  O   UNL     1       4.699  -3.189   0.000  0.00  0.00    +0.000 OA
ATOM     22  O   UNL     1       3.874  -1.760   0.000  0.00  0.00    +0.000 OA
ENDBRANCH  18  19
ENDBRANCH  17  18
ENDBRANCH  16  17
ENDBRANCH  15  16
ENDBRANCH   2  13
BRANCH   1  23
ATOM     23  N   UNL     1       0.715  -1.238   0.000  0.00  0.00    +0.000 N 
BRANCH  23  24
ATOM     24  C   UNL     1       0.715  -0.412   0.000  0.00  0.00    +0.000 C 
BRANCH  24  25
ATOM     25  C   UNL     1       1.429   0.000   0.000  0.00  0.00    +0.000 C 
BRANCH  25  26
ATOM     26  O   UNL     1       1.429   0.825   0.000  0.00  0.00    +0.000 OA
BRANCH  26  28
ATOM     27  C   UNL     1       2.858   1.650   0.000  0.00  0.00    +0.000 C 
ATOM     28  S   UNL     1       2.143   1.238   0.000  0.00  0.00    +0.000 S 
ATOM     29  O   UNL     1       1.731   1.952   0.000  0.00  0.00    +0.000 OA
ATOM     30  O   UNL     1       2.556   0.523   0.000  0.00  0.00    +0.000 OA
ENDBRANCH  26  28
ENDBRANCH  25  26
ENDBRANCH  24  25
ENDBRANCH  23  24
BRANCH  23  31
ATOM     31  C   UNL     1       1.429  -1.650   0.000  0.00  0.00    +0.000 C 
BRANCH  31  32
ATOM     32  C   UNL     1       2.143  -1.238   0.000  0.00  0.00    +0.000 C 
ATOM     33 BR   UNL     1       2.858  -1.650   0.000  0.00  0.00    +0.000 Br
ENDBRANCH  31  32
ENDBRANCH  23  31
ENDBRANCH   1  23
TORSDOF 14
