REMARK  Name = 
REMARK  2 active torsions:
REMARK  status: ('A' for Active; 'I' for Inactive)
REMARK    1  A    between atoms: C_2  and  O_4
REMARK    2  A    between atoms: O_4  and  C_5
REMARK                            x       y       z     vdW  Elec       q    Type
REMARK                         _______ _______ _______ _____ _____    ______ ____
ROOT
ATOM      1  C   UNL     1       0.000   0.000   0.000  0.00  0.00    +0.000 C 
ATOM      2  C   UNL     1       0.000   0.825   0.000  0.00  0.00    +0.000 C 
ATOM      3  N   UNL     1       0.715   1.238   0.000  0.00  0.00    +0.000 NA
ATOM      4  C   UNL     1       1.429   0.825   0.000  0.00  0.00    +0.000 C 
ATOM      5  C   UNL     1       1.429   0.000   0.000  0.00  0.00    +0.000 C 
ATOM      6  C   UNL     1       0.715  -0.412   0.000  0.00  0.00    +0.000 C 
ATOM      7  C   UNL     1       0.852   0.138   0.000  0.00  0.00    +0.000 C 
ATOM      8  C   UNL     1       0.852   0.688   0.000  0.00  0.00    +0.000 C 
ENDROOT
BRANCH   1   9
ATOM      9  O   UNL     1      -0.715  -0.412   0.000  0.00  0.00    +0.000 OA
BRANCH   9  11
ATOM     10  C   UNL     1      -1.429  -1.650   0.000  0.00  0.00    +0.000 C 
ATOM     11  C   UNL     1      -0.715  -1.238   0.000  0.00  0.00    +0.000 C 
ATOM     12  O   UNL     1       0.000  -1.650   0.000  0.00  0.00    +0.000 OA
ENDBRANCH   9  11
ENDBRANCH   1   9
TORSDOF 2
