REMARK  Name = 
REMARK  3 active torsions:
REMARK  status: ('A' for Active; 'I' for Inactive)
REMARK    1  A    between atoms: CB_1  and  CG_3
REMARK    2  A    between atoms: CB_1  and  CA_4
REMARK    3  A    between atoms: C_2  and  CA_4
REMARK                            x       y       z     vdW  Elec       q    Type
REMARK                         _______ _______ _______ _____ _____    ______ ____
ROOT
ATOM      1  CA  ASP A   1      -1.096  -0.206   0.000  0.00  0.00    +0.000 C 
ATOM      2  N   ASP A   1      -1.096  -1.031   0.000  0.00  0.00    +0.000 NA
ENDROOT
BRANCH   1   3
ATOM      3  C   ASP A   1      -1.812   0.206   0.000  0.00  0.00    +0.000 C 
ATOM      4  O   ASP A   1      -1.812   1.031   0.000  0.00  0.00    +0.000 OA
ATOM      5  OXT ASP A   1      -2.525  -0.206   0.000  0.00  0.00    +0.000 OA
ENDBRANCH   1   3
BRANCH   1   6
ATOM      6  CB  ASP A   1      -0.383   0.206   0.000  0.00  0.00    +0.000 C 
BRANCH   6   7
ATOM      7  CG  ASP A   1       0.333  -0.206   0.000  0.00  0.00    +0.000 C 
ATOM      8  OD1 ASP A   1       1.046   0.206   0.000  0.00  0.00    +0.000 OA
ATOM      9  OD2 ASP A   1       0.333  -1.031   0.000  0.00  0.00    +0.000 OA
ENDBRANCH   6   7
ENDBRANCH   1   6
TORSDOF 3
REMARK  Name = 
REMARK  3 active torsions:
REMARK  status: ('A' for Active; 'I' for Inactive)
REMARK    1  A    between atoms: CB_1  and  CG_3
REMARK    2  A    between atoms: CB_1  and  CA_4
REMARK    3  A    between atoms: C_2  and  CA_4
REMARK                            x       y       z     vdW  Elec       q    Type
REMARK                         _______ _______ _______ _____ _____    ______ ____
ROOT
ATOM      1  K   UNL     1       2.525   0.802   0.000  0.00  0.00    +0.000 K 
ENDROOT
TORSDOF 0
