REMARK  Name = 
REMARK  3 active torsions:
REMARK  status: ('A' for Active; 'I' for Inactive)
REMARK    1  A    between atoms: N_2  and  C_3
REMARK    2  A    between atoms: C_3  and  C_4
REMARK    3  A    between atoms: C_23  and  C_26
REMARK                            x       y       z     vdW  Elec       q    Type
REMARK                         _______ _______ _______ _____ _____    ______ ____
ROOT
ATOM      1  C   UNL     1       0.836   1.134   0.000  0.00  0.00    +0.000 C 
ATOM      2  N   UNL     1       1.643   0.959   0.000  0.00  0.00    +0.000 N 
ATOM      3  C   UNL     1       1.058   0.332   0.000  0.00  0.00    +0.000 C 
ATOM      4  C   UNL     1       1.517  -0.560   0.000  0.00  0.00    +0.000 C 
ATOM      5  C   UNL     1       2.250  -0.938   0.000  0.00  0.00    +0.000 C 
ATOM      6  C   UNL     1       1.612  -1.460   0.000  0.00  0.00    +0.000 C 
ATOM      7  C   UNL     1       0.840  -1.169   0.000  0.00  0.00    +0.000 C 
ATOM      8  O   UNL     1       0.202  -1.691   0.000  0.00  0.00    +0.000 OA
ATOM      9  C   UNL     1       0.707  -0.354   0.000  0.00  0.00    +0.000 C 
ATOM     10  C   UNL     1       1.345   0.168   0.000  0.00  0.00    +0.000 C 
ATOM     11  C   UNL     1       2.117  -0.123   0.000  0.00  0.00    +0.000 C 
ATOM     12  O   UNL     1       2.942  -0.151   0.000  0.00  0.00    +0.000 OA
ATOM     13  C   UNL     1       2.428   1.211   0.000  0.00  0.00    +0.000 C 
ATOM     14  C   UNL     1       3.162   0.833   0.000  0.00  0.00    +0.000 C 
ATOM     15  C   UNL     1       3.413   0.048   0.000  0.00  0.00    +0.000 A 
ATOM     16  C   UNL     1       3.036  -0.686   0.000  0.00  0.00    +0.000 A 
ATOM     17  C   UNL     1       3.482  -1.379   0.000  0.00  0.00    +0.000 A 
ATOM     18  O   UNL     1       3.105  -2.113   0.000  0.00  0.00    +0.000 OA
ATOM     19  C   UNL     1       4.306  -1.340   0.000  0.00  0.00    +0.000 A 
ATOM     20  C   UNL     1       4.684  -0.606   0.000  0.00  0.00    +0.000 A 
ATOM     21  C   UNL     1       4.237   0.088   0.000  0.00  0.00    +0.000 A 
ENDROOT
BRANCH  19  22
ATOM     22  C   UNL     1       4.753  -2.033   0.000  0.00  0.00    +0.000 C 
ATOM     23  N   UNL     1       5.577  -1.994   0.000  0.00  0.00    +0.000 NA
ATOM     24  O   UNL     1       4.375  -2.767   0.000  0.00  0.00    +0.000 OA
ENDBRANCH  19  22
BRANCH   2  25
ATOM     25  C   UNL     1       1.603   1.783   0.000  0.00  0.00    +0.000 C 
BRANCH  25  26
ATOM     26  C   UNL     1       0.869   2.161   0.000  0.00  0.00    +0.000 C 
ATOM     27  C   UNL     1       0.045   2.121   0.000  0.00  0.00    +0.000 C 
ATOM     28  C   UNL     1       0.423   2.854   0.000  0.00  0.00    +0.000 C 
ENDBRANCH  25  26
ENDBRANCH   2  25
TORSDOF 3
