REMARK  Name = 
REMARK  0 active torsions:
REMARK  status: ('A' for Active; 'I' for Inactive)
REMARK                            x       y       z     vdW  Elec       q    Type
REMARK                         _______ _______ _______ _____ _____    ______ ____
ROOT
ATOM      1  C   UNL     1      -2.483  -3.082   0.000  0.00  0.00    +0.000 A 
ATOM      2  C   UNL     1      -3.072  -2.503   0.000  0.00  0.00    +0.000 A 
ATOM      3  C   UNL     1       2.524  -3.038   0.000  0.00  0.00    +0.000 A 
ATOM      4  C   UNL     1       3.102  -2.449   0.000  0.00  0.00    +0.000 A 
ATOM      5  C   UNL     1      -3.058   2.418   0.000  0.00  0.00    +0.000 A 
ATOM      6  C   UNL     1      -2.480   3.007   0.000  0.00  0.00    +0.000 A 
ATOM      7  C   UNL     1       3.031   2.530   0.000  0.00  0.00    +0.000 A 
ATOM      8  C   UNL     1       2.443   3.108   0.000  0.00  0.00    +0.000 A 
ATOM      9  C   UNL     1      -1.688  -2.861   0.000  0.00  0.00    +0.000 A 
ATOM     10  C   UNL     1      -2.865  -1.705   0.000  0.00  0.00    +0.000 A 
ATOM     11  C   UNL     1       1.725  -2.831   0.000  0.00  0.00    +0.000 A 
ATOM     12  C   UNL     1       2.881  -1.654   0.000  0.00  0.00    +0.000 A 
ATOM     13  C   UNL     1      -2.838   1.623   0.000  0.00  0.00    +0.000 A 
ATOM     14  C   UNL     1      -1.681   2.800   0.000  0.00  0.00    +0.000 A 
ATOM     15  C   UNL     1       2.825   1.732   0.000  0.00  0.00    +0.000 A 
ATOM     16  C   UNL     1       1.648   2.888   0.000  0.00  0.00    +0.000 A 
ATOM     17  C   UNL     1      -1.482  -2.062   0.000  0.00  0.00    +0.000 A 
ATOM     18  C   UNL     1      -2.070  -1.484   0.000  0.00  0.00    +0.000 A 
ATOM     19  C   UNL     1       1.504  -2.036   0.000  0.00  0.00    +0.000 A 
ATOM     20  C   UNL     1       2.083  -1.448   0.000  0.00  0.00    +0.000 A 
ATOM     21  C   UNL     1      -2.039   1.417   0.000  0.00  0.00    +0.000 A 
ATOM     22  C   UNL     1      -1.461   2.005   0.000  0.00  0.00    +0.000 A 
ATOM     23  C   UNL     1       2.030   1.511   0.000  0.00  0.00    +0.000 A 
ATOM     24  C   UNL     1       1.441   2.089   0.000  0.00  0.00    +0.000 A 
ATOM     25  C   UNL     1      -0.724  -1.646   0.000  0.00  0.00    +0.000 C 
ATOM     26  C   UNL     1      -1.669  -0.747   0.000  0.00  0.00    +0.000 C 
ATOM     27  C   UNL     1       0.711  -1.663   0.000  0.00  0.00    +0.000 C 
ATOM     28  C   UNL     1      -1.682   0.717   0.000  0.00  0.00    +0.000 C 
ATOM     29  C   UNL     1       1.668  -0.688   0.000  0.00  0.00    +0.000 C 
ATOM     30  C   UNL     1      -0.724   1.663   0.000  0.00  0.00    +0.000 C 
ATOM     31  C   UNL     1       1.627   0.746   0.000  0.00  0.00    +0.000 A 
ATOM     32  C   UNL     1       0.711   1.675   0.000  0.00  0.00    +0.000 A 
ATOM     33  N   UNL     1      -0.848  -0.886   0.000  0.00  0.00    +0.000 NA
ATOM     34  N   UNL     1       0.850  -0.871   0.000  0.00  0.00    +0.000 NA
ATOM     35  N   UNL     1      -0.893   0.871   0.000  0.00  0.00    +0.000 NA
ATOM     36  N   UNL     1       0.864   0.857   0.000  0.00  0.00    +0.000 NA
ATOM     37  N   UNL     1       0.011  -2.049   0.000  0.00  0.00    +0.000 NA
ATOM     38  N   UNL     1      -2.056  -0.047   0.000  0.00  0.00    +0.000 NA
ATOM     39  N   UNL     1       2.043   0.018   0.000  0.00  0.00    +0.000 NA
ATOM     40  N   UNL     1       0.005   2.050   0.000  0.00  0.00    +0.000 NA
ENDROOT
TORSDOF 0
