REMARK  Name = 
REMARK  4 active torsions:
REMARK  status: ('A' for Active; 'I' for Inactive)
REMARK    1  A    between atoms: C_6  and  O_16
REMARK    2  A    between atoms: C_9  and  C_11
REMARK    3  A    between atoms: C_9  and  N_13
REMARK    4  A    between atoms: C_10  and  C_11
REMARK                            x       y       z     vdW  Elec       q    Type
REMARK                         _______ _______ _______ _____ _____    ______ ____
ROOT
ATOM      1  C   UNL     1       4.561  -4.934   0.000  0.00  0.00    +0.000 A 
ATOM      2  C   UNL     1       3.847  -4.522   0.000  0.00  0.00    +0.000 A 
ATOM      3  C   UNL     1       5.276  -3.697   0.000  0.00  0.00    +0.000 A 
ATOM      4  C   UNL     1       5.276  -4.522   0.000  0.00  0.00    +0.000 A 
ATOM      5  C   UNL     1       4.561  -3.284   0.000  0.00  0.00    +0.000 A 
ATOM      6  C   UNL     1       3.847  -3.697   0.000  0.00  0.00    +0.000 A 
ATOM      7  N   UNL     1       6.061  -4.777   0.000  0.00  0.00    +0.000 NA
ATOM      8  C   UNL     1       6.545  -4.109   0.000  0.00  0.00    +0.000 A 
ATOM      9  C   UNL     1       6.061  -3.442   0.000  0.00  0.00    +0.000 A 
ENDROOT
BRANCH   6  10
ATOM     10  O   UNL     1       3.133  -3.284   0.000  0.00  0.00    +0.000 OA
ATOM     11  C   UNL     1       2.418  -3.697   0.000  0.00  0.00    +0.000 C 
ENDBRANCH   6  10
BRANCH   9  12
ATOM     12  C   UNL     1       6.315  -2.657   0.000  0.00  0.00    +0.000 C 
BRANCH  12  13
ATOM     13  C   UNL     1       7.122  -2.486   0.000  0.00  0.00    +0.000 C 
BRANCH  13  15
ATOM     14  C   UNL     1       8.184  -1.530   0.000  0.00  0.00    +0.000 C 
ATOM     15  N   UNL     1       7.377  -1.701   0.000  0.00  0.00    +0.000 NA
ATOM     16  O   UNL     1       8.736  -2.143   0.000  0.00  0.00    +0.000 OA
ATOM     17  C   UNL     1       8.439  -0.745   0.000  0.00  0.00    +0.000 C 
ENDBRANCH  13  15
ENDBRANCH  12  13
ENDBRANCH   9  12
TORSDOF 4
