REMARK  Name = 
REMARK  8 active torsions:
REMARK  status: ('A' for Active; 'I' for Inactive)
REMARK    1  A    between atoms: N_2  and  C_7
REMARK    2  A    between atoms: C_7  and  C_8
REMARK    3  A    between atoms: CA_9  and  C_26
REMARK    4  A    between atoms: C_23  and  C_31
REMARK    5  A    between atoms: C_24  and  N_33
REMARK    6  A    between atoms: N_33  and  C_34
REMARK    7  A    between atoms: C_34  and  C_35
REMARK    8  A    between atoms: C_35  and  O_36
REMARK                            x       y       z     vdW  Elec       q    Type
REMARK                         _______ _______ _______ _____ _____    ______ ____
ROOT
ATOM      1  C   UNL     1      -1.782  -1.441   0.000  0.00  0.00    +0.000 A 
ATOM      2  CA  UNL     1      -1.782  -0.616   0.000  0.00  0.00    +0.000 A 
ATOM      3  N   UNL     1      -1.070  -0.206   0.000  0.00  0.00    +0.000 NA
ATOM      4  C   UNL     1      -0.355  -0.618   0.000  0.00  0.00    +0.000 A 
ATOM      5  C   UNL     1      -0.353  -1.439   0.000  0.00  0.00    +0.000 A 
ATOM      6  C   UNL     1      -1.065  -1.856   0.000  0.00  0.00    +0.000 A 
ATOM      7  N   UNL     1       0.355  -0.206   0.000  0.00  0.00    +0.000 N 
ATOM      8  C   UNL     1       1.067  -0.616   0.000  0.00  0.00    +0.000 C 
ATOM      9  C   UNL     1       1.069  -1.437   0.000  0.00  0.00    +0.000 C 
ATOM     10  C   UNL     1       0.358  -1.848   0.000  0.00  0.00    +0.000 C 
ATOM     11  C   UNL     1       0.355   0.618   0.000  0.00  0.00    +0.000 C 
ATOM     12  N   UNL     1      -0.359   1.031   0.000  0.00  0.00    +0.000 NA
ATOM     13  C   UNL     1      -0.359   1.856   0.000  0.00  0.00    +0.000 A 
ATOM     14  N   UNL     1      -1.074   2.269   0.000  0.00  0.00    +0.000 NA
ATOM     15  C   UNL     1      -1.073   3.091   0.000  0.00  0.00    +0.000 A 
ATOM     16  C   UNL     1      -0.358   3.504   0.000  0.00  0.00    +0.000 A 
ATOM     17  C   UNL     1       0.353   3.095   0.000  0.00  0.00    +0.000 A 
ATOM     18  C   UNL     1       0.358   2.270   0.000  0.00  0.00    +0.000 A 
ATOM     19  O   UNL     1       1.070   1.031   0.000  0.00  0.00    +0.000 OA
ENDROOT
BRANCH  16  20
ATOM     20  C   UNL     1      -0.358   4.329   0.000  0.00  0.00    +0.000 C 
ATOM     21  N   UNL     1      -0.358   5.154   0.000  0.00  0.00    +0.000 NA
ENDBRANCH  16  20
BRANCH   2  22
ATOM     22  C   UNL     1      -2.497  -0.204   0.000  0.00  0.00    +0.000 C 
ATOM     23  O   UNL     1      -2.497   0.621   0.000  0.00  0.00    +0.000 OA
ENDBRANCH   2  22
BRANCH   1  24
ATOM     24  C   UNL     1      -2.497  -1.854   0.000  0.00  0.00    +0.000 C 
BRANCH  24  26
ATOM     25  C   UNL     1      -3.212  -3.091   0.000  0.00  0.00    +0.000 C 
ATOM     26  N   UNL     1      -2.497  -2.679   0.000  0.00  0.00    +0.000 N 
ATOM     27  C   UNL     1      -1.783  -3.091   0.000  0.00  0.00    +0.000 C 
ATOM     28  C   UNL     1      -1.783  -3.916   0.000  0.00  0.00    +0.000 C 
ATOM     29  N   UNL     1      -2.497  -4.329   0.000  0.00  0.00    +0.000 NA
ATOM     30  C   UNL     1      -3.212  -3.916   0.000  0.00  0.00    +0.000 C 
ATOM     31  C   UNL     1      -2.497  -5.154   0.000  0.00  0.00    +0.000 C 
ATOM     32  O   UNL     1      -3.926  -2.679   0.000  0.00  0.00    +0.000 OA
ENDBRANCH  24  26
ENDBRANCH   1  24
BRANCH  17  33
ATOM     33  N   UNL     1       1.068   3.507   0.000  0.00  0.00    +0.000 NA
BRANCH  33  34
ATOM     34  C   UNL     1       1.782   3.095   0.000  0.00  0.00    +0.000 C 
BRANCH  34  35
ATOM     35  C   UNL     1       2.497   3.507   0.000  0.00  0.00    +0.000 C 
BRANCH  35  36
ATOM     36  O   UNL     1       3.212   3.095   0.000  0.00  0.00    +0.000 OA
ATOM     37  C   UNL     1       3.926   3.507   0.000  0.00  0.00    +0.000 C 
ENDBRANCH  35  36
ENDBRANCH  34  35
ENDBRANCH  33  34
ENDBRANCH  17  33
TORSDOF 8
