REMARK  Name = 
REMARK  3 active torsions:
REMARK  status: ('A' for Active; 'I' for Inactive)
REMARK    1  A    between atoms: C_3  and  C_8
REMARK    2  A    between atoms: C_8  and  C_9
REMARK    3  A    between atoms: C_8  and  N_18
REMARK                            x       y       z     vdW  Elec       q    Type
REMARK                         _______ _______ _______ _____ _____    ______ ____
ROOT
ATOM      1  C   UNL     1       4.067   2.348   0.000  0.00  0.00    +0.000 C 
ENDROOT
BRANCH   1   2
ATOM      2  C   UNL     1       3.352   1.935   0.000  0.00  0.00    +0.000 A 
ATOM      3  C   UNL     1       3.352   1.110   0.000  0.00  0.00    +0.000 A 
ATOM      4  C   UNL     1       2.638   0.698   0.000  0.00  0.00    +0.000 A 
ATOM      5  C   UNL     1       1.923   1.110   0.000  0.00  0.00    +0.000 A 
ATOM      6  C   UNL     1       1.923   1.935   0.000  0.00  0.00    +0.000 A 
ATOM      7  C   UNL     1       2.638   2.348   0.000  0.00  0.00    +0.000 A 
ATOM      8  N   UNL     1       1.139   2.190   0.000  0.00  0.00    +0.000 NA
ATOM      9  C   UNL     1       0.654   1.523   0.000  0.00  0.00    +0.000 A 
ATOM     10  N   UNL     1       1.139   0.856   0.000  0.00  0.00    +0.000 NA
ENDBRANCH   1   2
BRANCH   1  13
ATOM     11  C   UNL     1       5.496   0.698   0.000  0.00  0.00    +0.000 A 
ATOM     12  C   UNL     1       4.781   1.110   0.000  0.00  0.00    +0.000 A 
ATOM     13  C   UNL     1       4.781   1.935   0.000  0.00  0.00    +0.000 A 
ATOM     14  C   UNL     1       5.496   2.348   0.000  0.00  0.00    +0.000 A 
ATOM     15  C   UNL     1       6.210   1.935   0.000  0.00  0.00    +0.000 A 
ATOM     16  C   UNL     1       6.210   1.110   0.000  0.00  0.00    +0.000 A 
ATOM     17 CL   UNL     1       6.925   2.348   0.000  0.00  0.00    +0.000 Cl
ENDBRANCH   1  13
BRANCH   1  18
ATOM     18  N   UNL     1       4.067   3.173   0.000  0.00  0.00    +0.000 N 
ATOM     19  C   UNL     1       3.399   3.658   0.000  0.00  0.00    +0.000 A 
ATOM     20  C   UNL     1       3.654   4.442   0.000  0.00  0.00    +0.000 A 
ATOM     21  N   UNL     1       4.479   4.442   0.000  0.00  0.00    +0.000 NA
ATOM     22  C   UNL     1       4.734   3.658   0.000  0.00  0.00    +0.000 A 
ENDBRANCH   1  18
TORSDOF 3
