REMARK  Name = 
REMARK  8 active torsions:
REMARK  status: ('A' for Active; 'I' for Inactive)
REMARK    1  A    between atoms: C_1  and  C_2
REMARK    2  A    between atoms: C_3  and  C_8
REMARK    3  A    between atoms: C_4  and  C_10
REMARK    4  A    between atoms: C_5  and  N_12
REMARK    5  A    between atoms: C_8  and  O_16
REMARK    6  A    between atoms: C_10  and  O_19
REMARK    7  A    between atoms: O_16  and  C_24
REMARK    8  A    between atoms: C_24  and  C_26
REMARK                            x       y       z     vdW  Elec       q    Type
REMARK                         _______ _______ _______ _____ _____    ______ ____
ROOT
ATOM      1  C   UNL     1       0.714   0.752   0.000  0.00  0.00    +0.000 C 
ATOM      2  C   UNL     1      -0.003   1.160   0.000  0.00  0.00    +0.000 C 
ATOM      3  C   UNL     1       1.430   1.160   0.000  0.00  0.00    +0.000 C 
ATOM      4  C   UNL     1      -0.003   1.987   0.000  0.00  0.00    +0.000 C 
ATOM      5  C   UNL     1       1.430   1.987   0.000  0.00  0.00    +0.000 C 
ATOM      6  N   UNL     1       0.714   2.399   0.000  0.00  0.00    +0.000 NA
ATOM      7  C   UNL     1      -0.717   2.399   0.000  0.00  0.00    +0.000 C 
ATOM      8  C   UNL     1       2.144   2.399   0.000  0.00  0.00    +0.000 C 
ENDROOT
BRANCH   1   9
ATOM      9  C   UNL     1       0.706  -0.745   0.000  0.00  0.00    +0.000 A 
ATOM     10  C   UNL     1      -0.014  -1.160   0.000  0.00  0.00    +0.000 A 
ATOM     11  C   UNL     1       1.419  -1.160   0.000  0.00  0.00    +0.000 A 
ATOM     12  C   UNL     1      -0.014  -1.980   0.000  0.00  0.00    +0.000 A 
ATOM     13  C   UNL     1       1.419  -1.980   0.000  0.00  0.00    +0.000 A 
ATOM     14  C   UNL     1       0.706  -2.399   0.000  0.00  0.00    +0.000 A 
BRANCH  10  15
ATOM     15  N   UNL     1      -0.720  -0.745   0.000  0.00  0.00    +0.000 N 
ATOM     16  O   UNL     1       0.221  -0.123   0.000  0.00  0.00    +0.000 OA
ATOM     17  O   UNL     1      -1.886  -1.520   0.000  0.00  0.00    +0.000 OA
ENDBRANCH  10  15
ENDBRANCH   1   9
BRANCH   3  18
ATOM     18  C   UNL     1       2.144   0.752   0.000  0.00  0.00    +0.000 C 
ATOM     19  O   UNL     1       2.144  -0.075   0.000  0.00  0.00    +0.000 OA
BRANCH  18  20
ATOM     20  O   UNL     1       2.853   1.160   0.000  0.00  0.00    +0.000 OA
ATOM     21  C   UNL     1       3.567   0.752   0.000  0.00  0.00    +0.000 C 
ENDBRANCH  18  20
ENDBRANCH   3  18
BRANCH   2  22
ATOM     22  C   UNL     1      -0.717   0.752   0.000  0.00  0.00    +0.000 C 
ATOM     23  O   UNL     1      -0.713  -0.013   0.000  0.00  0.00    +0.000 OA
BRANCH  22  24
ATOM     24  O   UNL     1      -1.430   1.160   0.000  0.00  0.00    +0.000 OA
BRANCH  24  25
ATOM     25  C   UNL     1      -2.143   0.752   0.000  0.00  0.00    +0.000 C 
BRANCH  25  26
ATOM     26  C   UNL     1      -2.853   1.165   0.000  0.00  0.00    +0.000 C 
ATOM     27  C   UNL     1      -3.567   0.757   0.000  0.00  0.00    +0.000 C 
ATOM     28  O   UNL     1      -2.850   1.987   0.000  0.00  0.00    +0.000 OA
ENDBRANCH  25  26
ENDBRANCH  24  25
ENDBRANCH  22  24
ENDBRANCH   2  22
TORSDOF 8
