REMARK  Name = 
REMARK  0 active torsions:
REMARK  status: ('A' for Active; 'I' for Inactive)
REMARK                            x       y       z     vdW  Elec       q    Type
REMARK                         _______ _______ _______ _____ _____    ______ ____
ROOT
ATOM      1  C   UNL     1       1.787  -0.825   0.000  0.00  0.00    +0.000 C 
ATOM      2  C   UNL     1       1.787   0.825   0.000  0.00  0.00    +0.000 C 
ATOM      3  C   UNL     1       2.501   0.412   0.000  0.00  0.00    +0.000 C 
ATOM      4  C   UNL     1       2.501  -0.412   0.000  0.00  0.00    +0.000 C 
ATOM      5  C   UNL     1       1.072   0.412   0.000  0.00  0.00    +0.000 C 
ATOM      6  C   UNL     1       1.072  -0.412   0.000  0.00  0.00    +0.000 C 
ATOM      7  H   UNL     1       0.276  -1.492   0.000  0.00  0.00    +0.000 HD
ATOM      8  N   UNL     1       0.288  -0.667   0.000  0.00  0.00    +0.000 N 
ATOM      9  H   UNL     1      -0.188  -1.342   0.000  0.00  0.00    +0.000 HD
ATOM     10  H   UNL     1      -0.188   1.342   0.000  0.00  0.00    +0.000 HD
ATOM     11  N   UNL     1       0.288   0.667   0.000  0.00  0.00    +0.000 N 
ATOM     12  H   UNL     1       0.276   1.492   0.000  0.00  0.00    +0.000 HD
ATOM     13  C   UNL     1      -1.787   0.412   0.000  0.00  0.00    +0.000 C 
ATOM     14  C   UNL     1      -1.787  -0.412   0.000  0.00  0.00    +0.000 C 
ATOM     15 PT   UNL     1      -0.357   0.000   0.000  0.00  0.00    +0.000 Pt
ATOM     16  O   UNL     1      -1.002   0.667   0.000  0.00  0.00    +0.000 OA
ATOM     17  O   UNL     1      -1.002  -0.667   0.000  0.00  0.00    +0.000 OA
ATOM     18  O   UNL     1      -2.501  -0.825   0.000  0.00  0.00    +0.000 OA
ATOM     19  O   UNL     1      -2.501   0.825   0.000  0.00  0.00    +0.000 OA
ENDROOT
TORSDOF 0
