REMARK  Name = 
REMARK  10 active torsions:
REMARK  status: ('A' for Active; 'I' for Inactive)
REMARK    1  A    between atoms: C_2  and  N_3
REMARK    2  A    between atoms: N_13  and  C_14
REMARK    3  A    between atoms: C_14  and  C_15
REMARK    4  A    between atoms: C_14  and  C_18
REMARK    5  A    between atoms: N_20  and  C_21
REMARK    6  A    between atoms: C_21  and  O_41
REMARK    7  A    between atoms: C_26  and  C_38
REMARK    8  A    between atoms: C_27  and  C_30
REMARK    9  A    between atoms: C_30  and  S_31
REMARK   10  A    between atoms: S_31  and  C_32
REMARK                            x       y       z     vdW  Elec       q    Type
REMARK                         _______ _______ _______ _____ _____    ______ ____
ROOT
ATOM      1  C   UNL     1       3.462  -5.112   0.000  0.00  0.00    +0.000 C 
ATOM      2  C   UNL     1       4.176  -5.524   0.000  0.00  0.00    +0.000 C 
ATOM      3  N   UNL     1       4.589  -4.810   0.000  0.00  0.00    +0.000 N 
ATOM      4  C   UNL     1       3.874  -4.397   0.000  0.00  0.00    +0.000 C 
ATOM      5  O   UNL     1       3.661  -3.600   0.000  0.00  0.00    +0.000 OA
ATOM      6  C   UNL     1       5.414  -4.810   0.000  0.00  0.00    +0.000 C 
ATOM      7  C   UNL     1       5.826  -5.524   0.000  0.00  0.00    +0.000 C 
ATOM      8  C   UNL     1       5.414  -6.239   0.000  0.00  0.00    +0.000 C 
ATOM      9  S   UNL     1       4.589  -6.239   0.000  0.00  0.00    +0.000 S 
ENDROOT
BRANCH   6  10
ATOM     10  C   UNL     1       5.826  -4.095   0.000  0.00  0.00    +0.000 C 
ATOM     11  O   UNL     1       6.651  -4.095   0.000  0.00  0.00    +0.000 OA
ATOM     12  O   UNL     1       5.414  -3.381   0.000  0.00  0.00    +0.000 OA
ENDBRANCH   6  10
BRANCH   1  15
ATOM     13  C   UNL     1       2.033  -5.112   0.000  0.00  0.00    +0.000 C 
ATOM     14  O   UNL     1       2.033  -5.937   0.000  0.00  0.00    +0.000 OA
ATOM     15  N   UNL     1       2.747  -4.699   0.000  0.00  0.00    +0.000 NA
BRANCH  13  16
ATOM     16  C   UNL     1       1.318  -4.699   0.000  0.00  0.00    +0.000 C 
BRANCH  16  27
ATOM     17  N   UNL     1      -2.254  -5.937   0.000  0.00  0.00    +0.000 N 
ATOM     18  C   UNL     1      -2.254  -5.112   0.000  0.00  0.00    +0.000 C 
ATOM     19  C   UNL     1      -1.540  -4.699   0.000  0.00  0.00    +0.000 C 
ATOM     20  N   UNL     1      -0.825  -5.112   0.000  0.00  0.00    +0.000 N 
ATOM     21  C   UNL     1      -0.825  -5.937   0.000  0.00  0.00    +0.000 C 
ATOM     22  O   UNL     1      -0.111  -6.349   0.000  0.00  0.00    +0.000 OA
ATOM     23  C   UNL     1      -1.540  -6.349   0.000  0.00  0.00    +0.000 C 
ATOM     24  O   UNL     1      -1.540  -7.174   0.000  0.00  0.00    +0.000 OA
ATOM     25  C   UNL     1      -0.111  -4.699   0.000  0.00  0.00    +0.000 C 
ATOM     26  O   UNL     1      -0.111  -3.874   0.000  0.00  0.00    +0.000 OA
ATOM     27  N   UNL     1       0.604  -5.112   0.000  0.00  0.00    +0.000 NA
BRANCH  17  29
ATOM     28  C   UNL     1      -2.968  -7.174   0.000  0.00  0.00    +0.000 C 
ATOM     29  C   UNL     1      -2.968  -6.349   0.000  0.00  0.00    +0.000 C 
ENDBRANCH  17  29
ENDBRANCH  16  27
BRANCH  16  30
ATOM     30  C   UNL     1       1.318  -3.874   0.000  0.00  0.00    +0.000 C 
ATOM     31  C   UNL     1       2.033  -3.462   0.000  0.00  0.00    +0.000 C 
ATOM     32  O   UNL     1       0.604  -3.462   0.000  0.00  0.00    +0.000 OA
ENDBRANCH  16  30
ENDBRANCH  13  16
ENDBRANCH   1  15
BRANCH   1  33
ATOM     33  O   UNL     1       3.049  -5.826   0.000  0.00  0.00    +0.000 OA
ATOM     34  C   UNL     1       3.462  -6.541   0.000  0.00  0.00    +0.000 C 
ENDBRANCH   1  33
BRANCH   7  35
ATOM     35  C   UNL     1       6.651  -5.524   0.000  0.00  0.00    +0.000 C 
BRANCH  35  36
ATOM     36  S   UNL     1       7.064  -4.810   0.000  0.00  0.00    +0.000 S 
BRANCH  36  37
ATOM     37  C   UNL     1       7.889  -4.810   0.000  0.00  0.00    +0.000 A 
ATOM     38  N   UNL     1       8.374  -4.142   0.000  0.00  0.00    +0.000 NA
ATOM     39  N   UNL     1       9.158  -4.397   0.000  0.00  0.00    +0.000 NA
ATOM     40  N   UNL     1       9.158  -5.222   0.000  0.00  0.00    +0.000 NA
ATOM     41  N   UNL     1       8.374  -5.477   0.000  0.00  0.00    +0.000 N 
ATOM     42  C   UNL     1       8.119  -6.262   0.000  0.00  0.00    +0.000 C 
ENDBRANCH  36  37
ENDBRANCH  35  36
ENDBRANCH   7  35
TORSDOF 10
