REMARK  Name = 
REMARK  0 active torsions:
REMARK  status: ('A' for Active; 'I' for Inactive)
REMARK                            x       y       z     vdW  Elec       q    Type
REMARK                         _______ _______ _______ _____ _____    ______ ____
ROOT
ATOM      1  C   UNL     1      -2.060  -0.316   0.000  0.00  0.00    +0.000 C 
ATOM      2  C   UNL     1      -2.060  -1.147   0.000  0.00  0.00    +0.000 C 
ATOM      3  C   UNL     1      -1.350  -1.558   0.000  0.00  0.00    +0.000 C 
ATOM      4  C   UNL     1      -0.634  -1.147   0.000  0.00  0.00    +0.000 C 
ATOM      5  C   UNL     1      -0.634  -0.316   0.000  0.00  0.00    +0.000 C 
ATOM      6  C   UNL     1      -1.350   0.094   0.000  0.00  0.00    +0.000 C 
ATOM      7  C   UNL     1       0.076   0.094   0.000  0.00  0.00    +0.000 C 
ATOM      8  C   UNL     1       0.792  -0.316   0.000  0.00  0.00    +0.000 C 
ATOM      9  C   UNL     1       0.792  -1.147   0.000  0.00  0.00    +0.000 C 
ATOM     10  C   UNL     1       0.076  -1.558   0.000  0.00  0.00    +0.000 C 
ATOM     11  C   UNL     1       1.508   0.094   0.000  0.00  0.00    +0.000 C 
ATOM     12  C   UNL     1       1.508   0.915   0.000  0.00  0.00    +0.000 C 
ATOM     13  C   UNL     1       0.792   1.327   0.000  0.00  0.00    +0.000 C 
ATOM     14  C   UNL     1       0.076   0.915   0.000  0.00  0.00    +0.000 C 
ATOM     15  C   UNL     1       2.288   1.168   0.000  0.00  0.00    +0.000 C 
ATOM     16  C   UNL     1       2.776   0.505   0.000  0.00  0.00    +0.000 C 
ATOM     17  C   UNL     1       2.288  -0.163   0.000  0.00  0.00    +0.000 C 
ATOM     18  O   UNL     1       2.545   1.958   0.000  0.00  0.00    +0.000 OA
ATOM     19  C   UNL     1       1.508   1.742   0.000  0.00  0.00    +0.000 C 
ATOM     20  C   UNL     1      -0.634   0.505   0.000  0.00  0.00    +0.000 C 
ATOM     21  O   UNL     1      -2.776  -1.558   0.000  0.00  0.00    +0.000 OA
ENDROOT
TORSDOF 0
