REMARK  Name = 
REMARK  6 active torsions:
REMARK  status: ('A' for Active; 'I' for Inactive)
REMARK    1  A    between atoms: C_6  and  C_23
REMARK    2  A    between atoms: C_10  and  C_17
REMARK    3  A    between atoms: C_16  and  O_46
REMARK    4  A    between atoms: N_25  and  S_26
REMARK    5  A    between atoms: S_26  and  N_27
REMARK    6  A    between atoms: C_33  and  C_34
REMARK                            x       y       z     vdW  Elec       q    Type
REMARK                         _______ _______ _______ _____ _____    ______ ____
ROOT
ATOM      1  C   UNL     1       2.632   1.592   0.000  0.00  0.00    +0.000 C 
ATOM      2  C   UNL     1       0.117  -0.127   0.000  0.00  0.00    +0.000 A 
ATOM      3  C   UNL     1       0.117  -0.966   0.000  0.00  0.00    +0.000 A 
ATOM      4  C   UNL     1      -0.584   0.286   0.000  0.00  0.00    +0.000 A 
ATOM      5  C   UNL     1      -0.594  -1.369   0.000  0.00  0.00    +0.000 A 
ATOM      6  C   UNL     1      -1.305  -0.127   0.000  0.00  0.00    +0.000 A 
ATOM      7  C   UNL     1      -1.305  -0.955   0.000  0.00  0.00    +0.000 A 
ATOM      8  N   UNL     1       0.913   0.138   0.000  0.00  0.00    +0.000 N 
ATOM      9  C   UNL     1       1.401  -0.541   0.000  0.00  0.00    +0.000 A 
ATOM     10  C   UNL     1       0.902  -1.220   0.000  0.00  0.00    +0.000 A 
ATOM     11  C   UNL     1       2.218  -0.541   0.000  0.00  0.00    +0.000 A 
ATOM     12  C   UNL     1       2.770   0.064   0.000  0.00  0.00    +0.000 A 
ATOM     13  C   UNL     1       2.537  -1.305   0.000  0.00  0.00    +0.000 A 
ATOM     14  C   UNL     1       3.577  -0.106   0.000  0.00  0.00    +0.000 A 
ATOM     15  C   UNL     1       3.322  -1.496   0.000  0.00  0.00    +0.000 A 
ATOM     16  C   UNL     1       3.874  -0.870   0.000  0.00  0.00    +0.000 A 
ATOM     17  C   UNL     1       1.167   0.881   0.000  0.00  0.00    +0.000 C 
ATOM     18  C   UNL     1       2.526   0.817   0.000  0.00  0.00    +0.000 C 
ATOM     19  C   UNL     1       1.857   1.284   0.000  0.00  0.00    +0.000 C 
ENDROOT
BRANCH  19  20
ATOM     20  C   UNL     1       1.496   2.038   0.000  0.00  0.00    +0.000 C 
ATOM     21  O   UNL     1       1.942   2.738   0.000  0.00  0.00    +0.000 OA
ATOM     22  N   UNL     1       0.669   2.133   0.000  0.00  0.00    +0.000 N 
ATOM     23  C   UNL     1       0.669   2.961   0.000  0.00  0.00    +0.000 C 
ATOM     24  C   UNL     1      -0.043   3.375   0.000  0.00  0.00    +0.000 C 
ATOM     25  C   UNL     1      -0.043   1.719   0.000  0.00  0.00    +0.000 C 
ATOM     26  N   UNL     1      -0.764   2.961   0.000  0.00  0.00    +0.000 NA
ATOM     27  C   UNL     1      -0.764   2.133   0.000  0.00  0.00    +0.000 C 
ATOM     28  C   UNL     1      -1.475   3.375   0.000  0.00  0.00    +0.000 C 
ATOM     29  C   UNL     1      -0.117   0.679   0.000  0.00  0.00    +0.000 C 
ATOM     30  C   UNL     1       1.475   3.608   0.000  0.00  0.00    +0.000 C 
ENDBRANCH  19  20
BRANCH  10  31
ATOM     31  C   UNL     1       1.135  -2.006   0.000  0.00  0.00    +0.000 C 
ATOM     32  C   UNL     1       0.584  -2.632   0.000  0.00  0.00    +0.000 C 
ATOM     33  C   UNL     1       1.921  -2.218   0.000  0.00  0.00    +0.000 C 
ATOM     34  C   UNL     1       0.849  -3.407   0.000  0.00  0.00    +0.000 C 
ATOM     35  C   UNL     1       2.197  -2.982   0.000  0.00  0.00    +0.000 C 
ATOM     36  C   UNL     1       1.645  -3.608   0.000  0.00  0.00    +0.000 C 
ENDBRANCH  10  31
BRANCH   6  37
ATOM     37  C   UNL     1      -2.027   0.276   0.000  0.00  0.00    +0.000 C 
ATOM     38  O   UNL     1      -2.027   1.104   0.000  0.00  0.00    +0.000 OA
ATOM     39  N   UNL     1      -2.738  -0.127   0.000  0.00  0.00    +0.000 NA
BRANCH  39  40
ATOM     40  S   UNL     1      -3.460   0.276   0.000  0.00  0.00    +0.000 S 
ATOM     41  O   UNL     1      -3.460   1.093   0.000  0.00  0.00    +0.000 OA
ATOM     42  O   UNL     1      -3.460  -0.828   0.000  0.00  0.00    +0.000 OA
BRANCH  40  43
ATOM     43  N   UNL     1      -4.585  -0.223   0.000  0.00  0.00    +0.000 NA
ATOM     44  C   UNL     1      -5.306   0.180   0.000  0.00  0.00    +0.000 C 
ATOM     45  C   UNL     1      -4.585  -1.040   0.000  0.00  0.00    +0.000 C 
ENDBRANCH  40  43
ENDBRANCH  39  40
ENDBRANCH   6  37
BRANCH  16  46
ATOM     46  O   UNL     1       4.924  -1.093   0.000  0.00  0.00    +0.000 OA
ATOM     47  C   UNL     1       5.306  -2.080   0.000  0.00  0.00    +0.000 C 
ENDBRANCH  16  46
TORSDOF 6
