REMARK  Name = 
REMARK  8 active torsions:
REMARK  status: ('A' for Active; 'I' for Inactive)
REMARK    1  A    between atoms: C_1  and  N_29
REMARK    2  A    between atoms: C_6  and  C_7
REMARK    3  A    between atoms: C_7  and  O_8
REMARK    4  A    between atoms: O_8  and  P_23
REMARK    5  A    between atoms: O_9  and  P_20
REMARK    6  A    between atoms: O_9  and  P_23
REMARK    7  A    between atoms: O_10  and  C_11
REMARK    8  A    between atoms: O_10  and  P_20
REMARK                            x       y       z     vdW  Elec       q    Type
REMARK                         _______ _______ _______ _____ _____    ______ ____
ROOT
ATOM      1  O   UNL     1      -0.048   0.380   0.000  0.00  0.00    +0.000 OA
ATOM      2  P   UNL     1      -0.048  -0.445   0.000  0.00  0.00    +0.000 P 
ATOM      3  O   UNL     1      -0.048  -1.270   0.000  0.00  0.00    +0.000 OA
ENDROOT
BRANCH   2   4
ATOM      4  O   UNL     1      -0.873  -0.445   0.000  0.00  0.00    +0.000 OA
BRANCH   4   6
ATOM      5  O   UNL     1      -1.698   0.380   0.000  0.00  0.00    +0.000 OA
ATOM      6  P   UNL     1      -1.698  -0.445   0.000  0.00  0.00    +0.000 P 
ATOM      7  O   UNL     1      -1.698  -1.270   0.000  0.00  0.00    +0.000 OA
BRANCH   6   8
ATOM      8  O   UNL     1      -2.523  -0.445   0.000  0.00  0.00    +0.000 OA
BRANCH   8   9
ATOM      9  C   UNL     1      -3.238  -0.857   0.000  0.00  0.00    +0.000 C 
ATOM     10  O   UNL     1      -3.952  -0.445   0.000  0.00  0.00    +0.000 OA
ATOM     11  C   UNL     1      -4.667  -0.857   0.000  0.00  0.00    +0.000 C 
ATOM     12  C   UNL     1      -3.952  -2.095   0.000  0.00  0.00    +0.000 C 
ATOM     13  O   UNL     1      -3.952  -2.920   0.000  0.00  0.00    +0.000 OA
ATOM     14  C   UNL     1      -3.238  -1.682   0.000  0.00  0.00    +0.000 C 
ATOM     15  C   UNL     1      -4.667  -1.682   0.000  0.00  0.00    +0.000 C 
ATOM     16  O   UNL     1      -5.381  -2.095   0.000  0.00  0.00    +0.000 OA
ATOM     17  O   UNL     1      -2.523  -2.095   0.000  0.00  0.00    +0.000 OA
ATOM     18  C   UNL     1      -5.381  -0.445   0.000  0.00  0.00    +0.000 C 
ENDBRANCH   8   9
ENDBRANCH   6   8
ENDBRANCH   4   6
ENDBRANCH   2   4
BRANCH   2  19
ATOM     19  O   UNL     1       0.777  -0.445   0.000  0.00  0.00    +0.000 OA
BRANCH  19  20
ATOM     20  C   UNL     1       1.602  -0.445   0.000  0.00  0.00    +0.000 C 
BRANCH  20  26
ATOM     21  C   UNL     1       3.651  -0.857   0.000  0.00  0.00    +0.000 C 
ATOM     22  O   UNL     1       2.983  -0.372   0.000  0.00  0.00    +0.000 OA
ATOM     23  C   UNL     1       3.396  -1.642   0.000  0.00  0.00    +0.000 C 
ATOM     24  C   UNL     1       2.571  -1.642   0.000  0.00  0.00    +0.000 C 
ATOM     25  O   UNL     1       2.159  -2.356   0.000  0.00  0.00    +0.000 OA
ATOM     26  C   UNL     1       2.316  -0.857   0.000  0.00  0.00    +0.000 C 
BRANCH  21  29
ATOM     27  C   UNL     1       4.667   0.857   0.000  0.00  0.00    +0.000 A 
ATOM     28  N   UNL     1       3.238   1.682   0.000  0.00  0.00    +0.000 NA
ATOM     29  N   UNL     1       3.952   0.445   0.000  0.00  0.00    +0.000 N 
ATOM     30  C   UNL     1       3.952   2.095   0.000  0.00  0.00    +0.000 A 
ATOM     31  O   UNL     1       3.952   2.920   0.000  0.00  0.00    +0.000 OA
ATOM     32  C   UNL     1       3.238   0.857   0.000  0.00  0.00    +0.000 A 
ATOM     33  O   UNL     1       2.523   0.445   0.000  0.00  0.00    +0.000 OA
ATOM     34  C   UNL     1       4.667   1.682   0.000  0.00  0.00    +0.000 A 
ATOM     35  C   UNL     1       5.381   2.095   0.000  0.00  0.00    +0.000 C 
ENDBRANCH  21  29
ENDBRANCH  20  26
ENDBRANCH  19  20
ENDBRANCH   2  19
TORSDOF 8
