REMARK  Name = 
REMARK  7 active torsions:
REMARK  status: ('A' for Active; 'I' for Inactive)
REMARK    1  A    between atoms: N_6  and  C_14
REMARK    2  A    between atoms: N_7  and  C_17
REMARK    3  A    between atoms: C_8  and  C_9
REMARK    4  A    between atoms: C_8  and  C_10
REMARK    5  A    between atoms: C_9  and  C_13
REMARK    6  A    between atoms: C_14  and  C_15
REMARK    7  A    between atoms: C_15  and  C_16
REMARK                            x       y       z     vdW  Elec       q    Type
REMARK                         _______ _______ _______ _____ _____    ______ ____
ROOT
ATOM      1  O   UNL     1      -1.072  -1.031   0.000  0.00  0.00    +0.000 OA
ATOM      2  N   UNL     1      -0.357   0.206   0.000  0.00  0.00    +0.000 N 
ATOM      3  C   UNL     1      -1.072  -0.206   0.000  0.00  0.00    +0.000 C 
ATOM      4  H   UNL     1      -0.357   0.718   0.000  0.00  0.00    +0.000 HD
ENDROOT
BRANCH   3   6
ATOM      5  O   UNL     1      -1.786   1.031   0.000  0.00  0.00    +0.000 OA
ATOM      6  C   UNL     1      -1.786   0.206   0.000  0.00  0.00    +0.000 C 
BRANCH   6   7
ATOM      7  C   UNL     1      -2.501  -0.206   0.000  0.00  0.00    +0.000 C 
ATOM      8  C   UNL     1      -2.913   0.508   0.000  0.00  0.00    +0.000 C 
ATOM      9  C   UNL     1      -2.088  -0.921   0.000  0.00  0.00    +0.000 C 
BRANCH   7  11
ATOM     10  O   UNL     1      -3.930  -0.206   0.000  0.00  0.00    +0.000 OA
ATOM     11  C   UNL     1      -3.215  -0.619   0.000  0.00  0.00    +0.000 C 
ENDBRANCH   7  11
ENDBRANCH   6   7
ENDBRANCH   3   6
BRANCH   2  12
ATOM     12  C   UNL     1       0.357  -0.206   0.000  0.00  0.00    +0.000 C 
BRANCH  12  13
ATOM     13  C   UNL     1       1.072   0.206   0.000  0.00  0.00    +0.000 C 
BRANCH  13  16
ATOM     14  O   UNL     1       1.786  -1.031   0.000  0.00  0.00    +0.000 OA
ATOM     15  N   UNL     1       2.501   0.206   0.000  0.00  0.00    +0.000 N 
ATOM     16  C   UNL     1       1.786  -0.206   0.000  0.00  0.00    +0.000 C 
ATOM     17  H   UNL     1       2.501   0.718   0.000  0.00  0.00    +0.000 HD
BRANCH  15  19
ATOM     18  S   UNL     1       3.930   1.031   0.000  0.00  0.00    +0.000 S 
ATOM     19  C   UNL     1       3.215  -0.206   0.000  0.00  0.00    +0.000 C 
ATOM     20  C   UNL     1       3.930   0.206   0.000  0.00  0.00    +0.000 C 
ENDBRANCH  15  19
ENDBRANCH  13  16
ENDBRANCH  12  13
ENDBRANCH   2  12
TORSDOF 7
