REMARK  Name = 
REMARK  10 active torsions:
REMARK  status: ('A' for Active; 'I' for Inactive)
REMARK    1  A    between atoms: C_12  and  O_21
REMARK    2  A    between atoms: O_21  and  C_22
REMARK    3  A    between atoms: C_22  and  C_23
REMARK    4  A    between atoms: C_23  and  C_24
REMARK    5  A    between atoms: C_24  and  C_25
REMARK    6  A    between atoms: C_25  and  C_26
REMARK    7  A    between atoms: C_26  and  C_27
REMARK    8  A    between atoms: C_27  and  C_28
REMARK    9  A    between atoms: C_28  and  C_29
REMARK   10  A    between atoms: C_29  and  C_30
REMARK                            x       y       z     vdW  Elec       q    Type
REMARK                         _______ _______ _______ _____ _____    ______ ____
ROOT
ATOM      1  C   UNL     1      -5.220  -1.936   0.000  0.00  0.00    +0.000 C 
ATOM      2  C   UNL     1      -5.220  -1.111   0.000  0.00  0.00    +0.000 C 
ATOM      3  C   UNL     1      -4.505  -0.698   0.000  0.00  0.00    +0.000 C 
ATOM      4  C   UNL     1      -4.505  -2.348   0.000  0.00  0.00    +0.000 C 
ATOM      5  C   UNL     1      -3.791  -1.936   0.000  0.00  0.00    +0.000 C 
ATOM      6  C   UNL     1      -3.076  -2.348   0.000  0.00  0.00    +0.000 C 
ATOM      7  C   UNL     1      -2.361  -1.936   0.000  0.00  0.00    +0.000 C 
ATOM      8  C   UNL     1      -2.361  -1.111   0.000  0.00  0.00    +0.000 C 
ATOM      9  C   UNL     1      -1.647  -0.698   0.000  0.00  0.00    +0.000 C 
ATOM     10  C   UNL     1      -0.863  -0.953   0.000  0.00  0.00    +0.000 C 
ATOM     11  C   UNL     1      -0.378  -0.286   0.000  0.00  0.00    +0.000 C 
ATOM     12  C   UNL     1      -0.863   0.382   0.000  0.00  0.00    +0.000 C 
ATOM     13  C   UNL     1      -1.647   0.127   0.000  0.00  0.00    +0.000 C 
ATOM     14  C   UNL     1      -1.647   0.952   0.000  0.00  0.00    +0.000 C 
ATOM     15  C   UNL     1      -2.361   0.539   0.000  0.00  0.00    +0.000 C 
ATOM     16  C   UNL     1      -3.076   0.127   0.000  0.00  0.00    +0.000 C 
ATOM     17  C   UNL     1      -3.076  -0.698   0.000  0.00  0.00    +0.000 C 
ATOM     18  C   UNL     1      -3.791  -1.111   0.000  0.00  0.00    +0.000 C 
ATOM     19  C   UNL     1      -3.791  -0.286   0.000  0.00  0.00    +0.000 C 
ATOM     20  O   UNL     1      -5.934  -2.348   0.000  0.00  0.00    +0.000 OA
ENDROOT
BRANCH  12  21
ATOM     21  O   UNL     1      -0.608   1.166   0.000  0.00  0.00    +0.000 OA
BRANCH  21  22
ATOM     22  C   UNL     1       0.199   1.338   0.000  0.00  0.00    +0.000 C 
ATOM     23  O   UNL     1       0.783   0.754   0.000  0.00  0.00    +0.000 OA
BRANCH  22  24
ATOM     24  C   UNL     1       0.413   2.135   0.000  0.00  0.00    +0.000 C 
BRANCH  24  25
ATOM     25  C   UNL     1       1.210   2.348   0.000  0.00  0.00    +0.000 C 
BRANCH  25  26
ATOM     26  C   UNL     1       1.793   1.765   0.000  0.00  0.00    +0.000 C 
BRANCH  26  27
ATOM     27  C   UNL     1       2.590   1.978   0.000  0.00  0.00    +0.000 C 
BRANCH  27  28
ATOM     28  C   UNL     1       3.173   1.395   0.000  0.00  0.00    +0.000 C 
BRANCH  28  29
ATOM     29  C   UNL     1       3.970   1.609   0.000  0.00  0.00    +0.000 C 
BRANCH  29  30
ATOM     30  C   UNL     1       4.554   1.025   0.000  0.00  0.00    +0.000 C 
BRANCH  30  31
ATOM     31  C   UNL     1       5.351   1.239   0.000  0.00  0.00    +0.000 C 
ATOM     32  C   UNL     1       5.934   0.655   0.000  0.00  0.00    +0.000 C 
ENDBRANCH  30  31
ENDBRANCH  29  30
ENDBRANCH  28  29
ENDBRANCH  27  28
ENDBRANCH  26  27
ENDBRANCH  25  26
ENDBRANCH  24  25
ENDBRANCH  22  24
ENDBRANCH  21  22
ENDBRANCH  12  21
TORSDOF 10
