REMARK  Name = 
REMARK  4 active torsions:
REMARK  status: ('A' for Active; 'I' for Inactive)
REMARK    1  A    between atoms: O_1  and  C_2
REMARK    2  A    between atoms: C_2  and  C_4
REMARK    3  A    between atoms: C_4  and  C_6
REMARK    4  A    between atoms: C_6  and  C_7
REMARK                            x       y       z     vdW  Elec       q    Type
REMARK                         _______ _______ _______ _____ _____    ______ ____
ROOT
ATOM      1  C   UNL     1      -0.357   0.412   0.000  0.00  0.00    +0.000 C 
ENDROOT
BRANCH   1   2
ATOM      2  C   UNL     1      -1.072   0.000   0.000  0.00  0.00    +0.000 A 
ATOM      3  C   UNL     1      -1.072  -0.825   0.000  0.00  0.00    +0.000 A 
ATOM      4  C   UNL     1      -1.786   0.412   0.000  0.00  0.00    +0.000 A 
ATOM      5  C   UNL     1      -2.501   0.000   0.000  0.00  0.00    +0.000 A 
ATOM      6  C   UNL     1      -1.786  -1.238   0.000  0.00  0.00    +0.000 A 
ATOM      7  C   UNL     1      -2.501  -0.825   0.000  0.00  0.00    +0.000 A 
ENDBRANCH   1   2
BRANCH   1   8
ATOM      8  C   UNL     1       0.357   0.000   0.000  0.00  0.00    +0.000 C 
ATOM      9  N   UNL     1       0.357  -0.825   0.000  0.00  0.00    +0.000 NA
BRANCH   8  10
ATOM     10  C   UNL     1       1.072   0.412   0.000  0.00  0.00    +0.000 C 
ATOM     11  O   UNL     1       1.072   1.238   0.000  0.00  0.00    +0.000 OA
BRANCH  10  12
ATOM     12  O   UNL     1       1.786   0.000   0.000  0.00  0.00    +0.000 OA
ATOM     13  C   UNL     1       2.501   0.412   0.000  0.00  0.00    +0.000 C 
ENDBRANCH  10  12
ENDBRANCH   8  10
ENDBRANCH   1   8
TORSDOF 4
