REMARK  Name = 
REMARK  11 active torsions:
REMARK  status: ('A' for Active; 'I' for Inactive)
REMARK    1  A    between atoms: C_2  and  C_3
REMARK    2  A    between atoms: C_3  and  C_4
REMARK    3  A    between atoms: C_4  and  C_5
REMARK    4  A    between atoms: N_14  and  C_15
REMARK    5  A    between atoms: C_15  and  C_16
REMARK    6  A    between atoms: C_19  and  C_26
REMARK    7  A    between atoms: C_20  and  C_22
REMARK    8  A    between atoms: C_22  and  O_23
REMARK    9  A    between atoms: O_23  and  C_24
REMARK   10  A    between atoms: C_31  and  S_32
REMARK   11  A    between atoms: S_32  and  N_35
REMARK                            x       y       z     vdW  Elec       q    Type
REMARK                         _______ _______ _______ _____ _____    ______ ____
ROOT
ATOM      1  C   UNL     1      -0.581  -1.305   0.000  0.00  0.00    +0.000 A 
ATOM      2  C   UNL     1       0.172  -1.641   0.000  0.00  0.00    +0.000 A 
ATOM      3  C   UNL     1       0.259  -2.461   0.000  0.00  0.00    +0.000 A 
ATOM      4  C   UNL     1      -0.409  -2.946   0.000  0.00  0.00    +0.000 A 
ATOM      5  C   UNL     1      -1.162  -2.611   0.000  0.00  0.00    +0.000 A 
ATOM      6  C   UNL     1      -1.249  -1.790   0.000  0.00  0.00    +0.000 A 
ENDROOT
BRANCH   4   7
ATOM      7  C   UNL     1      -0.323  -3.767   0.000  0.00  0.00    +0.000 A 
ATOM      8  C   UNL     1      -0.990  -4.252   0.000  0.00  0.00    +0.000 A 
ATOM      9  C   UNL     1      -0.904  -5.072   0.000  0.00  0.00    +0.000 A 
ATOM     10  C   UNL     1      -0.150  -5.408   0.000  0.00  0.00    +0.000 A 
ATOM     11  C   UNL     1       0.517  -4.923   0.000  0.00  0.00    +0.000 A 
ATOM     12  C   UNL     1       0.431  -4.102   0.000  0.00  0.00    +0.000 A 
BRANCH  12  13
ATOM     13  S   UNL     1       1.099  -3.618   0.000  0.00  0.00    +0.000 S 
ATOM     14  O   UNL     1       1.766  -3.133   0.000  0.00  0.00    +0.000 OA
ATOM     15  O   UNL     1       0.614  -2.950   0.000  0.00  0.00    +0.000 OA
BRANCH  13  16
ATOM     16  N   UNL     1       1.583  -4.285   0.000  0.00  0.00    +0.000 NA
ATOM     17  C   UNL     1       2.404  -4.199   0.000  0.00  0.00    +0.000 A 
ATOM     18  C   UNL     1       2.956  -4.812   0.000  0.00  0.00    +0.000 A 
ATOM     19  C   UNL     1       3.710  -4.476   0.000  0.00  0.00    +0.000 A 
ATOM     20  O   UNL     1       3.623  -3.656   0.000  0.00  0.00    +0.000 OA
ATOM     21  N   UNL     1       2.817  -3.484   0.000  0.00  0.00    +0.000 NA
ATOM     22  C   UNL     1       4.424  -4.889   0.000  0.00  0.00    +0.000 C 
ATOM     23  C   UNL     1       2.784  -5.619   0.000  0.00  0.00    +0.000 C 
ENDBRANCH  13  16
ENDBRANCH  12  13
ENDBRANCH   4   7
BRANCH   1  24
ATOM     24  C   UNL     1      -0.667  -0.485   0.000  0.00  0.00    +0.000 C 
BRANCH  24  34
ATOM     25  C   UNL     1       0.000   0.825   0.000  0.00  0.00    +0.000 C 
ATOM     26  N   UNL     1       0.785   1.080   0.000  0.00  0.00    +0.000 NA
ATOM     27  C   UNL     1       1.270   0.412   0.000  0.00  0.00    +0.000 C 
ATOM     28  C   UNL     1       1.754   1.080   0.000  0.00  0.00    +0.000 C 
ATOM     29  C   UNL     1       2.539   0.825   0.000  0.00  0.00    +0.000 C 
ATOM     30  C   UNL     1       2.539   0.000   0.000  0.00  0.00    +0.000 C 
ATOM     31  C   UNL     1       1.754  -0.255   0.000  0.00  0.00    +0.000 C 
ATOM     32  C   UNL     1       0.785  -0.255   0.000  0.00  0.00    +0.000 C 
ATOM     33  O   UNL     1       1.040  -1.040   0.000  0.00  0.00    +0.000 OA
ATOM     34  N   UNL     1       0.000   0.000   0.000  0.00  0.00    +0.000 N 
BRANCH  25  35
ATOM     35  C   UNL     1      -0.667   1.310   0.000  0.00  0.00    +0.000 C 
BRANCH  35  36
ATOM     36  C   UNL     1      -0.581   2.130   0.000  0.00  0.00    +0.000 C 
BRANCH  36  38
ATOM     37  C   UNL     1      -1.162   3.436   0.000  0.00  0.00    +0.000 C 
ATOM     38  C   UNL     1      -1.249   2.615   0.000  0.00  0.00    +0.000 C 
ENDBRANCH  36  38
ENDBRANCH  35  36
ENDBRANCH  25  35
ENDBRANCH  24  34
ENDBRANCH   1  24
BRANCH   5  39
ATOM     39  C   UNL     1      -1.830  -3.096   0.000  0.00  0.00    +0.000 C 
BRANCH  39  40
ATOM     40  O   UNL     1      -2.583  -2.760   0.000  0.00  0.00    +0.000 OA
BRANCH  40  41
ATOM     41  C   UNL     1      -3.251  -3.245   0.000  0.00  0.00    +0.000 C 
ATOM     42  C   UNL     1      -4.005  -2.909   0.000  0.00  0.00    +0.000 C 
ENDBRANCH  40  41
ENDBRANCH  39  40
ENDBRANCH   5  39
TORSDOF 11
