REMARK  Name = 
REMARK  11 active torsions:
REMARK  status: ('A' for Active; 'I' for Inactive)
REMARK    1  A    between atoms: C_6  and  C_7
REMARK    2  A    between atoms: C_10  and  C_13
REMARK    3  A    between atoms: C_15  and  C_18
REMARK    4  A    between atoms: C_20  and  C_23
REMARK    5  A    between atoms: O_29  and  C_30
REMARK    6  A    between atoms: C_30  and  C_31
REMARK    7  A    between atoms: C_35  and  C_52
REMARK    8  A    between atoms: C_43  and  C_44
REMARK    9  A    between atoms: C_44  and  C_46
REMARK   10  A    between atoms: C_66  and  C_68
REMARK   11  A    between atoms: C_68  and  C_69
REMARK                            x       y       z     vdW  Elec       q    Type
REMARK                         _______ _______ _______ _____ _____    ______ ____
ROOT
ATOM      1  C   UNL     1       1.228   0.409   0.000  0.00  0.00    +0.000 A 
ATOM      2  C   UNL     1       1.944   0.819   0.000  0.00  0.00    +0.000 A 
ATOM      3  C   UNL     1       1.944   1.663   0.000  0.00  0.00    +0.000 A 
ATOM      4  N   UNL     1       1.228   2.072   0.000  0.00  0.00    +0.000 NA
ATOM      5  O   UNL     1      -4.528   0.409   0.000  0.00  0.00    +0.000 OA
ATOM      6  O   UNL     1      -7.393  -0.409   0.000  0.00  0.00    +0.000 OA
ATOM      7  C   UNL     1      -7.188  -2.302   0.000  0.00  0.00    +0.000 A 
ATOM      8  S   UNL     1      -6.779  -3.018   0.000  0.00  0.00    +0.000 S 
ATOM      9  O   UNL     1      -3.786  -4.144   0.000  0.00  0.00    +0.000 OA
ATOM     10  C   UNL     1      -3.198  -1.407   0.000  0.00  0.00    +0.000 C 
ATOM     11  C   UNL     1      -2.788  -2.123   0.000  0.00  0.00    +0.000 A 
ATOM     12  S   UNL     1      -1.944  -2.123   0.000  0.00  0.00    +0.000 S 
ATOM     13  N   UNL     1      -0.409  -2.302   0.000  0.00  0.00    +0.000 NA
ATOM     14  C   UNL     1      -0.819  -3.018   0.000  0.00  0.00    +0.000 C 
ATOM     15  C   UNL     1      -1.637  -2.891   0.000  0.00  0.00    +0.000 A 
ATOM     16  N   UNL     1      -2.353  -3.300   0.000  0.00  0.00    +0.000 NA
ATOM     17  C   UNL     1      -3.070  -2.891   0.000  0.00  0.00    +0.000 A 
ATOM     18  C   UNL     1      -3.786  -3.325   0.000  0.00  0.00    +0.000 C 
ATOM     19  N   UNL     1      -4.528  -2.891   0.000  0.00  0.00    +0.000 NA
ATOM     20  C   UNL     1      -5.244  -3.325   0.000  0.00  0.00    +0.000 C 
ATOM     21  C   UNL     1      -5.960  -2.891   0.000  0.00  0.00    +0.000 A 
ATOM     22  N   UNL     1      -5.960  -2.072   0.000  0.00  0.00    +0.000 NA
ATOM     23  C   UNL     1      -6.677  -1.663   0.000  0.00  0.00    +0.000 A 
ATOM     24  C   UNL     1      -6.677  -0.819   0.000  0.00  0.00    +0.000 C 
ATOM     25  N   UNL     1      -5.960  -0.409   0.000  0.00  0.00    +0.000 NA
ATOM     26  C   UNL     1      -5.960   0.409   0.000  0.00  0.00    +0.000 C 
ATOM     27  C   UNL     1      -5.244   0.819   0.000  0.00  0.00    +0.000 C 
ATOM     28  N   UNL     1      -5.244   1.663   0.000  0.00  0.00    +0.000 NA
ATOM     29  C   UNL     1      -4.528   2.072   0.000  0.00  0.00    +0.000 C 
ATOM     30  C   UNL     1      -2.660   0.895   0.000  0.00  0.00    +0.000 A 
ATOM     31  S   UNL     1      -3.505   0.895   0.000  0.00  0.00    +0.000 S 
ATOM     32  C   UNL     1      -3.786   1.663   0.000  0.00  0.00    +0.000 A 
ATOM     33  N   UNL     1      -3.070   2.072   0.000  0.00  0.00    +0.000 NA
ATOM     34  C   UNL     1      -2.353   1.663   0.000  0.00  0.00    +0.000 A 
ATOM     35  C   UNL     1      -0.512   2.839   0.000  0.00  0.00    +0.000 A 
ATOM     36  S   UNL     1      -1.330   2.839   0.000  0.00  0.00    +0.000 S 
ATOM     37  C   UNL     1      -1.637   2.072   0.000  0.00  0.00    +0.000 A 
ATOM     38  N   UNL     1      -0.921   1.663   0.000  0.00  0.00    +0.000 NA
ATOM     39  C   UNL     1      -0.205   2.072   0.000  0.00  0.00    +0.000 A 
ATOM     40  C   UNL     1       0.512   1.663   0.000  0.00  0.00    +0.000 A 
ATOM     41  C   UNL     1       0.512   0.819   0.000  0.00  0.00    +0.000 A 
ATOM     42  C   UNL     1      -1.433  -0.179   0.000  0.00  0.00    +0.000 A 
ATOM     43  S   UNL     1      -1.023   0.537   0.000  0.00  0.00    +0.000 S 
ATOM     44  C   UNL     1      -0.205   0.409   0.000  0.00  0.00    +0.000 A 
ATOM     45  N   UNL     1      -0.205  -0.409   0.000  0.00  0.00    +0.000 NA
ATOM     46  C   UNL     1      -0.921  -0.819   0.000  0.00  0.00    +0.000 A 
ATOM     47  C   UNL     1      -0.921  -1.663   0.000  0.00  0.00    +0.000 C 
ATOM     48  O   UNL     1      -1.509  -1.867   0.000  0.00  0.00    +0.000 OA
ENDROOT
BRANCH   3  53
ATOM     49  S   UNL     1       2.737   2.891   0.000  0.00  0.00    +0.000 S 
ATOM     50  C   UNL     1       3.556   3.070   0.000  0.00  0.00    +0.000 A 
ATOM     51  C   UNL     1       3.965   2.353   0.000  0.00  0.00    +0.000 A 
ATOM     52  N   UNL     1       3.428   1.740   0.000  0.00  0.00    +0.000 NA
ATOM     53  C   UNL     1       2.660   2.072   0.000  0.00  0.00    +0.000 A 
BRANCH  51  58
ATOM     54  O   UNL     1       5.218   1.535   0.000  0.00  0.00    +0.000 OA
ATOM     55  C   UNL     1       6.011   1.714   0.000  0.00  0.00    +0.000 C 
ATOM     56  C   UNL     1       6.114   2.532   0.000  0.00  0.00    +0.000 C 
ATOM     57  N   UNL     1       5.346   2.891   0.000  0.00  0.00    +0.000 NA
ATOM     58  C   UNL     1       4.809   2.277   0.000  0.00  0.00    +0.000 C 
BRANCH  56  65
ATOM     59  C   UNL     1       7.623   1.714   0.000  0.00  0.00    +0.000 C 
ATOM     60  C   UNL     1       8.442   1.535   0.000  0.00  0.00    +0.000 C 
ATOM     61  C   UNL     1       8.851   2.277   0.000  0.00  0.00    +0.000 C 
ATOM     62  C   UNL     1       8.314   2.891   0.000  0.00  0.00    +0.000 C 
ATOM     63  N   UNL     1       7.546   2.532   0.000  0.00  0.00    +0.000 N 
ATOM     64  O   UNL     1       6.830   3.786   0.000  0.00  0.00    +0.000 OA
ATOM     65  C   UNL     1       6.830   2.967   0.000  0.00  0.00    +0.000 C 
BRANCH  62  68
ATOM     66  O   UNL     1       9.260   3.939   0.000  0.00  0.00    +0.000 OA
ATOM     67  N   UNL     1       7.879   4.272   0.000  0.00  0.00    +0.000 NA
ATOM     68  C   UNL     1       8.467   3.684   0.000  0.00  0.00    +0.000 C 
ENDBRANCH  62  68
ENDBRANCH  56  65
ENDBRANCH  51  58
ENDBRANCH   3  53
BRANCH  20  71
ATOM     69  C   UNL     1      -5.960  -4.553   0.000  0.00  0.00    +0.000 C 
ATOM     70  C   UNL     1      -4.528  -4.553   0.000  0.00  0.00    +0.000 C 
ATOM     71  C   UNL     1      -5.244  -4.144   0.000  0.00  0.00    +0.000 C 
ENDBRANCH  20  71
BRANCH  29  73
ATOM     72  O   UNL     1      -3.786   3.325   0.000  0.00  0.00    +0.000 OA
ATOM     73  C   UNL     1      -4.528   2.891   0.000  0.00  0.00    +0.000 C 
BRANCH  73  79
ATOM     74  C   UNL     1      -5.960   2.891   0.000  0.00  0.00    +0.000 A 
ATOM     75  C   UNL     1      -6.677   3.325   0.000  0.00  0.00    +0.000 A 
ATOM     76  C   UNL     1      -6.677   4.144   0.000  0.00  0.00    +0.000 A 
ATOM     77  C   UNL     1      -5.960   4.553   0.000  0.00  0.00    +0.000 A 
ATOM     78  C   UNL     1      -5.244   4.144   0.000  0.00  0.00    +0.000 A 
ATOM     79  C   UNL     1      -5.244   3.325   0.000  0.00  0.00    +0.000 A 
ENDBRANCH  73  79
ENDBRANCH  29  73
BRANCH  14  80
ATOM     80  C   UNL     1      -0.409  -3.735   0.000  0.00  0.00    +0.000 C 
BRANCH  80  84
ATOM     81  O   UNL     1       0.844  -3.018   0.000  0.00  0.00    +0.000 OA
ATOM     82  C   UNL     1       1.663  -4.451   0.000  0.00  0.00    +0.000 C 
ATOM     83  N   UNL     1       0.844  -4.451   0.000  0.00  0.00    +0.000 NA
ATOM     84  C   UNL     1       0.435  -3.735   0.000  0.00  0.00    +0.000 C 
ENDBRANCH  80  84
ENDBRANCH  14  80
BRANCH   7  85
ATOM     85  C   UNL     1      -8.007  -2.302   0.000  0.00  0.00    +0.000 C 
BRANCH  85  87
ATOM     86  C   UNL     1      -9.260  -3.018   0.000  0.00  0.00    +0.000 C 
ATOM     87  O   UNL     1      -8.442  -3.018   0.000  0.00  0.00    +0.000 OA
ENDBRANCH  85  87
ENDBRANCH   7  85
TORSDOF 11
