REMARK  Name = 
REMARK  7 active torsions:
REMARK  status: ('A' for Active; 'I' for Inactive)
REMARK    1  A    between atoms: C_2  and  C_3
REMARK    2  A    between atoms: C_3  and  N_4
REMARK    3  A    between atoms: N_4  and  C_5
REMARK    4  A    between atoms: C_5  and  C_6
REMARK    5  A    between atoms: C_8  and  C_10
REMARK    6  A    between atoms: C_15  and  C_22
REMARK    7  A    between atoms: C_25  and  C_28
REMARK                            x       y       z     vdW  Elec       q    Type
REMARK                         _______ _______ _______ _____ _____    ______ ____
ROOT
ATOM      1  C   UNL     1       3.962  -1.816   0.000  0.00  0.00    +0.000 C 
ATOM      2  C   UNL     1       4.320  -1.073   0.000  0.00  0.00    +0.000 C 
ATOM      3  C   UNL     1       5.125  -0.889   0.000  0.00  0.00    +0.000 A 
ATOM      4  C   UNL     1       5.248  -0.074   0.000  0.00  0.00    +0.000 A 
ATOM      5  C   UNL     1       6.016   0.228   0.000  0.00  0.00    +0.000 A 
ATOM      6  C   UNL     1       6.661  -0.287   0.000  0.00  0.00    +0.000 A 
ATOM      7  C   UNL     1       6.538  -1.102   0.000  0.00  0.00    +0.000 A 
ATOM      8  C   UNL     1       5.770  -1.404   0.000  0.00  0.00    +0.000 A 
ATOM      9  N   UNL     1       5.770  -2.229   0.000  0.00  0.00    +0.000 NA
ATOM     10  C   UNL     1       5.125  -2.743   0.000  0.00  0.00    +0.000 C 
ATOM     11  C   UNL     1       4.320  -2.560   0.000  0.00  0.00    +0.000 C 
ATOM     12  N   UNL     1       5.308  -3.547   0.000  0.00  0.00    +0.000 NA
ENDROOT
BRANCH   6  13
ATOM     13  C   UNL     1       7.429   0.015   0.000  0.00  0.00    +0.000 A 
ATOM     14  C   UNL     1       7.551   0.831   0.000  0.00  0.00    +0.000 A 
ATOM     15  C   UNL     1       8.319   1.132   0.000  0.00  0.00    +0.000 A 
ATOM     16  C   UNL     1       8.964   0.618   0.000  0.00  0.00    +0.000 A 
ATOM     17  C   UNL     1       8.842  -0.198   0.000  0.00  0.00    +0.000 A 
ATOM     18  C   UNL     1       8.074  -0.500   0.000  0.00  0.00    +0.000 A 
BRANCH  16  19
ATOM     19  C   UNL     1       9.732   0.919   0.000  0.00  0.00    +0.000 C 
ATOM     20  O   UNL     1       9.855   1.735   0.000  0.00  0.00    +0.000 OA
ATOM     21  N   UNL     1      10.377   0.405   0.000  0.00  0.00    +0.000 N 
ATOM     22  C   UNL     1      11.173   0.624   0.000  0.00  0.00    +0.000 C 
ATOM     23  C   UNL     1      11.627  -0.065   0.000  0.00  0.00    +0.000 C 
ATOM     24  C   UNL     1      11.113  -0.710   0.000  0.00  0.00    +0.000 C 
ATOM     25  C   UNL     1      10.341  -0.420   0.000  0.00  0.00    +0.000 C 
ENDBRANCH  16  19
ENDBRANCH   6  13
BRANCH   1  27
ATOM     26  N   UNL     1       2.725  -2.531   0.000  0.00  0.00    +0.000 N 
ATOM     27  C   UNL     1       3.137  -1.816   0.000  0.00  0.00    +0.000 C 
ATOM     28  O   UNL     1       2.725  -1.102   0.000  0.00  0.00    +0.000 OA
BRANCH  26  29
ATOM     29  C   UNL     1       3.137  -3.245   0.000  0.00  0.00    +0.000 C 
BRANCH  29  30
ATOM     30  C   UNL     1       3.962  -3.245   0.000  0.00  0.00    +0.000 C 
ATOM     31  C   UNL     1       4.375  -3.960   0.000  0.00  0.00    +0.000 C 
ENDBRANCH  29  30
ENDBRANCH  26  29
BRANCH  26  32
ATOM     32  C   UNL     1       1.900  -2.531   0.000  0.00  0.00    +0.000 C 
BRANCH  32  34
ATOM     33  C   UNL     1       0.662  -3.245   0.000  0.00  0.00    +0.000 C 
ATOM     34  C   UNL     1       1.487  -3.245   0.000  0.00  0.00    +0.000 C 
ENDBRANCH  32  34
ENDBRANCH  26  32
ENDBRANCH   1  27
TORSDOF 7
