REMARK  Name = 
REMARK  6 active torsions:
REMARK  status: ('A' for Active; 'I' for Inactive)
REMARK    1  A    between atoms: N_5  and  S_34
REMARK    2  A    between atoms: C_7  and  C_22
REMARK    3  A    between atoms: N_12  and  C_15
REMARK    4  A    between atoms: C_22  and  C_24
REMARK    5  A    between atoms: C_26  and  C_30
REMARK    6  A    between atoms: S_34  and  C_37
REMARK                            x       y       z     vdW  Elec       q    Type
REMARK                         _______ _______ _______ _____ _____    ______ ____
ROOT
ATOM      1  C   UNL     1       3.352   1.935   0.000  0.00  0.00    +0.000 C 
ATOM      2  C   UNL     1       4.067   2.348   0.000  0.00  0.00    +0.000 C 
ATOM      3  C   UNL     1       4.781   1.935   0.000  0.00  0.00    +0.000 C 
ATOM      4  N   UNL     1       4.781   1.110   0.000  0.00  0.00    +0.000 NA
ATOM      5  C   UNL     1       4.067   0.698   0.000  0.00  0.00    +0.000 C 
ATOM      6  C   UNL     1       3.352   1.110   0.000  0.00  0.00    +0.000 C 
ATOM      7  C   UNL     1       2.638   0.698   0.000  0.00  0.00    +0.000 C 
ATOM      8  C   UNL     1       1.923   1.110   0.000  0.00  0.00    +0.000 A 
ATOM      9  C   UNL     1       1.923   1.935   0.000  0.00  0.00    +0.000 A 
ATOM     10  C   UNL     1       2.638   2.348   0.000  0.00  0.00    +0.000 C 
ATOM     11  N   UNL     1       1.139   2.190   0.000  0.00  0.00    +0.000 N 
ATOM     12  N   UNL     1       0.654   1.523   0.000  0.00  0.00    +0.000 NA
ATOM     13  C   UNL     1       1.139   0.856   0.000  0.00  0.00    +0.000 A 
ENDROOT
BRANCH  11  14
ATOM     14  C   UNL     1       0.884   2.975   0.000  0.00  0.00    +0.000 A 
ATOM     15  C   UNL     1       0.077   3.147   0.000  0.00  0.00    +0.000 A 
ATOM     16  C   UNL     1      -0.178   3.931   0.000  0.00  0.00    +0.000 A 
ATOM     17  C   UNL     1       0.374   4.544   0.000  0.00  0.00    +0.000 A 
ATOM     18  F   UNL     1       0.119   5.329   0.000  0.00  0.00    +0.000 F 
ATOM     19  C   UNL     1       1.181   4.373   0.000  0.00  0.00    +0.000 A 
ATOM     20  C   UNL     1       1.436   3.588   0.000  0.00  0.00    +0.000 A 
ENDBRANCH  11  14
BRANCH   4  21
ATOM     21  S   UNL     1       5.496   0.698   0.000  0.00  0.00    +0.000 S 
ATOM     22  O   UNL     1       5.083  -0.017   0.000  0.00  0.00    +0.000 OA
ATOM     23  O   UNL     1       5.908   1.412   0.000  0.00  0.00    +0.000 OA
BRANCH  21  24
ATOM     24  C   UNL     1       6.210   0.285   0.000  0.00  0.00    +0.000 A 
ATOM     25  N   UNL     1       6.964   0.621   0.000  0.00  0.00    +0.000 NA
ATOM     26  N   UNL     1       7.516   0.008   0.000  0.00  0.00    +0.000 N 
ATOM     27  C   UNL     1       8.336   0.094   0.000  0.00  0.00    +0.000 C 
ATOM     28  N   UNL     1       7.103  -0.707   0.000  0.00  0.00    +0.000 NA
ATOM     29  C   UNL     1       6.296  -0.535   0.000  0.00  0.00    +0.000 A 
ENDBRANCH  21  24
ENDBRANCH   4  21
BRANCH   6  30
ATOM     30  C   UNL     1       3.352   0.285   0.000  0.00  0.00    +0.000 C 
ATOM     31  O   UNL     1       4.067  -0.127   0.000  0.00  0.00    +0.000 OA
BRANCH  30  32
ATOM     32  C   UNL     1       2.638  -0.127   0.000  0.00  0.00    +0.000 A 
ATOM     33  C   UNL     1       2.638  -0.952   0.000  0.00  0.00    +0.000 A 
ATOM     34  C   UNL     1       1.923  -1.365   0.000  0.00  0.00    +0.000 A 
ATOM     35  C   UNL     1       1.209  -0.952   0.000  0.00  0.00    +0.000 A 
ATOM     36  C   UNL     1       1.209  -0.127   0.000  0.00  0.00    +0.000 A 
ATOM     37  N   UNL     1       1.923   0.285   0.000  0.00  0.00    +0.000 NA
BRANCH  34  38
ATOM     38  C   UNL     1       1.923  -2.190   0.000  0.00  0.00    +0.000 C 
ATOM     39  F   UNL     1       1.923  -3.015   0.000  0.00  0.00    +0.000 F 
ATOM     40  F   UNL     1       1.098  -2.190   0.000  0.00  0.00    +0.000 F 
ATOM     41  F   UNL     1       2.748  -2.190   0.000  0.00  0.00    +0.000 F 
ENDBRANCH  34  38
ENDBRANCH  30  32
ENDBRANCH   6  30
TORSDOF 6
