REMARK  Name = 
REMARK  13 active torsions:
REMARK  status: ('A' for Active; 'I' for Inactive)
REMARK    1  A    between atoms: C_1  and  N_7
REMARK    2  A    between atoms: C_2  and  C_8
REMARK    3  A    between atoms: C_3  and  C_9
REMARK    4  A    between atoms: N_7  and  C_13
REMARK    5  A    between atoms: N_11  and  C_21
REMARK    6  A    between atoms: N_12  and  C_22
REMARK    7  A    between atoms: C_13  and  C_20
REMARK    8  A    between atoms: C_20  and  C_34
REMARK    9  A    between atoms: C_21  and  C_23
REMARK   10  A    between atoms: C_22  and  C_24
REMARK   11  A    between atoms: C_23  and  C_33
REMARK   12  A    between atoms: C_24  and  C_32
REMARK   13  A    between atoms: O_31  and  C_34
REMARK                            x       y       z     vdW  Elec       q    Type
REMARK                         _______ _______ _______ _____ _____    ______ ____
ROOT
ATOM      1  C   UNL     1      -0.206  -0.714   0.000  0.00  0.00    +0.000 A 
ATOM      2  C   UNL     1       0.500   0.459   0.000  0.00  0.00    +0.000 A 
ATOM      3  C   UNL     1       1.206  -0.753   0.000  0.00  0.00    +0.000 A 
ATOM      4  C   UNL     1      -0.206   0.047   0.000  0.00  0.00    +0.000 A 
ATOM      5  C   UNL     1       0.500  -1.141   0.000  0.00  0.00    +0.000 A 
ATOM      6  C   UNL     1       1.206   0.070   0.000  0.00  0.00    +0.000 A 
ATOM      7  I   UNL     1       0.500  -1.953   0.000  0.00  0.00    +0.000 I 
ATOM      8  I   UNL     1       1.936   0.475   0.000  0.00  0.00    +0.000 I 
ATOM      9  I   UNL     1      -0.857   0.459   0.000  0.00  0.00    +0.000 I 
ENDROOT
BRANCH   1  10
ATOM     10  N   UNL     1      -0.916  -1.118   0.000  0.00  0.00    +0.000 N 
ATOM     11  C   UNL     1      -0.916  -1.902   0.000  0.00  0.00    +0.000 C 
ATOM     12  O   UNL     1      -0.092  -2.459   0.000  0.00  0.00    +0.000 OA
ATOM     13  C   UNL     1      -1.594  -2.483   0.000  0.00  0.00    +0.000 C 
BRANCH  10  14
ATOM     14  C   UNL     1      -1.724  -0.553   0.000  0.00  0.00    +0.000 C 
BRANCH  14  15
ATOM     15  C   UNL     1      -2.512  -1.020   0.000  0.00  0.00    +0.000 C 
ATOM     16  O   UNL     1      -2.512  -1.859   0.000  0.00  0.00    +0.000 OA
BRANCH  15  17
ATOM     17  C   UNL     1      -3.324  -0.490   0.000  0.00  0.00    +0.000 C 
BRANCH  17  18
ATOM     18  O   UNL     1      -3.324   0.506   0.000  0.00  0.00    +0.000 OA
ATOM     19  C   UNL     1      -4.042   0.941   0.000  0.00  0.00    +0.000 C 
ENDBRANCH  17  18
ENDBRANCH  15  17
ENDBRANCH  14  15
ENDBRANCH  10  14
ENDBRANCH   1  10
BRANCH   2  20
ATOM     20  C   UNL     1       0.500   1.286   0.000  0.00  0.00    +0.000 C 
ATOM     21  N   UNL     1      -0.182   1.694   0.000  0.00  0.00    +0.000 NA
ATOM     22  O   UNL     1       1.214   1.683   0.000  0.00  0.00    +0.000 OA
BRANCH  21  23
ATOM     23  C   UNL     1      -0.900   1.298   0.000  0.00  0.00    +0.000 C 
BRANCH  23  24
ATOM     24  C   UNL     1      -1.618   1.800   0.000  0.00  0.00    +0.000 C 
ATOM     25  O   UNL     1      -1.610   2.483   0.000  0.00  0.00    +0.000 OA
BRANCH  24  27
ATOM     26  O   UNL     1      -3.018   2.094   0.000  0.00  0.00    +0.000 OA
ATOM     27  C   UNL     1      -2.351   1.388   0.000  0.00  0.00    +0.000 C 
ENDBRANCH  24  27
ENDBRANCH  23  24
ENDBRANCH  21  23
ENDBRANCH   2  20
BRANCH   3  28
ATOM     28  C   UNL     1       1.908  -1.173   0.000  0.00  0.00    +0.000 C 
ATOM     29  N   UNL     1       2.618  -0.753   0.000  0.00  0.00    +0.000 NA
ATOM     30  O   UNL     1       1.908  -1.973   0.000  0.00  0.00    +0.000 OA
BRANCH  29  31
ATOM     31  C   UNL     1       2.618   0.047   0.000  0.00  0.00    +0.000 C 
BRANCH  31  32
ATOM     32  C   UNL     1       3.312   0.459   0.000  0.00  0.00    +0.000 C 
ATOM     33  O   UNL     1       4.042   0.070   0.000  0.00  0.00    +0.000 OA
BRANCH  32  35
ATOM     34  O   UNL     1       3.971   1.635   0.000  0.00  0.00    +0.000 OA
ATOM     35  C   UNL     1       3.332   1.298   0.000  0.00  0.00    +0.000 C 
ENDBRANCH  32  35
ENDBRANCH  31  32
ENDBRANCH  29  31
ENDBRANCH   3  28
TORSDOF 13
