REMARK  Name = 
REMARK  5 active torsions:
REMARK  status: ('A' for Active; 'I' for Inactive)
REMARK    1  A    between atoms: C_1  and  C_2
REMARK    2  A    between atoms: C_2  and  C_13
REMARK    3  A    between atoms: C_5  and  C_10
REMARK    4  A    between atoms: C_5  and  C_13
REMARK    5  A    between atoms: C_8  and  C_10
REMARK                            x       y       z     vdW  Elec       q    Type
REMARK                         _______ _______ _______ _____ _____    ______ ____
ROOT
ATOM      1  C   UNL     1       0.357  -0.206   0.000  0.00  0.00    +0.000 C 
ATOM      2  F   UNL     1      -0.055  -0.921   0.000  0.00  0.00    +0.000 F 
ATOM      3  F   UNL     1       0.770  -0.921   0.000  0.00  0.00    +0.000 F 
ENDROOT
BRANCH   1   4
ATOM      4  C   UNL     1       1.072   0.206   0.000  0.00  0.00    +0.000 C 
ATOM      5  F   UNL     1       0.659   0.921   0.000  0.00  0.00    +0.000 F 
ATOM      6  F   UNL     1       1.484   0.921   0.000  0.00  0.00    +0.000 F 
BRANCH   4   7
ATOM      7  C   UNL     1       1.786  -0.206   0.000  0.00  0.00    +0.000 C 
ATOM      8  F   UNL     1       2.501   0.206   0.000  0.00  0.00    +0.000 F 
ATOM      9  F   UNL     1       1.786  -1.031   0.000  0.00  0.00    +0.000 F 
ATOM     10  F   UNL     1       2.501  -0.619   0.000  0.00  0.00    +0.000 F 
ENDBRANCH   4   7
ENDBRANCH   1   4
BRANCH   1  11
ATOM     11  C   UNL     1      -0.357   0.206   0.000  0.00  0.00    +0.000 C 
ATOM     12  F   UNL     1      -0.770   0.921   0.000  0.00  0.00    +0.000 F 
ATOM     13  F   UNL     1       0.055   0.921   0.000  0.00  0.00    +0.000 F 
BRANCH  11  14
ATOM     14  C   UNL     1      -1.072  -0.206   0.000  0.00  0.00    +0.000 C 
ATOM     15  F   UNL     1      -1.484  -0.921   0.000  0.00  0.00    +0.000 F 
ATOM     16  F   UNL     1      -0.659  -0.921   0.000  0.00  0.00    +0.000 F 
BRANCH  14  17
ATOM     17  C   UNL     1      -1.786   0.206   0.000  0.00  0.00    +0.000 C 
ATOM     18  F   UNL     1      -1.786   1.031   0.000  0.00  0.00    +0.000 F 
ATOM     19  F   UNL     1      -2.501  -0.206   0.000  0.00  0.00    +0.000 F 
ATOM     20  F   UNL     1      -2.501   0.619   0.000  0.00  0.00    +0.000 F 
ENDBRANCH  14  17
ENDBRANCH  11  14
ENDBRANCH   1  11
TORSDOF 5
