REMARK  Name = 
REMARK  5 active torsions:
REMARK  status: ('A' for Active; 'I' for Inactive)
REMARK    1  A    between atoms: C_7  and  C_8
REMARK    2  A    between atoms: C_10  and  C_20
REMARK    3  A    between atoms: C_13  and  C_17
REMARK    4  A    between atoms: C_20  and  C_22
REMARK    5  A    between atoms: C_20  and  C_28
REMARK                            x       y       z     vdW  Elec       q    Type
REMARK                         _______ _______ _______ _____ _____    ______ ____
ROOT
ATOM      1  C   UNL     1       3.352   1.935   0.000  0.00  0.00    +0.000 A 
ATOM      2  C   UNL     1       3.352   1.110   0.000  0.00  0.00    +0.000 A 
ATOM      3  C   UNL     1       2.638   0.698   0.000  0.00  0.00    +0.000 A 
ATOM      4  C   UNL     1       1.923   1.110   0.000  0.00  0.00    +0.000 A 
ATOM      5  N   UNL     1       1.139   0.856   0.000  0.00  0.00    +0.000 NA
ATOM      6  C   UNL     1       0.654   1.523   0.000  0.00  0.00    +0.000 A 
ATOM      7  N   UNL     1       1.139   2.190   0.000  0.00  0.00    +0.000 NA
ATOM      8  C   UNL     1       1.923   1.935   0.000  0.00  0.00    +0.000 A 
ATOM      9  C   UNL     1       2.638   2.348   0.000  0.00  0.00    +0.000 A 
ENDROOT
BRANCH   1  16
ATOM     10  C   UNL     1       3.540   3.720   0.000  0.00  0.00    +0.000 C 
ATOM     11  C   UNL     1       4.153   3.168   0.000  0.00  0.00    +0.000 A 
ATOM     12  N   UNL     1       4.960   3.340   0.000  0.00  0.00    +0.000 NA
ATOM     13  O   UNL     1       5.372   2.626   0.000  0.00  0.00    +0.000 OA
ATOM     14  C   UNL     1       4.820   2.012   0.000  0.00  0.00    +0.000 A 
ATOM     15  C   UNL     1       4.992   1.205   0.000  0.00  0.00    +0.000 C 
ATOM     16  C   UNL     1       4.067   2.348   0.000  0.00  0.00    +0.000 A 
ENDBRANCH   1  16
BRANCH   6  17
ATOM     17  C   UNL     1      -0.171   1.523   0.000  0.00  0.00    +0.000 C 
ATOM     18  C   UNL     1      -0.886   1.110   0.000  0.00  0.00    +0.000 C 
ATOM     19  C   UNL     1      -0.886   1.935   0.000  0.00  0.00    +0.000 C 
ENDBRANCH   6  17
BRANCH   3  20
ATOM     20  C   UNL     1       2.638  -0.127   0.000  0.00  0.00    +0.000 C 
ATOM     21  O   UNL     1       1.813  -0.127   0.000  0.00  0.00    +0.000 OA
BRANCH  20  22
ATOM     22  C   UNL     1       2.638  -0.952   0.000  0.00  0.00    +0.000 A 
ATOM     23  C   UNL     1       3.352  -1.365   0.000  0.00  0.00    +0.000 A 
ATOM     24  C   UNL     1       3.352  -2.190   0.000  0.00  0.00    +0.000 A 
ATOM     25  C   UNL     1       2.638  -2.602   0.000  0.00  0.00    +0.000 A 
ATOM     26  C   UNL     1       1.923  -2.190   0.000  0.00  0.00    +0.000 A 
ATOM     27  N   UNL     1       1.923  -1.365   0.000  0.00  0.00    +0.000 NA
ENDBRANCH  20  22
BRANCH  20  28
ATOM     28  C   UNL     1       3.463  -0.127   0.000  0.00  0.00    +0.000 A 
ATOM     29  N   UNL     1       3.875   0.587   0.000  0.00  0.00    +0.000 NA
ATOM     30  C   UNL     1       4.700   0.587   0.000  0.00  0.00    +0.000 A 
ATOM     31  C   UNL     1       5.113  -0.127   0.000  0.00  0.00    +0.000 A 
ATOM     32  C   UNL     1       4.700  -0.842   0.000  0.00  0.00    +0.000 A 
ATOM     33  C   UNL     1       3.875  -0.842   0.000  0.00  0.00    +0.000 A 
ENDBRANCH  20  28
ENDBRANCH   3  20
TORSDOF 5
