REMARK  Name = 
REMARK  2 active torsions:
REMARK  status: ('A' for Active; 'I' for Inactive)
REMARK    1  A    between atoms: C_5  and  C_10
REMARK    2  A    between atoms: C_6  and  C_11
REMARK                            x       y       z     vdW  Elec       q    Type
REMARK                         _______ _______ _______ _____ _____    ______ ____
ROOT
ATOM      1  C   UNL     1       3.466   4.353   0.000  0.00  0.00    +0.000 C 
ATOM      2  C   UNL     1       2.751   4.765   0.000  0.00  0.00    +0.000 C 
ENDROOT
BRANCH   2   7
ATOM      3  C   UNL     1       4.180   5.590   0.000  0.00  0.00    +0.000 C 
ATOM      4  C   UNL     1       2.751   7.240   0.000  0.00  0.00    +0.000 C 
ATOM      5  C   UNL     1       2.037   6.828   0.000  0.00  0.00    +0.000 C 
ATOM      6  C   UNL     1       3.466   6.828   0.000  0.00  0.00    +0.000 C 
ATOM      7  C   UNL     1       2.751   5.590   0.000  0.00  0.00    +0.000 C 
ATOM      8  N   UNL     1       2.037   6.003   0.000  0.00  0.00    +0.000 NA
ATOM      9  N   UNL     1       3.466   6.003   0.000  0.00  0.00    +0.000 N 
ENDBRANCH   2   7
BRANCH   1  13
ATOM     10  C   UNL     1       3.878   2.258   0.000  0.00  0.00    +0.000 A 
ATOM     11  C   UNL     1       4.133   3.043   0.000  0.00  0.00    +0.000 A 
ATOM     12  C   UNL     1       3.053   2.258   0.000  0.00  0.00    +0.000 A 
ATOM     13  C   UNL     1       3.466   3.528   0.000  0.00  0.00    +0.000 A 
ATOM     14  S   UNL     1       2.798   3.043   0.000  0.00  0.00    +0.000 S 
ENDBRANCH   1  13
TORSDOF 2
