REMARK  Name = 
REMARK  8 active torsions:
REMARK  status: ('A' for Active; 'I' for Inactive)
REMARK    1  A    between atoms: C_2  and  C_3
REMARK    2  A    between atoms: C_3  and  C_4
REMARK    3  A    between atoms: C_4  and  C_5
REMARK    4  A    between atoms: C_5  and  C_6
REMARK    5  A    between atoms: C_6  and  C_7
REMARK    6  A    between atoms: C_7  and  C_8
REMARK    7  A    between atoms: C_8  and  C_9
REMARK    8  A    between atoms: C_9  and  C_10
REMARK                            x       y       z     vdW  Elec       q    Type
REMARK                         _______ _______ _______ _____ _____    ______ ____
ROOT
ATOM      1  C   UNL     1       1.786   0.414   0.000  0.00  0.00    +0.000 A 
ATOM      2  C   UNL     1       1.786  -0.414   0.000  0.00  0.00    +0.000 A 
ATOM      3  C   UNL     1       2.502  -0.823   0.000  0.00  0.00    +0.000 A 
ATOM      4  C   UNL     1       3.219  -0.414   0.000  0.00  0.00    +0.000 A 
ATOM      5  C   UNL     1       3.935  -0.823   0.000  0.00  0.00    +0.000 A 
ATOM      6  C   UNL     1       4.651  -0.414   0.000  0.00  0.00    +0.000 A 
ATOM      7  C   UNL     1       4.651   0.414   0.000  0.00  0.00    +0.000 A 
ATOM      8  C   UNL     1       3.935   0.823   0.000  0.00  0.00    +0.000 A 
ATOM      9  C   UNL     1       3.219   0.414   0.000  0.00  0.00    +0.000 A 
ATOM     10  N   UNL     1       2.502   0.823   0.000  0.00  0.00    +0.000 N 
ATOM     11  O   UNL     1       2.502   1.651   0.000  0.00  0.00    +0.000 OA
ATOM     12  O   UNL     1       2.502  -1.651   0.000  0.00  0.00    +0.000 OA
ENDROOT
BRANCH   1  13
ATOM     13  C   UNL     1       1.070   0.823   0.000  0.00  0.00    +0.000 C 
BRANCH  13  14
ATOM     14  C   UNL     1       0.363   0.414   0.000  0.00  0.00    +0.000 C 
BRANCH  14  15
ATOM     15  C   UNL     1      -0.353   0.823   0.000  0.00  0.00    +0.000 C 
BRANCH  15  16
ATOM     16  C   UNL     1      -1.070   0.414   0.000  0.00  0.00    +0.000 C 
BRANCH  16  17
ATOM     17  C   UNL     1      -1.786   0.823   0.000  0.00  0.00    +0.000 C 
BRANCH  17  18
ATOM     18  C   UNL     1      -2.502   0.414   0.000  0.00  0.00    +0.000 C 
BRANCH  18  19
ATOM     19  C   UNL     1      -3.219   0.823   0.000  0.00  0.00    +0.000 C 
BRANCH  19  21
ATOM     20  C   UNL     1      -4.651   0.823   0.000  0.00  0.00    +0.000 C 
ATOM     21  C   UNL     1      -3.935   0.414   0.000  0.00  0.00    +0.000 C 
ENDBRANCH  19  21
ENDBRANCH  18  19
ENDBRANCH  17  18
ENDBRANCH  16  17
ENDBRANCH  15  16
ENDBRANCH  14  15
ENDBRANCH  13  14
ENDBRANCH   1  13
TORSDOF 8
