REMARK  Name = 
REMARK  4 active torsions:
REMARK  status: ('A' for Active; 'I' for Inactive)
REMARK    1  A    between atoms: S_2  and  C_6
REMARK    2  A    between atoms: S_2  and  C_12
REMARK    3  A    between atoms: C_13  and  C_15
REMARK    4  A    between atoms: C_15  and  C_18
REMARK                            x       y       z     vdW  Elec       q    Type
REMARK                         _______ _______ _______ _____ _____    ______ ____
ROOT
ATOM      1 CL   UNL     1       2.885   0.137   0.000  0.00  0.00    +0.000 Cl
ATOM      2  O   UNL     1      -1.456   1.807   0.000  0.00  0.00    +0.000 OA
ATOM      3  N   UNL     1      -0.027   1.807   0.000  0.00  0.00    +0.000 N 
ATOM      4  C   UNL     1      -0.027   0.157   0.000  0.00  0.00    +0.000 A 
ATOM      5  C   UNL     1      -0.742   0.569   0.000  0.00  0.00    +0.000 A 
ATOM      6  C   UNL     1       0.687   0.569   0.000  0.00  0.00    +0.000 A 
ATOM      7  C   UNL     1       0.687   1.394   0.000  0.00  0.00    +0.000 A 
ATOM      8  C   UNL     1      -0.742   1.394   0.000  0.00  0.00    +0.000 A 
ATOM      9  C   UNL     1       1.425   0.128   0.000  0.00  0.00    +0.000 A 
ATOM     10  C   UNL     1       1.425   1.835   0.000  0.00  0.00    +0.000 A 
ATOM     11  C   UNL     1       2.172   0.552   0.000  0.00  0.00    +0.000 A 
ATOM     12  C   UNL     1       2.172   1.411   0.000  0.00  0.00    +0.000 A 
ATOM     13  H   UNL     1      -0.027   2.318   0.000  0.00  0.00    +0.000 HD
ENDROOT
BRANCH   4  14
ATOM     14  S   UNL     1      -0.027  -0.668   0.000  0.00  0.00    +0.000 S 
ATOM     15  O   UNL     1       0.687  -1.081   0.000  0.00  0.00    +0.000 OA
BRANCH  14  16
ATOM     16  C   UNL     1      -0.742  -1.081   0.000  0.00  0.00    +0.000 C 
ATOM     17  C   UNL     1      -0.742  -1.906   0.000  0.00  0.00    +0.000 C 
ATOM     18  C   UNL     1      -1.456  -0.668   0.000  0.00  0.00    +0.000 C 
ATOM     19  C   UNL     1      -1.456  -2.318   0.000  0.00  0.00    +0.000 C 
ATOM     20  C   UNL     1      -2.171  -1.081   0.000  0.00  0.00    +0.000 C 
ATOM     21  C   UNL     1      -2.171  -1.906   0.000  0.00  0.00    +0.000 C 
ENDBRANCH  14  16
ENDBRANCH   4  14
BRANCH   5  22
ATOM     22  C   UNL     1      -1.456   0.157   0.000  0.00  0.00    +0.000 C 
BRANCH  22  23
ATOM     23  C   UNL     1      -2.171   0.569   0.000  0.00  0.00    +0.000 C 
ATOM     24  C   UNL     1      -2.885   0.157   0.000  0.00  0.00    +0.000 C 
ENDBRANCH  22  23
ENDBRANCH   5  22
TORSDOF 4
