REMARK  Name = 
REMARK  3 active torsions:
REMARK  status: ('A' for Active; 'I' for Inactive)
REMARK    1  A    between atoms: C_2  and  C_7
REMARK    2  A    between atoms: C_5  and  C_10
REMARK    3  A    between atoms: C_10  and  C_14
REMARK                            x       y       z     vdW  Elec       q    Type
REMARK                         _______ _______ _______ _____ _____    ______ ____
ROOT
ATOM      1  C   UNL     1      -0.049   0.726   0.000  0.00  0.00    +0.000 A 
ATOM      2  C   UNL     1       0.665   1.138   0.000  0.00  0.00    +0.000 A 
ATOM      3  C   UNL     1       0.665   1.963   0.000  0.00  0.00    +0.000 A 
ATOM      4  C   UNL     1      -0.049   2.376   0.000  0.00  0.00    +0.000 A 
ATOM      5  C   UNL     1      -0.763   1.963   0.000  0.00  0.00    +0.000 A 
ATOM      6  C   UNL     1      -1.478   2.375   0.000  0.00  0.00    +0.000 C 
ATOM      7  C   UNL     1      -2.192   1.963   0.000  0.00  0.00    +0.000 C 
ATOM      8  C   UNL     1      -2.192   1.138   0.000  0.00  0.00    +0.000 C 
ATOM      9  C   UNL     1      -1.478   0.725   0.000  0.00  0.00    +0.000 C 
ATOM     10  C   UNL     1      -0.763   1.138   0.000  0.00  0.00    +0.000 A 
ATOM     11  C   UNL     1      -0.948   0.093   0.000  0.00  0.00    +0.000 C 
ATOM     12  C   UNL     1      -2.008   0.093   0.000  0.00  0.00    +0.000 C 
ATOM     13  C   UNL     1      -2.008   3.007   0.000  0.00  0.00    +0.000 C 
ATOM     14  C   UNL     1      -0.948   3.007   0.000  0.00  0.00    +0.000 C 
ATOM     15  C   UNL     1       1.380   2.376   0.000  0.00  0.00    +0.000 C 
ENDROOT
BRANCH   2  16
ATOM     16  C   UNL     1       1.380   0.726   0.000  0.00  0.00    +0.000 C 
ATOM     17  C   UNL     1       1.910   1.357   0.000  0.00  0.00    +0.000 C 
ATOM     18  C   UNL     1       2.192   0.582   0.000  0.00  0.00    +0.000 C 
BRANCH  16  23
ATOM     19  C   UNL     1       1.346  -1.457   0.000  0.00  0.00    +0.000 A 
ATOM     20  C   UNL     1       0.533  -1.600   0.000  0.00  0.00    +0.000 A 
ATOM     21  C   UNL     1       0.003  -0.968   0.000  0.00  0.00    +0.000 A 
ATOM     22  C   UNL     1       0.285  -0.193   0.000  0.00  0.00    +0.000 A 
ATOM     23  C   UNL     1       1.098  -0.050   0.000  0.00  0.00    +0.000 A 
ATOM     24  N   UNL     1       1.628  -0.682   0.000  0.00  0.00    +0.000 NA
BRANCH  20  25
ATOM     25  C   UNL     1       0.251  -2.376   0.000  0.00  0.00    +0.000 C 
ATOM     26  O   UNL     1      -0.561  -2.519   0.000  0.00  0.00    +0.000 OA
ATOM     27  O   UNL     1       0.782  -3.007   0.000  0.00  0.00    +0.000 OA
ENDBRANCH  20  25
ENDBRANCH  16  23
ENDBRANCH   2  16
TORSDOF 3
