REMARK  Name = 
REMARK  5 active torsions:
REMARK  status: ('A' for Active; 'I' for Inactive)
REMARK    1  A    between atoms: C_6  and  C_7
REMARK    2  A    between atoms: C_7  and  N_16
REMARK    3  A    between atoms: C_8  and  C_10
REMARK    4  A    between atoms: C_10  and  O_11
REMARK    5  A    between atoms: O_11  and  P_12
REMARK                            x       y       z     vdW  Elec       q    Type
REMARK                         _______ _______ _______ _____ _____    ______ ____
ROOT
ATOM      1  N   UNL     1      -0.690   1.728   0.000  0.00  0.00    +0.000 NA
ATOM      2  C   UNL     1       0.139   1.728   0.000  0.00  0.00    +0.000 A 
ATOM      3  C   UNL     1       0.551   2.443   0.000  0.00  0.00    +0.000 C 
ATOM      4  C   UNL     1       0.551   1.012   0.000  0.00  0.00    +0.000 A 
ATOM      5  O   UNL     1       1.380   1.012   0.000  0.00  0.00    +0.000 OA
ATOM      6  C   UNL     1       0.139   0.297   0.000  0.00  0.00    +0.000 A 
ATOM      7  C   UNL     1      -0.690   0.297   0.000  0.00  0.00    +0.000 A 
ATOM      8  C   UNL     1      -1.101   1.012   0.000  0.00  0.00    +0.000 A 
ENDROOT
BRANCH   6   9
ATOM      9  C   UNL     1       0.551  -0.418   0.000  0.00  0.00    +0.000 C 
BRANCH   9  10
ATOM     10  N   UNL     1       1.380  -0.418   0.000  0.00  0.00    +0.000 NA
ATOM     11  C   UNL     1       1.791  -1.133   0.000  0.00  0.00    +0.000 C 
ATOM     12  C   UNL     1       2.614  -1.221   0.000  0.00  0.00    +0.000 C 
ATOM     13  O   UNL     1       3.164  -0.607   0.000  0.00  0.00    +0.000 OA
ATOM     14  N   UNL     1       2.784  -2.031   0.000  0.00  0.00    +0.000 NA
ATOM     15  O   UNL     1       2.069  -2.443   0.000  0.00  0.00    +0.000 OA
ATOM     16  C   UNL     1       1.456  -1.892   0.000  0.00  0.00    +0.000 C 
ENDBRANCH   9  10
ENDBRANCH   6   9
BRANCH   7  17
ATOM     17  C   UNL     1      -1.101  -0.418   0.000  0.00  0.00    +0.000 C 
BRANCH  17  18
ATOM     18  O   UNL     1      -1.924  -0.418   0.000  0.00  0.00    +0.000 OA
BRANCH  18  19
ATOM     19  P   UNL     1      -2.341  -1.133   0.000  0.00  0.00    +0.000 P 
ATOM     20  O   UNL     1      -1.924  -1.848   0.000  0.00  0.00    +0.000 OA
ATOM     21  O   UNL     1      -3.164  -1.133   0.000  0.00  0.00    +0.000 OA
ATOM     22  O   UNL     1      -2.753  -1.848   0.000  0.00  0.00    +0.000 OA
ENDBRANCH  18  19
ENDBRANCH  17  18
ENDBRANCH   7  17
TORSDOF 5
