REMARK  Name = 
REMARK  3 active torsions:
REMARK  status: ('A' for Active; 'I' for Inactive)
REMARK    1  A    between atoms: C_4  and  C_7
REMARK    2  A    between atoms: C_9  and  C_25
REMARK    3  A    between atoms: C_10  and  N_13
REMARK                            x       y       z     vdW  Elec       q    Type
REMARK                         _______ _______ _______ _____ _____    ______ ____
ROOT
ATOM      1  C   UNL     1      -1.429  -1.650   0.000  0.00  0.00    +0.000 A 
ATOM      2  C   UNL     1      -2.143  -1.238   0.000  0.00  0.00    +0.000 A 
ATOM      3  C   UNL     1      -2.143  -0.412   0.000  0.00  0.00    +0.000 A 
ATOM      4  C   UNL     1      -1.429   0.000   0.000  0.00  0.00    +0.000 A 
ATOM      5  N   UNL     1      -0.715  -0.412   0.000  0.00  0.00    +0.000 NA
ATOM      6  N   UNL     1      -0.715  -1.238   0.000  0.00  0.00    +0.000 NA
ENDROOT
BRANCH   4   7
ATOM      7  N   UNL     1      -1.429   0.825   0.000  0.00  0.00    +0.000 N 
ATOM      8  C   UNL     1      -2.143   1.238   0.000  0.00  0.00    +0.000 C 
ATOM      9  C   UNL     1      -2.143   2.062   0.000  0.00  0.00    +0.000 C 
ATOM     10  N   UNL     1      -1.429   2.475   0.000  0.00  0.00    +0.000 N 
ATOM     11  C   UNL     1      -0.715   2.062   0.000  0.00  0.00    +0.000 C 
ATOM     12  C   UNL     1      -0.715   1.238   0.000  0.00  0.00    +0.000 C 
ATOM     13  C   UNL     1      -1.429   3.300   0.000  0.00  0.00    +0.000 A 
ATOM     14  N   UNL     1      -2.143   3.712   0.000  0.00  0.00    +0.000 NA
ATOM     15  C   UNL     1      -2.143   4.537   0.000  0.00  0.00    +0.000 A 
ATOM     16  C   UNL     1      -1.429   4.950   0.000  0.00  0.00    +0.000 A 
ATOM     17  C   UNL     1      -0.715   4.537   0.000  0.00  0.00    +0.000 A 
ATOM     18  N   UNL     1      -0.715   3.712   0.000  0.00  0.00    +0.000 NA
ENDBRANCH   4   7
BRANCH   1  22
ATOM     19  C   UNL     1      -1.429  -4.125   0.000  0.00  0.00    +0.000 A 
ATOM     20  C   UNL     1      -2.143  -3.712   0.000  0.00  0.00    +0.000 A 
ATOM     21  C   UNL     1      -2.143  -2.888   0.000  0.00  0.00    +0.000 A 
ATOM     22  C   UNL     1      -1.429  -2.475   0.000  0.00  0.00    +0.000 A 
ATOM     23  C   UNL     1      -0.715  -2.888   0.000  0.00  0.00    +0.000 A 
ATOM     24  C   UNL     1      -0.715  -3.712   0.000  0.00  0.00    +0.000 A 
ENDBRANCH   1  22
BRANCH   3  25
ATOM     25  C   UNL     1      -2.858   0.000   0.000  0.00  0.00    +0.000 A 
ATOM     26  C   UNL     1      -3.572  -0.412   0.000  0.00  0.00    +0.000 A 
ATOM     27  C   UNL     1      -4.287   0.000   0.000  0.00  0.00    +0.000 A 
ATOM     28  N   UNL     1      -4.287   0.825   0.000  0.00  0.00    +0.000 NA
ATOM     29  C   UNL     1      -3.572   1.238   0.000  0.00  0.00    +0.000 A 
ATOM     30  C   UNL     1      -2.858   0.825   0.000  0.00  0.00    +0.000 A 
ENDBRANCH   3  25
TORSDOF 3
