REMARK  Name = 
REMARK  8 active torsions:
REMARK  status: ('A' for Active; 'I' for Inactive)
REMARK    1  A    between atoms: C_12  and  C_13
REMARK    2  A    between atoms: C_15  and  O_16
REMARK    3  A    between atoms: O_16  and  C_17
REMARK    4  A    between atoms: C_17  and  C_19
REMARK    5  A    between atoms: C_19  and  C_20
REMARK    6  A    between atoms: C_20  and  C_21
REMARK    7  A    between atoms: C_21  and  C_22
REMARK    8  A    between atoms: C_22  and  C_23
REMARK                            x       y       z     vdW  Elec       q    Type
REMARK                         _______ _______ _______ _____ _____    ______ ____
ROOT
ATOM      1 FE   UNL     1      -5.173   0.287   0.000  0.00  0.00    +0.000 Fe
ENDROOT
TORSDOF 0
REMARK  Name = 
REMARK  8 active torsions:
REMARK  status: ('A' for Active; 'I' for Inactive)
REMARK    1  A    between atoms: C_12  and  C_13
REMARK    2  A    between atoms: C_15  and  O_16
REMARK    3  A    between atoms: O_16  and  C_17
REMARK    4  A    between atoms: C_17  and  C_19
REMARK    5  A    between atoms: C_19  and  C_20
REMARK    6  A    between atoms: C_20  and  C_21
REMARK    7  A    between atoms: C_21  and  C_22
REMARK    8  A    between atoms: C_22  and  C_23
REMARK                            x       y       z     vdW  Elec       q    Type
REMARK                         _______ _______ _______ _____ _____    ______ ____
ROOT
ATOM      1  O   UNL     1       0.334   0.971   0.000  0.00  0.00    +0.000 OA
ENDROOT
BRANCH   1  10
ATOM      2  O   UNL     1       0.334  -0.679   0.000  0.00  0.00    +0.000 OA
ATOM      3  C   UNL     1      -0.378  -0.267   0.000  0.00  0.00    +0.000 C 
ATOM      4  O   UNL     1      -1.095  -1.505   0.000  0.00  0.00    +0.000 OA
ATOM      5  C   UNL     1      -1.095  -0.679   0.000  0.00  0.00    +0.000 C 
ATOM      6  O   UNL     1      -2.520  -0.679   0.000  0.00  0.00    +0.000 OA
ATOM      7  C   UNL     1      -1.808  -0.267   0.000  0.00  0.00    +0.000 C 
ATOM      8  C   UNL     1      -1.808   0.558   0.000  0.00  0.00    +0.000 C 
ATOM      9  O   UNL     1      -1.095   0.971   0.000  0.00  0.00    +0.000 OA
ATOM     10  C   UNL     1      -0.378   0.558   0.000  0.00  0.00    +0.000 C 
BRANCH   8  12
ATOM     11  O   UNL     1      -3.149   0.437   0.000  0.00  0.00    +0.000 OA
ATOM     12  C   UNL     1      -2.520   0.971   0.000  0.00  0.00    +0.000 C 
ENDBRANCH   8  12
ENDBRANCH   1  10
BRANCH   1  13
ATOM     13  C   UNL     1       0.963   1.504   0.000  0.00  0.00    +0.000 C 
BRANCH  13  15
ATOM     14  O   UNL     1       2.388   1.505   0.000  0.00  0.00    +0.000 OA
ATOM     15  C   UNL     1       1.676   1.092   0.000  0.00  0.00    +0.000 C 
BRANCH  15  17
ATOM     16  O   UNL     1       0.963  -0.146   0.000  0.00  0.00    +0.000 OA
ATOM     17  C   UNL     1       1.676   0.267   0.000  0.00  0.00    +0.000 C 
BRANCH  17  19
ATOM     18  O   UNL     1       2.388  -0.971   0.000  0.00  0.00    +0.000 OA
ATOM     19  C   UNL     1       2.388  -0.146   0.000  0.00  0.00    +0.000 C 
BRANCH  19  21
ATOM     20  O   UNL     1       3.818  -0.146   0.000  0.00  0.00    +0.000 OA
ATOM     21  C   UNL     1       3.105   0.267   0.000  0.00  0.00    +0.000 C 
BRANCH  21  22
ATOM     22  C   UNL     1       3.105   1.092   0.000  0.00  0.00    +0.000 C 
ATOM     23  O   UNL     1       3.818   1.505   0.000  0.00  0.00    +0.000 OA
ENDBRANCH  21  22
ENDBRANCH  19  21
ENDBRANCH  17  19
ENDBRANCH  15  17
ENDBRANCH  13  15
ENDBRANCH   1  13
TORSDOF 8
REMARK  Name = 
REMARK  8 active torsions:
REMARK  status: ('A' for Active; 'I' for Inactive)
REMARK    1  A    between atoms: C_12  and  C_13
REMARK    2  A    between atoms: C_15  and  O_16
REMARK    3  A    between atoms: O_16  and  C_17
REMARK    4  A    between atoms: C_17  and  C_19
REMARK    5  A    between atoms: C_19  and  C_20
REMARK    6  A    between atoms: C_20  and  C_21
REMARK    7  A    between atoms: C_21  and  C_22
REMARK    8  A    between atoms: C_22  and  C_23
REMARK                            x       y       z     vdW  Elec       q    Type
REMARK                         _______ _______ _______ _____ _____    ______ ____
ROOT
ATOM      1  O   HOH     1       5.414   0.078   0.000  0.00  0.00    +0.000 OA
ENDROOT
TORSDOF 0
REMARK  Name = 
REMARK  8 active torsions:
REMARK  status: ('A' for Active; 'I' for Inactive)
REMARK    1  A    between atoms: C_12  and  C_13
REMARK    2  A    between atoms: C_15  and  O_16
REMARK    3  A    between atoms: O_16  and  C_17
REMARK    4  A    between atoms: C_17  and  C_19
REMARK    5  A    between atoms: C_19  and  C_20
REMARK    6  A    between atoms: C_20  and  C_21
REMARK    7  A    between atoms: C_21  and  C_22
REMARK    8  A    between atoms: C_22  and  C_23
REMARK                            x       y       z     vdW  Elec       q    Type
REMARK                         _______ _______ _______ _____ _____    ______ ____
ROOT
ATOM      1  O   HOH     1       5.370   1.014   0.000  0.00  0.00    +0.000 OA
ENDROOT
TORSDOF 0
REMARK  Name = 
REMARK  8 active torsions:
REMARK  status: ('A' for Active; 'I' for Inactive)
REMARK    1  A    between atoms: C_12  and  C_13
REMARK    2  A    between atoms: C_15  and  O_16
REMARK    3  A    between atoms: O_16  and  C_17
REMARK    4  A    between atoms: C_17  and  C_19
REMARK    5  A    between atoms: C_19  and  C_20
REMARK    6  A    between atoms: C_20  and  C_21
REMARK    7  A    between atoms: C_21  and  C_22
REMARK    8  A    between atoms: C_22  and  C_23
REMARK                            x       y       z     vdW  Elec       q    Type
REMARK                         _______ _______ _______ _____ _____    ______ ____
ROOT
ATOM      1  O   HOH     1       5.459  -0.902   0.000  0.00  0.00    +0.000 OA
ENDROOT
TORSDOF 0
