REMARK  Name = 
REMARK  6 active torsions:
REMARK  status: ('A' for Active; 'I' for Inactive)
REMARK    1  A    between atoms: C_5  and  O_18
REMARK    2  A    between atoms: C_7  and  N_8
REMARK    3  A    between atoms: C_9  and  C_11
REMARK    4  A    between atoms: O_18  and  C_19
REMARK    5  A    between atoms: C_24  and  N_28
REMARK    6  A    between atoms: C_29  and  C_31
REMARK                            x       y       z     vdW  Elec       q    Type
REMARK                         _______ _______ _______ _____ _____    ______ ____
ROOT
ATOM      1  C   UNL     1       6.925   0.698   0.000  0.00  0.00    +0.000 C 
ATOM      2  C   UNL     1       6.210   1.110   0.000  0.00  0.00    +0.000 A 
ATOM      3  C   UNL     1       5.496   0.698   0.000  0.00  0.00    +0.000 A 
ATOM      4  C   UNL     1       4.781   1.110   0.000  0.00  0.00    +0.000 A 
ATOM      5  C   UNL     1       4.781   1.935   0.000  0.00  0.00    +0.000 A 
ATOM      6  C   UNL     1       5.496   2.348   0.000  0.00  0.00    +0.000 A 
ATOM      7  C   UNL     1       6.210   1.935   0.000  0.00  0.00    +0.000 A 
ENDROOT
BRANCH   7   8
ATOM      8  N   UNL     1       6.925   2.348   0.000  0.00  0.00    +0.000 NA
ATOM      9  C   UNL     1       7.639   1.935   0.000  0.00  0.00    +0.000 C 
ATOM     10  O   UNL     1       7.639   1.110   0.000  0.00  0.00    +0.000 OA
BRANCH   9  11
ATOM     11  C   UNL     1       8.354   2.348   0.000  0.00  0.00    +0.000 A 
ATOM     12  C   UNL     1       8.440   3.168   0.000  0.00  0.00    +0.000 A 
ATOM     13  C   UNL     1       9.247   3.340   0.000  0.00  0.00    +0.000 A 
ATOM     14  N   UNL     1       9.659   2.626   0.000  0.00  0.00    +0.000 NA
ATOM     15  N   UNL     1       9.107   2.012   0.000  0.00  0.00    +0.000 N 
ATOM     16  C   UNL     1       9.279   1.205   0.000  0.00  0.00    +0.000 C 
ATOM     17  C   UNL     1       9.582   4.094   0.000  0.00  0.00    +0.000 C 
ENDBRANCH   9  11
ENDBRANCH   7   8
BRANCH   5  18
ATOM     18  O   UNL     1       4.067   2.348   0.000  0.00  0.00    +0.000 OA
BRANCH  18  19
ATOM     19  C   UNL     1       3.352   1.935   0.000  0.00  0.00    +0.000 A 
ATOM     20  C   UNL     1       3.352   1.110   0.000  0.00  0.00    +0.000 A 
ATOM     21  C   UNL     1       2.638   0.698   0.000  0.00  0.00    +0.000 A 
ATOM     22  C   UNL     1       1.923   1.110   0.000  0.00  0.00    +0.000 A 
ATOM     23  N   UNL     1       1.139   0.856   0.000  0.00  0.00    +0.000 NA
ATOM     24  C   UNL     1       0.654   1.523   0.000  0.00  0.00    +0.000 A 
ATOM     25  C   UNL     1       1.139   2.190   0.000  0.00  0.00    +0.000 A 
ATOM     26  N   UNL     1       1.923   1.935   0.000  0.00  0.00    +0.000 N 
ATOM     27  N   UNL     1       2.638   2.348   0.000  0.00  0.00    +0.000 NA
BRANCH  24  28
ATOM     28  N   UNL     1      -0.171   1.523   0.000  0.00  0.00    +0.000 NA
ATOM     29  C   UNL     1      -0.584   0.808   0.000  0.00  0.00    +0.000 C 
ATOM     30  O   UNL     1      -0.171   0.094   0.000  0.00  0.00    +0.000 OA
BRANCH  29  31
ATOM     31  C   UNL     1      -1.409   0.808   0.000  0.00  0.00    +0.000 C 
ATOM     32  C   UNL     1      -2.123   0.396   0.000  0.00  0.00    +0.000 C 
ATOM     33  C   UNL     1      -2.123   1.221   0.000  0.00  0.00    +0.000 C 
ENDBRANCH  29  31
ENDBRANCH  24  28
ENDBRANCH  18  19
ENDBRANCH   5  18
TORSDOF 6
