REMARK  Name = 
REMARK  8 active torsions:
REMARK  status: ('A' for Active; 'I' for Inactive)
REMARK    1  A    between atoms: C_5  and  C_7
REMARK    2  A    between atoms: N_9  and  C_10
REMARK    3  A    between atoms: C_10  and  C_11
REMARK    4  A    between atoms: C_11  and  C_12
REMARK    5  A    between atoms: C_12  and  O_13
REMARK    6  A    between atoms: O_13  and  C_14
REMARK    7  A    between atoms: C_18  and  C_20
REMARK    8  A    between atoms: C_20  and  N_21
REMARK                            x       y       z     vdW  Elec       q    Type
REMARK                         _______ _______ _______ _____ _____    ______ ____
ROOT
ATOM      1  O   UNL     1       0.715  -6.188   0.000  0.00  0.00    +0.000 OA
ENDROOT
BRANCH   1   2
ATOM      2  C   UNL     1       1.429  -5.775   0.000  0.00  0.00    +0.000 A 
ATOM      3  C   UNL     1       1.429  -4.950   0.000  0.00  0.00    +0.000 A 
ATOM      4  C   UNL     1       2.143  -4.537   0.000  0.00  0.00    +0.000 A 
ATOM      5  C   UNL     1       2.858  -4.950   0.000  0.00  0.00    +0.000 A 
ATOM      6  C   UNL     1       2.858  -5.775   0.000  0.00  0.00    +0.000 A 
ATOM      7  C   UNL     1       2.143  -6.188   0.000  0.00  0.00    +0.000 A 
BRANCH   6   8
ATOM      8  C   UNL     1       3.572  -6.188   0.000  0.00  0.00    +0.000 C 
BRANCH   8   9
ATOM      9  N   UNL     1       4.287  -5.775   0.000  0.00  0.00    +0.000 NA
ATOM     10  C   UNL     1       4.287  -4.950   0.000  0.00  0.00    +0.000 C 
ATOM     11  C   UNL     1       5.001  -4.537   0.000  0.00  0.00    +0.000 C 
ATOM     12  C   UNL     1       5.716  -4.950   0.000  0.00  0.00    +0.000 C 
ATOM     13  C   UNL     1       5.716  -5.775   0.000  0.00  0.00    +0.000 C 
ATOM     14  C   UNL     1       5.001  -6.188   0.000  0.00  0.00    +0.000 C 
ENDBRANCH   8   9
ENDBRANCH   6   8
ENDBRANCH   1   2
BRANCH   1  15
ATOM     15  C   UNL     1       0.000  -5.775   0.000  0.00  0.00    +0.000 C 
BRANCH  15  16
ATOM     16  C   UNL     1      -0.715  -6.188   0.000  0.00  0.00    +0.000 C 
BRANCH  16  17
ATOM     17  C   UNL     1      -1.429  -5.775   0.000  0.00  0.00    +0.000 C 
BRANCH  17  24
ATOM     18  C   UNL     1      -2.331  -4.402   0.000  0.00  0.00    +0.000 C 
ATOM     19  N   UNL     1      -2.944  -4.955   0.000  0.00  0.00    +0.000 N 
ATOM     20  C   UNL     1      -2.858  -5.775   0.000  0.00  0.00    +0.000 A 
ATOM     21  N   UNL     1      -3.612  -6.111   0.000  0.00  0.00    +0.000 NA
ATOM     22  C   UNL     1      -4.164  -5.497   0.000  0.00  0.00    +0.000 A 
ATOM     23  N   UNL     1      -3.751  -4.783   0.000  0.00  0.00    +0.000 NA
ATOM     24  N   UNL     1      -2.143  -6.188   0.000  0.00  0.00    +0.000 NA
BRANCH  22  25
ATOM     25  C   UNL     1      -4.984  -5.584   0.000  0.00  0.00    +0.000 C 
ATOM     26  O   UNL     1      -5.469  -4.916   0.000  0.00  0.00    +0.000 OA
ENDBRANCH  22  25
ENDBRANCH  17  24
ENDBRANCH  16  17
ENDBRANCH  15  16
ENDBRANCH   1  15
TORSDOF 8
