REMARK  Name = 
REMARK  7 active torsions:
REMARK  status: ('A' for Active; 'I' for Inactive)
REMARK    1  A    between atoms: C_2  and  C_3
REMARK    2  A    between atoms: C_2  and  O_17
REMARK    3  A    between atoms: C_5  and  C_13
REMARK    4  A    between atoms: C_7  and  C_9
REMARK    5  A    between atoms: O_17  and  C_18
REMARK    6  A    between atoms: N_23  and  C_34
REMARK    7  A    between atoms: C_26  and  C_27
REMARK                            x       y       z     vdW  Elec       q    Type
REMARK                         _______ _______ _______ _____ _____    ______ ____
ROOT
ATOM      1  C   UNL     1       3.352   1.935   0.000  0.00  0.00    +0.000 C 
ATOM      2  C   UNL     1       3.352   1.110   0.000  0.00  0.00    +0.000 C 
ATOM      3  C   UNL     1       2.638   0.698   0.000  0.00  0.00    +0.000 C 
ATOM      4  C   UNL     1       1.923   1.110   0.000  0.00  0.00    +0.000 C 
ATOM      5  C   UNL     1       1.139   0.856   0.000  0.00  0.00    +0.000 C 
ATOM      6  N   UNL     1       0.654   1.523   0.000  0.00  0.00    +0.000 N 
ATOM      7  C   UNL     1       1.139   2.190   0.000  0.00  0.00    +0.000 C 
ATOM      8  C   UNL     1       1.923   1.935   0.000  0.00  0.00    +0.000 C 
ATOM      9  C   UNL     1       2.638   2.348   0.000  0.00  0.00    +0.000 C 
ENDROOT
BRANCH   9  10
ATOM     10  C   UNL     1       2.638   3.173   0.000  0.00  0.00    +0.000 A 
ATOM     11  C   UNL     1       1.923   3.585   0.000  0.00  0.00    +0.000 A 
ATOM     12  C   UNL     1       1.923   4.410   0.000  0.00  0.00    +0.000 A 
ATOM     13  C   UNL     1       2.638   4.823   0.000  0.00  0.00    +0.000 A 
ATOM     14  C   UNL     1       3.352   4.410   0.000  0.00  0.00    +0.000 A 
ATOM     15  C   UNL     1       3.352   3.585   0.000  0.00  0.00    +0.000 A 
ATOM     16  F   UNL     1       2.638   5.648   0.000  0.00  0.00    +0.000 F 
ENDBRANCH   9  10
BRANCH   6  17
ATOM     17  C   UNL     1      -0.171   1.523   0.000  0.00  0.00    +0.000 C 
ATOM     18  C   UNL     1      -0.656   0.856   0.000  0.00  0.00    +0.000 C 
ATOM     19  C   UNL     1      -1.441   1.110   0.000  0.00  0.00    +0.000 C 
ATOM     20  O   UNL     1      -2.108   0.625   0.000  0.00  0.00    +0.000 OA
ATOM     21  C   UNL     1      -1.441   1.935   0.000  0.00  0.00    +0.000 C 
ATOM     22  C   UNL     1      -0.656   2.190   0.000  0.00  0.00    +0.000 C 
ENDBRANCH   6  17
BRANCH   1  23
ATOM     23  O   UNL     1       4.067   2.348   0.000  0.00  0.00    +0.000 OA
BRANCH  23  25
ATOM     24  C   UNL     1       4.781   1.110   0.000  0.00  0.00    +0.000 C 
ATOM     25  C   UNL     1       4.781   1.935   0.000  0.00  0.00    +0.000 C 
BRANCH  25  26
ATOM     26  C   UNL     1       5.496   2.348   0.000  0.00  0.00    +0.000 A 
ATOM     27  C   UNL     1       5.496   3.173   0.000  0.00  0.00    +0.000 A 
ATOM     28  C   UNL     1       6.210   3.585   0.000  0.00  0.00    +0.000 A 
ATOM     29  C   UNL     1       6.925   3.173   0.000  0.00  0.00    +0.000 A 
ATOM     30  C   UNL     1       6.925   2.348   0.000  0.00  0.00    +0.000 A 
ATOM     31  C   UNL     1       6.210   1.935   0.000  0.00  0.00    +0.000 A 
BRANCH  30  32
ATOM     32  C   UNL     1       7.639   1.935   0.000  0.00  0.00    +0.000 C 
ATOM     33  F   UNL     1       8.354   1.523   0.000  0.00  0.00    +0.000 F 
ATOM     34  F   UNL     1       8.052   2.650   0.000  0.00  0.00    +0.000 F 
ATOM     35  F   UNL     1       7.227   1.221   0.000  0.00  0.00    +0.000 F 
ENDBRANCH  30  32
BRANCH  28  36
ATOM     36  C   UNL     1       6.210   4.410   0.000  0.00  0.00    +0.000 C 
ATOM     37  F   UNL     1       6.210   5.235   0.000  0.00  0.00    +0.000 F 
ATOM     38  F   UNL     1       7.035   4.410   0.000  0.00  0.00    +0.000 F 
ATOM     39  F   UNL     1       5.385   4.410   0.000  0.00  0.00    +0.000 F 
ENDBRANCH  28  36
ENDBRANCH  25  26
ENDBRANCH  23  25
ENDBRANCH   1  23
TORSDOF 7
