REMARK  Name = 
REMARK  0 active torsions:
REMARK  status: ('A' for Active; 'I' for Inactive)
REMARK                            x       y       z     vdW  Elec       q    Type
REMARK                         _______ _______ _______ _____ _____    ______ ____
ROOT
ATOM      1  C   UNL     1      -1.650   1.429   0.000  0.00  0.00    +0.000 A 
ATOM      2  C   UNL     1      -0.825   1.429   0.000  0.00  0.00    +0.000 A 
ATOM      3  C   UNL     1      -0.412   0.714   0.000  0.00  0.00    +0.000 A 
ATOM      4  C   UNL     1       0.412   0.714   0.000  0.00  0.00    +0.000 A 
ATOM      5  C   UNL     1       0.825   1.429   0.000  0.00  0.00    +0.000 A 
ATOM      6  C   UNL     1       1.650   1.429   0.000  0.00  0.00    +0.000 A 
ATOM      7  C   UNL     1       2.062   0.714   0.000  0.00  0.00    +0.000 A 
ATOM      8  C   UNL     1       1.650   0.000   0.000  0.00  0.00    +0.000 A 
ATOM      9  C   UNL     1       0.825   0.000   0.000  0.00  0.00    +0.000 A 
ATOM     10  O   UNL     1       0.412  -0.714   0.000  0.00  0.00    +0.000 OA
ATOM     11  C   UNL     1      -0.412  -0.714   0.000  0.00  0.00    +0.000 A 
ATOM     12  O   UNL     1      -0.825  -1.429   0.000  0.00  0.00    +0.000 OA
ATOM     13  C   UNL     1      -0.825   0.000   0.000  0.00  0.00    +0.000 A 
ATOM     14  C   UNL     1      -1.650   0.000   0.000  0.00  0.00    +0.000 A 
ATOM     15  C   UNL     1      -2.062   0.714   0.000  0.00  0.00    +0.000 A 
ATOM     16  O   UNL     1      -2.888   0.714   0.000  0.00  0.00    +0.000 OA
ATOM     17  O   UNL     1       2.888   0.714   0.000  0.00  0.00    +0.000 OA
ENDROOT
TORSDOF 0
