REMARK  Name = 
REMARK  4 active torsions:
REMARK  status: ('A' for Active; 'I' for Inactive)
REMARK    1  A    between atoms: C_7  and  O_8
REMARK    2  A    between atoms: O_8  and  C_9
REMARK    3  A    between atoms: C_9  and  C_11
REMARK    4  A    between atoms: C_20  and  C_22
REMARK                            x       y       z     vdW  Elec       q    Type
REMARK                         _______ _______ _______ _____ _____    ______ ____
ROOT
ATOM      1  O   UNL     1      -1.429  -1.650   0.000  0.00  0.00    +0.000 OA
ATOM      2  C   UNL     1      -0.715  -1.238   0.000  0.00  0.00    +0.000 A 
ATOM      3  C   UNL     1       0.000  -1.650   0.000  0.00  0.00    +0.000 A 
ATOM      4  C   UNL     1       0.715  -1.238   0.000  0.00  0.00    +0.000 A 
ATOM      5  C   UNL     1       0.715  -0.412   0.000  0.00  0.00    +0.000 A 
ATOM      6  C   UNL     1       1.429   0.000   0.000  0.00  0.00    +0.000 C 
ATOM      7  C   UNL     1       2.143  -0.412   0.000  0.00  0.00    +0.000 C 
ATOM      8  C   UNL     1       2.143  -1.238   0.000  0.00  0.00    +0.000 C 
ATOM      9  O   UNL     1       1.429  -1.650   0.000  0.00  0.00    +0.000 OA
ATOM     10  C   UNL     1       0.000   0.000   0.000  0.00  0.00    +0.000 A 
ATOM     11  O   UNL     1       0.000   0.825   0.000  0.00  0.00    +0.000 OA
ATOM     12  C   UNL     1      -0.715  -0.412   0.000  0.00  0.00    +0.000 A 
ENDROOT
BRANCH   8  13
ATOM     13  C   UNL     1       2.858  -1.650   0.000  0.00  0.00    +0.000 A 
ATOM     14  C   UNL     1       3.572  -1.238   0.000  0.00  0.00    +0.000 A 
ATOM     15  C   UNL     1       4.287  -1.650   0.000  0.00  0.00    +0.000 A 
ATOM     16  O   UNL     1       5.001  -1.238   0.000  0.00  0.00    +0.000 OA
ATOM     17  C   UNL     1       4.287  -2.475   0.000  0.00  0.00    +0.000 A 
ATOM     18  O   UNL     1       5.001  -2.888   0.000  0.00  0.00    +0.000 OA
ATOM     19  C   UNL     1       3.572  -2.888   0.000  0.00  0.00    +0.000 A 
ATOM     20  C   UNL     1       2.858  -2.475   0.000  0.00  0.00    +0.000 A 
ENDBRANCH   8  13
BRANCH   7  21
ATOM     21  O   UNL     1       2.858   0.000   0.000  0.00  0.00    +0.000 OA
BRANCH  21  22
ATOM     22  C   UNL     1       2.858   0.825   0.000  0.00  0.00    +0.000 C 
ATOM     23  O   UNL     1       2.143   1.238   0.000  0.00  0.00    +0.000 OA
BRANCH  22  24
ATOM     24  C   UNL     1       3.572   1.238   0.000  0.00  0.00    +0.000 A 
ATOM     25  C   UNL     1       3.572   2.062   0.000  0.00  0.00    +0.000 A 
ATOM     26  C   UNL     1       4.287   2.475   0.000  0.00  0.00    +0.000 A 
ATOM     27  O   UNL     1       4.287   3.300   0.000  0.00  0.00    +0.000 OA
ATOM     28  C   UNL     1       5.001   2.062   0.000  0.00  0.00    +0.000 A 
ATOM     29  O   UNL     1       5.716   2.475   0.000  0.00  0.00    +0.000 OA
ATOM     30  C   UNL     1       5.001   1.238   0.000  0.00  0.00    +0.000 A 
ATOM     31  O   UNL     1       5.716   0.825   0.000  0.00  0.00    +0.000 OA
ATOM     32  C   UNL     1       4.287   0.825   0.000  0.00  0.00    +0.000 A 
ENDBRANCH  22  24
ENDBRANCH  21  22
ENDBRANCH   7  21
TORSDOF 4
