REMARK  Name = 
REMARK  3 active torsions:
REMARK  status: ('A' for Active; 'I' for Inactive)
REMARK    1  A    between atoms: C_2  and  C_5
REMARK    2  A    between atoms: C_6  and  C_10
REMARK    3  A    between atoms: CB_16  and  CG_17
REMARK                            x       y       z     vdW  Elec       q    Type
REMARK                         _______ _______ _______ _____ _____    ______ ____
ROOT
ATOM      1  C   UNK A   2      -0.691  -3.942   0.000  0.00  0.00    +0.000 C 
ATOM      2  C   UNK A   2      -0.078  -4.495   0.000  0.00  0.00    +0.000 A 
ATOM      3  C   UNK A   2       0.706  -4.240   0.000  0.00  0.00    +0.000 A 
ATOM      4  O   UNK A   2       0.878  -3.433   0.000  0.00  0.00    +0.000 OA
ATOM      5  N   PHE A   1       1.319  -4.792   0.000  0.00  0.00    +0.000 NA
ATOM      6  CA  PHE A   1       1.148  -5.599   0.000  0.00  0.00    +0.000 A 
ATOM      7  CB  PHE A   1       1.761  -6.151   0.000  0.00  0.00    +0.000 C 
ATOM      8  C   PHE A   1       0.363  -5.854   0.000  0.00  0.00    +0.000 A 
ATOM      9  O   PHE A   1       0.192  -6.660   0.000  0.00  0.00    +0.000 OA
ATOM     10  N   UNK A   2      -0.250  -5.301   0.000  0.00  0.00    +0.000 NA
ENDROOT
BRANCH   7  11
ATOM     11  CG  PHE A   1       2.546  -5.896   0.000  0.00  0.00    +0.000 A 
ATOM     12  CD1 PHE A   1       2.717  -5.089   0.000  0.00  0.00    +0.000 A 
ATOM     13  CE1 PHE A   1       3.502  -4.834   0.000  0.00  0.00    +0.000 A 
ATOM     14  CZ  PHE A   1       4.115  -5.386   0.000  0.00  0.00    +0.000 A 
ATOM     15  CE2 PHE A   1       3.943  -6.193   0.000  0.00  0.00    +0.000 A 
ATOM     16  CD2 PHE A   1       3.159  -6.448   0.000  0.00  0.00    +0.000 A 
ENDBRANCH   7  11
BRANCH   1  18
ATOM     17  C   UNK A   2      -2.143  -3.712   0.000  0.00  0.00    +0.000 A 
ATOM     18  C   UNK A   2      -1.476  -4.197   0.000  0.00  0.00    +0.000 A 
ATOM     19  N   UNK A   2      -1.731  -4.982   0.000  0.00  0.00    +0.000 NA
ATOM     20  C   UNK A   2      -2.556  -4.982   0.000  0.00  0.00    +0.000 A 
ATOM     21  N   UNK A   2      -2.811  -4.197   0.000  0.00  0.00    +0.000 NA
BRANCH  17  23
ATOM     22  C   UNK A   2      -2.143  -2.062   0.000  0.00  0.00    +0.000 C 
ATOM     23  C   UNK A   2      -2.143  -2.888   0.000  0.00  0.00    +0.000 C 
ATOM     24  C   UNK A   2      -2.968  -2.888   0.000  0.00  0.00    +0.000 C 
ATOM     25  C   UNK A   2      -1.318  -2.888   0.000  0.00  0.00    +0.000 C 
ENDBRANCH  17  23
ENDBRANCH   1  18
TORSDOF 3
