REMARK  Name = 
REMARK  4 active torsions:
REMARK  status: ('A' for Active; 'I' for Inactive)
REMARK    1  A    between atoms: N_1  and  C_2
REMARK    2  A    between atoms: C_7  and  C_13
REMARK    3  A    between atoms: C_15  and  C_16
REMARK    4  A    between atoms: C_26  and  N_27
REMARK                            x       y       z     vdW  Elec       q    Type
REMARK                         _______ _______ _______ _____ _____    ______ ____
ROOT
ATOM      1  C   UNL     1       1.308   0.801   0.000  0.00  0.00    +0.000 C 
ATOM      2  C   UNL     1       0.594   0.389   0.000  0.00  0.00    +0.000 C 
ENDROOT
BRANCH   2   3
ATOM      3  C   UNL     1      -0.121   0.801   0.000  0.00  0.00    +0.000 A 
ATOM      4  N   UNL     1      -0.835   0.389   0.000  0.00  0.00    +0.000 N 
ATOM      5  C   UNL     1      -0.121   1.627   0.000  0.00  0.00    +0.000 A 
ATOM      6  C   UNL     1      -1.550   0.801   0.000  0.00  0.00    +0.000 A 
ATOM      7  C   UNL     1      -0.835  -0.436   0.000  0.00  0.00    +0.000 C 
ATOM      8  C   UNL     1      -0.835   2.039   0.000  0.00  0.00    +0.000 A 
ATOM      9  C   UNL     1      -1.550   1.627   0.000  0.00  0.00    +0.000 A 
ATOM     10  C   UNL     1      -2.264   0.389   0.000  0.00  0.00    +0.000 A 
ATOM     11  C   UNL     1      -2.264   2.039   0.000  0.00  0.00    +0.000 A 
ATOM     12  C   UNL     1      -2.978   0.801   0.000  0.00  0.00    +0.000 A 
ATOM     13  C   UNL     1      -2.978   1.627   0.000  0.00  0.00    +0.000 A 
BRANCH  13  14
ATOM     14  N   UNL     1      -3.693   2.039   0.000  0.00  0.00    +0.000 N 
ATOM     15  C   UNL     1      -3.693   2.864   0.000  0.00  0.00    +0.000 C 
ATOM     16  C   UNL     1      -4.407   1.627   0.000  0.00  0.00    +0.000 C 
ENDBRANCH  13  14
ENDBRANCH   2   3
BRANCH   1  20
ATOM     17  N   UNL     1       2.916  -0.603   0.000  0.00  0.00    +0.000 N 
ATOM     18  C   UNL     1       2.109  -0.431   0.000  0.00  0.00    +0.000 A 
ATOM     19  C   UNL     1       3.328   0.111   0.000  0.00  0.00    +0.000 A 
ATOM     20  C   UNL     1       2.023   0.389   0.000  0.00  0.00    +0.000 A 
ATOM     21  C   UNL     1       1.496  -0.984   0.000  0.00  0.00    +0.000 C 
ATOM     22  C   UNL     1       2.776   0.724   0.000  0.00  0.00    +0.000 A 
ATOM     23  C   UNL     1       4.149   0.198   0.000  0.00  0.00    +0.000 C 
BRANCH  17  24
ATOM     24  C   UNL     1       3.252  -1.357   0.000  0.00  0.00    +0.000 A 
ATOM     25  C   UNL     1       4.072  -1.443   0.000  0.00  0.00    +0.000 A 
ATOM     26  C   UNL     1       2.767  -2.024   0.000  0.00  0.00    +0.000 A 
ATOM     27  C   UNL     1       4.407  -2.196   0.000  0.00  0.00    +0.000 A 
ATOM     28  C   UNL     1       3.102  -2.778   0.000  0.00  0.00    +0.000 A 
ATOM     29  C   UNL     1       3.923  -2.864   0.000  0.00  0.00    +0.000 A 
ENDBRANCH  17  24
ENDBRANCH   1  20
TORSDOF 4
