REMARK  Name = 
REMARK  4 active torsions:
REMARK  status: ('A' for Active; 'I' for Inactive)
REMARK    1  A    between atoms: C_2  and  C_4
REMARK    2  A    between atoms: C_9  and  O_10
REMARK    3  A    between atoms: O_10  and  C_11
REMARK    4  A    between atoms: C_11  and  C_12
REMARK                            x       y       z     vdW  Elec       q    Type
REMARK                         _______ _______ _______ _____ _____    ______ ____
ROOT
ATOM      1  C   UNL     1       2.751   2.413   0.000  0.00  0.00    +0.000 A 
ATOM      2  C   UNL     1       2.751   3.238   0.000  0.00  0.00    +0.000 A 
ATOM      3  C   UNL     1       3.466   3.651   0.000  0.00  0.00    +0.000 A 
ATOM      4  C   UNL     1       4.180   3.238   0.000  0.00  0.00    +0.000 A 
ATOM      5  C   UNL     1       4.180   2.413   0.000  0.00  0.00    +0.000 A 
ATOM      6  C   UNL     1       3.466   2.001   0.000  0.00  0.00    +0.000 A 
ENDROOT
BRANCH   1   8
ATOM      7  C   UNL     1       1.322   2.413   0.000  0.00  0.00    +0.000 C 
ATOM      8  C   UNL     1       2.037   2.001   0.000  0.00  0.00    +0.000 C 
ATOM      9  C   UNL     1       2.037   1.176   0.000  0.00  0.00    +0.000 C 
ENDBRANCH   1   8
BRANCH   6  10
ATOM     10  O   UNL     1       3.466   1.176   0.000  0.00  0.00    +0.000 OA
BRANCH  10  11
ATOM     11  C   UNL     1       4.180   0.763   0.000  0.00  0.00    +0.000 C 
BRANCH  11  12
ATOM     12  C   UNL     1       4.180  -0.062   0.000  0.00  0.00    +0.000 C 
ATOM     13  N   UNL     1       4.848  -0.546   0.000  0.00  0.00    +0.000 NA
ATOM     14  C   UNL     1       4.593  -1.331   0.000  0.00  0.00    +0.000 C 
ATOM     15  C   UNL     1       3.768  -1.331   0.000  0.00  0.00    +0.000 C 
ATOM     16  N   UNL     1       3.513  -0.546   0.000  0.00  0.00    +0.000 NA
ENDBRANCH  11  12
ENDBRANCH  10  11
ENDBRANCH   6  10
TORSDOF 4
