REMARK  Name = 
REMARK  6 active torsions:
REMARK  status: ('A' for Active; 'I' for Inactive)
REMARK    1  A    between atoms: C_6  and  O_22
REMARK    2  A    between atoms: N_11  and  C_12
REMARK    3  A    between atoms: C_15  and  C_18
REMARK    4  A    between atoms: O_22  and  C_23
REMARK    5  A    between atoms: C_27  and  C_29
REMARK    6  A    between atoms: C_31  and  C_34
REMARK                            x       y       z     vdW  Elec       q    Type
REMARK                         _______ _______ _______ _____ _____    ______ ____
ROOT
ATOM      1  C   UNL     1       0.884   0.754   0.000  0.00  0.00    +0.000 C 
ATOM      2  N   UNL     1       1.139  -0.030   0.000  0.00  0.00    +0.000 N 
ATOM      3  C   UNL     1       1.923  -0.285   0.000  0.00  0.00    +0.000 A 
ATOM      4  C   UNL     1       2.638   0.127   0.000  0.00  0.00    +0.000 A 
ATOM      5  C   UNL     1       3.352  -0.285   0.000  0.00  0.00    +0.000 A 
ATOM      6  C   UNL     1       3.352  -1.110   0.000  0.00  0.00    +0.000 A 
ATOM      7  C   UNL     1       2.638  -1.523   0.000  0.00  0.00    +0.000 A 
ATOM      8  C   UNL     1       1.923  -1.110   0.000  0.00  0.00    +0.000 A 
ATOM      9  N   UNL     1       1.139  -1.365   0.000  0.00  0.00    +0.000 NA
ATOM     10  C   UNL     1       0.654  -0.698   0.000  0.00  0.00    +0.000 A 
ATOM     11  N   UNL     1      -0.171  -0.698   0.000  0.00  0.00    +0.000 NA
ENDROOT
BRANCH  11  12
ATOM     12  C   UNL     1      -0.584   0.017   0.000  0.00  0.00    +0.000 A 
ATOM     13  C   UNL     1      -1.409   0.017   0.000  0.00  0.00    +0.000 A 
ATOM     14  C   UNL     1      -1.821   0.731   0.000  0.00  0.00    +0.000 A 
ATOM     15  C   UNL     1      -1.409   1.446   0.000  0.00  0.00    +0.000 A 
ATOM     16  C   UNL     1      -0.584   1.446   0.000  0.00  0.00    +0.000 A 
ATOM     17  C   UNL     1      -0.171   0.731   0.000  0.00  0.00    +0.000 A 
BRANCH  15  18
ATOM     18  C   UNL     1      -1.821   2.160   0.000  0.00  0.00    +0.000 C 
ATOM     19  F   UNL     1      -2.234   2.874   0.000  0.00  0.00    +0.000 F 
ATOM     20  F   UNL     1      -2.536   1.747   0.000  0.00  0.00    +0.000 F 
ATOM     21  F   UNL     1      -1.107   2.572   0.000  0.00  0.00    +0.000 F 
ENDBRANCH  15  18
ENDBRANCH  11  12
BRANCH   6  22
ATOM     22  O   UNL     1       4.067  -1.523   0.000  0.00  0.00    +0.000 OA
BRANCH  22  23
ATOM     23  C   UNL     1       4.781  -1.110   0.000  0.00  0.00    +0.000 A 
ATOM     24  C   UNL     1       4.781  -0.285   0.000  0.00  0.00    +0.000 A 
ATOM     25  C   UNL     1       5.496   0.127   0.000  0.00  0.00    +0.000 A 
ATOM     26  N   UNL     1       6.210  -0.285   0.000  0.00  0.00    +0.000 NA
ATOM     27  C   UNL     1       6.210  -1.110   0.000  0.00  0.00    +0.000 A 
ATOM     28  C   UNL     1       5.496  -1.523   0.000  0.00  0.00    +0.000 A 
BRANCH  27  29
ATOM     29  C   UNL     1       6.925  -1.523   0.000  0.00  0.00    +0.000 A 
ATOM     30  N   UNL     1       7.678  -1.187   0.000  0.00  0.00    +0.000 NA
ATOM     31  C   UNL     1       8.230  -1.800   0.000  0.00  0.00    +0.000 A 
ATOM     32  C   UNL     1       7.818  -2.515   0.000  0.00  0.00    +0.000 A 
ATOM     33  N   UNL     1       7.011  -2.343   0.000  0.00  0.00    +0.000 NA
BRANCH  31  34
ATOM     34  C   UNL     1       9.051  -1.714   0.000  0.00  0.00    +0.000 C 
ATOM     35  F   UNL     1       9.871  -1.628   0.000  0.00  0.00    +0.000 F 
ATOM     36  F   UNL     1       9.137  -2.535   0.000  0.00  0.00    +0.000 F 
ATOM     37  F   UNL     1       8.965  -0.894   0.000  0.00  0.00    +0.000 F 
ENDBRANCH  31  34
ENDBRANCH  27  29
ENDBRANCH  22  23
ENDBRANCH   6  22
TORSDOF 6
