REMARK  Name = 
REMARK  5 active torsions:
REMARK  status: ('A' for Active; 'I' for Inactive)
REMARK    1  A    between atoms: O_2  and  C_3
REMARK    2  A    between atoms: C_3  and  C_5
REMARK    3  A    between atoms: C_11  and  C_12
REMARK    4  A    between atoms: N_19  and  C_20
REMARK    5  A    between atoms: C_20  and  C_21
REMARK                            x       y       z     vdW  Elec       q    Type
REMARK                         _______ _______ _______ _____ _____    ______ ____
ROOT
ATOM      1  C   UNL     1       2.430   0.932   0.000  0.00  0.00    +0.000 C 
ATOM      2  C   UNL     1       1.626   1.115   0.000  0.00  0.00    +0.000 C 
ATOM      3  C   UNL     1       0.981   0.601   0.000  0.00  0.00    +0.000 C 
ATOM      4  C   UNL     1       0.981  -0.224   0.000  0.00  0.00    +0.000 C 
ATOM      5  C   UNL     1       1.626  -0.738   0.000  0.00  0.00    +0.000 C 
ATOM      6  C   UNL     1       2.430  -0.555   0.000  0.00  0.00    +0.000 C 
ATOM      7  C   UNL     1       2.788   0.189   0.000  0.00  0.00    +0.000 C 
ATOM      8  N   UNL     1       1.394   0.189   0.000  0.00  0.00    +0.000 NA
ENDROOT
BRANCH   7   9
ATOM      9  C   UNL     1       3.613   0.189   0.000  0.00  0.00    +0.000 A 
ATOM     10  C   UNL     1       4.026   0.903   0.000  0.00  0.00    +0.000 A 
ATOM     11  C   UNL     1       4.851   0.903   0.000  0.00  0.00    +0.000 A 
ATOM     12  C   UNL     1       5.263   0.189   0.000  0.00  0.00    +0.000 A 
ATOM     13  F   UNL     1       6.088   0.189   0.000  0.00  0.00    +0.000 F 
ATOM     14  C   UNL     1       4.851  -0.526   0.000  0.00  0.00    +0.000 A 
ATOM     15  C   UNL     1       4.026  -0.526   0.000  0.00  0.00    +0.000 A 
ENDBRANCH   7   9
BRANCH   1  16
ATOM     16  C   UNL     1       2.944   1.577   0.000  0.00  0.00    +0.000 C 
ATOM     17  O   UNL     1       3.760   1.454   0.000  0.00  0.00    +0.000 OA
BRANCH  16  19
ATOM     18  C   UNL     1       3.157   2.990   0.000  0.00  0.00    +0.000 C 
ATOM     19  O   UNL     1       2.643   2.345   0.000  0.00  0.00    +0.000 OA
ENDBRANCH  16  19
ENDBRANCH   1  16
BRANCH   8  20
ATOM     20  C   UNL     1       0.569   0.189   0.000  0.00  0.00    +0.000 C 
BRANCH  20  21
ATOM     21  C   UNL     1       0.157  -0.526   0.000  0.00  0.00    +0.000 C 
ATOM     22  C   UNL     1      -0.668  -0.526   0.000  0.00  0.00    +0.000 C 
ATOM     23  I   UNL     1      -1.081  -1.240   0.000  0.00  0.00    +0.000 I 
ENDBRANCH  20  21
ENDBRANCH   8  20
TORSDOF 5
