REMARK  Name = 
REMARK  5 active torsions:
REMARK  status: ('A' for Active; 'I' for Inactive)
REMARK    1  A    between atoms: C_1  and  C_8
REMARK    2  A    between atoms: C_2  and  S_7
REMARK    3  A    between atoms: C_9  and  O_13
REMARK    4  A    between atoms: O_13  and  C_18
REMARK    5  A    between atoms: C_14  and  C_18
REMARK                            x       y       z     vdW  Elec       q    Type
REMARK                         _______ _______ _______ _____ _____    ______ ____
ROOT
ATOM      1  C   UNL     1       0.224  -1.142   0.000  0.00  0.00    +0.000 C 
ATOM      2  C   UNL     1       1.052  -1.142   0.000  0.00  0.00    +0.000 C 
ATOM      3  C   UNL     1       1.300  -1.929   0.000  0.00  0.00    +0.000 C 
ATOM      4  O   UNL     1       0.638  -2.425   0.000  0.00  0.00    +0.000 OA
ATOM      5  C   UNL     1      -0.024  -1.929   0.000  0.00  0.00    +0.000 C 
ATOM      6  O   UNL     1       2.087  -2.177   0.000  0.00  0.00    +0.000 OA
ATOM      7  C   UNL     1      -0.579  -2.540   0.000  0.00  0.00    +0.000 C 
ATOM      8  C   UNL     1      -0.831  -1.754   0.000  0.00  0.00    +0.000 C 
ENDROOT
BRANCH   1   9
ATOM      9  C   UNL     1      -0.190  -0.438   0.000  0.00  0.00    +0.000 A 
ATOM     10  C   UNL     1      -1.018   1.011   0.000  0.00  0.00    +0.000 A 
ATOM     11  C   UNL     1      -0.190   1.011   0.000  0.00  0.00    +0.000 A 
ATOM     12  C   UNL     1       0.224   0.307   0.000  0.00  0.00    +0.000 A 
ATOM     13  C   UNL     1      -1.018  -0.438   0.000  0.00  0.00    +0.000 A 
ATOM     14  C   UNL     1      -1.432   0.307   0.000  0.00  0.00    +0.000 A 
BRANCH  10  15
ATOM     15  S   UNL     1      -1.432   1.715   0.000  0.00  0.00    +0.000 S 
ATOM     16  C   UNL     1      -2.257   1.701   0.000  0.00  0.00    +0.000 C 
ATOM     17  O   UNL     1      -1.446   2.540   0.000  0.00  0.00    +0.000 OA
ATOM     18  O   UNL     1      -0.725   2.139   0.000  0.00  0.00    +0.000 OA
ENDBRANCH  10  15
ENDBRANCH   1   9
BRANCH   2  19
ATOM     19  O   UNL     1       1.549  -0.479   0.000  0.00  0.00    +0.000 OA
BRANCH  19  20
ATOM     20  C   UNL     1       1.136   0.235   0.000  0.00  0.00    +0.000 C 
BRANCH  20  21
ATOM     21  C   UNL     1       1.549   0.949   0.000  0.00  0.00    +0.000 C 
ATOM     22  C   UNL     1       1.549   1.763   0.000  0.00  0.00    +0.000 C 
ATOM     23  C   UNL     1       2.257   1.350   0.000  0.00  0.00    +0.000 C 
ENDBRANCH  20  21
ENDBRANCH  19  20
ENDBRANCH   2  19
TORSDOF 5
