REMARK  Name = 
REMARK  4 active torsions:
REMARK  status: ('A' for Active; 'I' for Inactive)
REMARK    1  A    between atoms: N_1  and  C_7
REMARK    2  A    between atoms: C_9  and  O_12
REMARK    3  A    between atoms: C_10  and  C_16
REMARK    4  A    between atoms: O_12  and  P_18
REMARK                            x       y       z     vdW  Elec       q    Type
REMARK                         _______ _______ _______ _____ _____    ______ ____
ROOT
ATOM      1  C   UNL     1      -0.970  -0.305   0.000  0.00  0.00    +0.000 C 
ATOM      2  O   UNL     1      -1.638  -0.789   0.000  0.00  0.00    +0.000 OA
ATOM      3  C   UNL     1      -0.303  -0.789   0.000  0.00  0.00    +0.000 C 
ATOM      4  C   UNL     1      -1.383  -1.574   0.000  0.00  0.00    +0.000 C 
ATOM      5  C   UNL     1      -0.558  -1.574   0.000  0.00  0.00    +0.000 C 
ATOM      6  O   UNL     1      -0.073  -2.242   0.000  0.00  0.00    +0.000 OA
ENDROOT
BRANCH   1   7
ATOM      7  N   UNL     1      -0.970   0.520   0.000  0.00  0.00    +0.000 N 
ATOM      8  C   UNL     1      -0.256   0.933   0.000  0.00  0.00    +0.000 A 
ATOM      9  C   UNL     1      -1.685   0.933   0.000  0.00  0.00    +0.000 A 
ATOM     10  N   UNL     1      -0.256   1.758   0.000  0.00  0.00    +0.000 NA
ATOM     11  C   UNL     1      -0.970   2.170   0.000  0.00  0.00    +0.000 A 
ATOM     12  C   UNL     1      -1.685   1.758   0.000  0.00  0.00    +0.000 A 
ATOM     13  O   UNL     1       0.459   0.520   0.000  0.00  0.00    +0.000 OA
ATOM     14  N   UNL     1      -0.970   2.995   0.000  0.00  0.00    +0.000 NA
ENDBRANCH   1   7
BRANCH   4  15
ATOM     15  C   UNL     1      -1.868  -2.242   0.000  0.00  0.00    +0.000 C 
ATOM     16  O   UNL     1      -1.532  -2.995   0.000  0.00  0.00    +0.000 OA
ENDBRANCH   4  15
BRANCH   3  17
ATOM     17  O   UNL     1       0.439  -0.427   0.000  0.00  0.00    +0.000 OA
BRANCH  17  18
ATOM     18  P   UNL     1       1.153  -0.840   0.000  0.00  0.00    +0.000 P 
ATOM     19  O   UNL     1       1.868  -0.427   0.000  0.00  0.00    +0.000 OA
ATOM     20  O   UNL     1       1.153  -1.665   0.000  0.00  0.00    +0.000 OA
ATOM     21  O   UNL     1       1.367  -0.043   0.000  0.00  0.00    +0.000 OA
ENDBRANCH  17  18
ENDBRANCH   3  17
TORSDOF 4
