REMARK  Name = 
REMARK  3 active torsions:
REMARK  status: ('A' for Active; 'I' for Inactive)
REMARK    1  A    between atoms: S_1  and  C_2
REMARK    2  A    between atoms: N_3  and  N_8
REMARK    3  A    between atoms: C_6  and  C_11
REMARK                            x       y       z     vdW  Elec       q    Type
REMARK                         _______ _______ _______ _____ _____    ______ ____
ROOT
ATOM      1  C   UNL     1      -0.739  -0.525   0.000  0.00  0.00    +0.000 C 
ATOM      2  N   UNL     1      -0.271   0.123   0.000  0.00  0.00    +0.000 NA
ATOM      3  O   UNL     1      -1.534  -0.550   0.000  0.00  0.00    +0.000 OA
ENDROOT
BRANCH   2   4
ATOM      4  N   UNL     1      -0.696   0.875   0.000  0.00  0.00    +0.000 NA
ATOM      5  C   UNL     1      -1.668   1.781   0.000  0.00  0.00    +0.000 C 
ATOM      6  C   UNL     1      -0.980   2.164   0.000  0.00  0.00    +0.000 C 
ATOM      7  C   UNL     1      -0.974   2.999   0.000  0.00  0.00    +0.000 C 
ATOM      8  C   UNL     1      -2.386   2.201   0.000  0.00  0.00    +0.000 C 
ATOM      9  C   UNL     1      -1.506   0.961   0.000  0.00  0.00    +0.000 C 
ATOM     10  C   UNL     1      -0.379   1.603   0.000  0.00  0.00    +0.000 C 
ATOM     11  C   UNL     1      -1.875   2.939   0.000  0.00  0.00    +0.000 C 
ATOM     12  C   UNL     1      -1.680   3.409   0.000  0.00  0.00    +0.000 C 
ATOM     13  C   UNL     1      -2.368   3.026   0.000  0.00  0.00    +0.000 C 
ENDBRANCH   2   4
BRANCH   1  16
ATOM     14  C   UNL     1       0.873  -2.037   0.000  0.00  0.00    +0.000 A 
ATOM     15  C   UNL     1       0.446  -1.286   0.000  0.00  0.00    +0.000 A 
ATOM     16  C   UNL     1      -0.328  -1.248   0.000  0.00  0.00    +0.000 A 
ATOM     17  C   UNL     1       0.478  -2.694   0.000  0.00  0.00    +0.000 A 
ATOM     18  C   UNL     1      -0.752  -1.968   0.000  0.00  0.00    +0.000 A 
ATOM     19  C   UNL     1      -0.332  -2.706   0.000  0.00  0.00    +0.000 A 
ATOM     20 CL   UNL     1       0.894  -3.409   0.000  0.00  0.00    +0.000 Cl
BRANCH  14  21
ATOM     21  S   UNL     1       1.698  -2.046   0.000  0.00  0.00    +0.000 S 
ATOM     22  O   UNL     1       1.692  -1.115   0.000  0.00  0.00    +0.000 OA
ATOM     23  O   UNL     1       1.689  -2.871   0.000  0.00  0.00    +0.000 OA
ATOM     24  N   UNL     1       2.386  -2.096   0.000  0.00  0.00    +0.000 NA
ENDBRANCH  14  21
ENDBRANCH   1  16
TORSDOF 3
