REMARK  Name = 
REMARK  8 active torsions:
REMARK  status: ('A' for Active; 'I' for Inactive)
REMARK    1  A    between atoms: O_2  and  C_3
REMARK    2  A    between atoms: C_8  and  C_9
REMARK    3  A    between atoms: N_11  and  C_12
REMARK    4  A    between atoms: C_12  and  C_13
REMARK    5  A    between atoms: N_16  and  C_19
REMARK    6  A    between atoms: C_19  and  C_20
REMARK    7  A    between atoms: C_20  and  C_21
REMARK    8  A    between atoms: C_21  and  N_22
REMARK                            x       y       z     vdW  Elec       q    Type
REMARK                         _______ _______ _______ _____ _____    ______ ____
ROOT
ATOM      1  C   UNL     1      -0.821   8.478   0.000  0.00  0.00    +0.000 C 
ENDROOT
BRANCH   1   2
ATOM      2  C   UNL     1      -0.107   8.065   0.000  0.00  0.00    +0.000 C 
ATOM      3  C   UNL     1       0.608   8.478   0.000  0.00  0.00    +0.000 C 
ATOM      4  C   UNL     1       1.322   8.065   0.000  0.00  0.00    +0.000 C 
ATOM      5  N   UNL     1       1.322   7.240   0.000  0.00  0.00    +0.000 NA
ATOM      6  C   UNL     1       0.608   6.828   0.000  0.00  0.00    +0.000 C 
ATOM      7  C   UNL     1      -0.107   7.240   0.000  0.00  0.00    +0.000 C 
BRANCH   5   8
ATOM      8  C   UNL     1       2.037   6.828   0.000  0.00  0.00    +0.000 C 
BRANCH   8   9
ATOM      9  C   UNL     1       2.037   6.003   0.000  0.00  0.00    +0.000 C 
BRANCH   9  10
ATOM     10  C   UNL     1       2.751   5.590   0.000  0.00  0.00    +0.000 C 
BRANCH  10  11
ATOM     11  N   UNL     1       2.751   4.765   0.000  0.00  0.00    +0.000 N 
ATOM     12  C   UNL     1       3.419   4.280   0.000  0.00  0.00    +0.000 A 
ATOM     13  C   UNL     1       3.164   3.496   0.000  0.00  0.00    +0.000 A 
ATOM     14  N   UNL     1       2.339   3.496   0.000  0.00  0.00    +0.000 NA
ATOM     15  N   UNL     1       2.084   4.280   0.000  0.00  0.00    +0.000 NA
ENDBRANCH  10  11
ENDBRANCH   9  10
ENDBRANCH   8   9
ENDBRANCH   5   8
ENDBRANCH   1   2
BRANCH   1  18
ATOM     16  C   UNL     1      -1.536   9.715   0.000  0.00  0.00    +0.000 C 
ATOM     17  O   UNL     1      -2.250   9.303   0.000  0.00  0.00    +0.000 OA
ATOM     18  N   UNL     1      -0.821   9.303   0.000  0.00  0.00    +0.000 NA
BRANCH  16  24
ATOM     19  C   UNL     1      -2.250  10.953   0.000  0.00  0.00    +0.000 A 
ATOM     20  C   UNL     1      -2.250  11.778   0.000  0.00  0.00    +0.000 A 
ATOM     21  C   UNL     1      -1.536  12.190   0.000  0.00  0.00    +0.000 A 
ATOM     22  C   UNL     1      -0.821  11.778   0.000  0.00  0.00    +0.000 A 
ATOM     23  C   UNL     1      -0.821  10.953   0.000  0.00  0.00    +0.000 A 
ATOM     24  C   UNL     1      -1.536  10.540   0.000  0.00  0.00    +0.000 A 
ATOM     25 CL   UNL     1      -0.107  12.190   0.000  0.00  0.00    +0.000 Cl
ATOM     26  N   UNL     1      -1.536  13.015   0.000  0.00  0.00    +0.000 NA
BRANCH  19  28
ATOM     27  C   UNL     1      -2.965   9.715   0.000  0.00  0.00    +0.000 C 
ATOM     28  O   UNL     1      -2.965  10.540   0.000  0.00  0.00    +0.000 OA
ENDBRANCH  19  28
ENDBRANCH  16  24
ENDBRANCH   1  18
TORSDOF 8
