REMARK  Name = 
REMARK  6 active torsions:
REMARK  status: ('A' for Active; 'I' for Inactive)
REMARK    1  A    between atoms: C_2  and  C_4
REMARK    2  A    between atoms: N_8  and  C_9
REMARK    3  A    between atoms: C_9  and  C_10
REMARK    4  A    between atoms: C_18  and  N_19
REMARK    5  A    between atoms: N_19  and  C_20
REMARK    6  A    between atoms: C_20  and  C_21
REMARK                            x       y       z     vdW  Elec       q    Type
REMARK                         _______ _______ _______ _____ _____    ______ ____
ROOT
ATOM      1  C   UNL     1       1.139  -0.030   0.000  0.00  0.00    +0.000 A 
ATOM      2  C   UNL     1       1.923  -0.285   0.000  0.00  0.00    +0.000 A 
ATOM      3  N   UNL     1       2.638   0.127   0.000  0.00  0.00    +0.000 NA
ATOM      4  C   UNL     1       3.352  -0.285   0.000  0.00  0.00    +0.000 A 
ATOM      5  N   UNL     1       4.067   0.127   0.000  0.00  0.00    +0.000 NA
ATOM      6  C   UNL     1       3.352  -1.110   0.000  0.00  0.00    +0.000 A 
ATOM      7  C   UNL     1       2.638  -1.523   0.000  0.00  0.00    +0.000 A 
ATOM      8  N   UNL     1       1.923  -1.110   0.000  0.00  0.00    +0.000 N 
ATOM      9  N   UNL     1       1.139  -1.365   0.000  0.00  0.00    +0.000 NA
ATOM     10  C   UNL     1       0.654  -0.698   0.000  0.00  0.00    +0.000 A 
ENDROOT
BRANCH   1  12
ATOM     11  C   UNL     1       0.077   0.926   0.000  0.00  0.00    +0.000 C 
ATOM     12  C   UNL     1       0.884   0.754   0.000  0.00  0.00    +0.000 C 
ATOM     13  C   UNL     1       1.436   1.367   0.000  0.00  0.00    +0.000 C 
ENDBRANCH   1  12
BRANCH   5  14
ATOM     14  C   UNL     1       4.067   0.952   0.000  0.00  0.00    +0.000 C 
BRANCH  14  15
ATOM     15  C   UNL     1       4.781   1.365   0.000  0.00  0.00    +0.000 C 
ATOM     16  C   UNL     1       4.781   2.190   0.000  0.00  0.00    +0.000 C 
ATOM     17  C   UNL     1       5.496   2.602   0.000  0.00  0.00    +0.000 C 
ATOM     18  N   UNL     1       6.210   2.190   0.000  0.00  0.00    +0.000 NA
ATOM     19  C   UNL     1       6.210   1.365   0.000  0.00  0.00    +0.000 C 
ATOM     20  C   UNL     1       5.496   0.952   0.000  0.00  0.00    +0.000 C 
ATOM     21  O   UNL     1       5.496   0.127   0.000  0.00  0.00    +0.000 OA
ENDBRANCH  14  15
ENDBRANCH   5  14
BRANCH   7  22
ATOM     22  N   UNL     1       2.638  -2.348   0.000  0.00  0.00    +0.000 NA
BRANCH  22  23
ATOM     23  C   UNL     1       3.352  -2.760   0.000  0.00  0.00    +0.000 C 
BRANCH  23  24
ATOM     24  C   UNL     1       3.352  -3.585   0.000  0.00  0.00    +0.000 A 
ATOM     25  C   UNL     1       4.067  -3.998   0.000  0.00  0.00    +0.000 A 
ATOM     26  C   UNL     1       4.067  -4.823   0.000  0.00  0.00    +0.000 A 
ATOM     27  C   UNL     1       3.352  -5.235   0.000  0.00  0.00    +0.000 A 
ATOM     28  C   UNL     1       2.638  -4.823   0.000  0.00  0.00    +0.000 A 
ATOM     29  C   UNL     1       2.638  -3.998   0.000  0.00  0.00    +0.000 A 
ENDBRANCH  23  24
ENDBRANCH  22  23
ENDBRANCH   7  22
TORSDOF 6
