REMARK  Name = 
REMARK  12 active torsions:
REMARK  status: ('A' for Active; 'I' for Inactive)
REMARK    1  A    between atoms: C_1  and  O_22
REMARK    2  A    between atoms: C_3  and  C_10
REMARK    3  A    between atoms: C_6  and  O_7
REMARK    4  A    between atoms: O_7  and  C_11
REMARK    5  A    between atoms: O_22  and  C_46
REMARK    6  A    between atoms: C_27  and  O_40
REMARK    7  A    between atoms: C_35  and  C_49
REMARK    8  A    between atoms: C_37  and  C_39
REMARK    9  A    between atoms: C_39  and  O_40
REMARK   10  A    between atoms: C_39  and  C_60
REMARK   11  A    between atoms: C_52  and  C_61
REMARK   12  A    between atoms: C_60  and  C_61
REMARK                            x       y       z     vdW  Elec       q    Type
REMARK                         _______ _______ _______ _____ _____    ______ ____
ROOT
ATOM      1  C   UNL     1      -0.038   0.082   0.000  0.00  0.00    +0.000 C 
ATOM      2  C   UNL     1      -0.750  -0.335   0.000  0.00  0.00    +0.000 C 
ATOM      3  C   UNL     1      -2.175  -0.347   0.000  0.00  0.00    +0.000 C 
ATOM      4  C   UNL     1      -1.466   0.074   0.000  0.00  0.00    +0.000 C 
ATOM      5  C   UNL     1      -0.038   0.907   0.000  0.00  0.00    +0.000 C 
ATOM      6  C   UNL     1      -2.167  -1.172   0.000  0.00  0.00    +0.000 C 
ATOM      7  C   UNL     1      -2.875  -1.589   0.000  0.00  0.00    +0.000 C 
ATOM      8  C   UNL     1      -0.762   1.319   0.000  0.00  0.00    +0.000 C 
ATOM      9  C   UNL     1       0.746   1.161   0.000  0.00  0.00    +0.000 C 
ATOM     10  C   UNL     1      -1.479   0.903   0.000  0.00  0.00    +0.000 C 
ATOM     11  O   UNL     1      -4.304  -1.605   0.000  0.00  0.00    +0.000 OA
ATOM     12  C   UNL     1      -3.591  -1.185   0.000  0.00  0.00    +0.000 C 
ATOM     13  C   UNL     1       0.746  -0.176   0.000  0.00  0.00    +0.000 C 
ATOM     14  C   UNL     1      -0.742  -1.160   0.000  0.00  0.00    +0.000 C 
ATOM     15  C   UNL     1      -2.887   0.065   0.000  0.00  0.00    +0.000 C 
ATOM     16  C   UNL     1      -1.450  -1.576   0.000  0.00  0.00    +0.000 C 
ATOM     17  C   UNL     1       1.229   0.490   0.000  0.00  0.00    +0.000 C 
ATOM     18  C   UNL     1      -3.600  -0.360   0.000  0.00  0.00    +0.000 C 
ATOM     19  C   UNL     1      -0.038  -0.743   0.000  0.00  0.00    +0.000 C 
ATOM     20  O   UNL     1      -0.766   2.144   0.000  0.00  0.00    +0.000 OA
ATOM     21  C   UNL     1      -0.758   0.494   0.000  0.00  0.00    +0.000 C 
ATOM     22  C   UNL     1      -2.187   0.482   0.000  0.00  0.00    +0.000 C 
ATOM     23  C   UNL     1      -2.867  -2.413   0.000  0.00  0.00    +0.000 C 
ATOM     24  C   UNL     1      -3.591  -1.997   0.000  0.00  0.00    +0.000 C 
ENDROOT
BRANCH   9  25
ATOM     25  C   UNL     1       0.737   1.986   0.000  0.00  0.00    +0.000 C 
ATOM     26  C   UNL     1       0.725   2.811   0.000  0.00  0.00    +0.000 C 
BRANCH  25  27
ATOM     27  O   UNL     1       0.017   2.390   0.000  0.00  0.00    +0.000 OA
BRANCH  27  28
ATOM     28  C   UNL     1       0.021   3.215   0.000  0.00  0.00    +0.000 C 
ATOM     29  C   UNL     1      -0.692   3.624   0.000  0.00  0.00    +0.000 C 
ATOM     30  C   UNL     1      -0.696   4.444   0.000  0.00  0.00    +0.000 C 
ATOM     31  O   UNL     1       0.737   3.624   0.000  0.00  0.00    +0.000 OA
ATOM     32  C   UNL     1       0.012   4.861   0.000  0.00  0.00    +0.000 C 
ATOM     33  C   UNL     1       0.729   4.449   0.000  0.00  0.00    +0.000 C 
ATOM     34  O   UNL     1      -1.408   3.207   0.000  0.00  0.00    +0.000 OA
ATOM     35  O   UNL     1      -1.412   4.853   0.000  0.00  0.00    +0.000 OA
ATOM     36  O   UNL     1       0.008   5.686   0.000  0.00  0.00    +0.000 OA
BRANCH  33  38
ATOM     37  O   UNL     1       1.433   5.698   0.000  0.00  0.00    +0.000 OA
ATOM     38  C   UNL     1       1.442   4.865   0.000  0.00  0.00    +0.000 C 
ENDBRANCH  33  38
ENDBRANCH  27  28
ENDBRANCH  25  27
BRANCH  25  39
ATOM     39  C   UNL     1       1.446   2.411   0.000  0.00  0.00    +0.000 C 
BRANCH  39  40
ATOM     40  C   UNL     1       2.167   2.007   0.000  0.00  0.00    +0.000 C 
BRANCH  40  42
ATOM     41  C   UNL     1       3.596   2.028   0.000  0.00  0.00    +0.000 C 
ATOM     42  C   UNL     1       2.875   2.428   0.000  0.00  0.00    +0.000 C 
ATOM     43  C   UNL     1       3.604   1.203   0.000  0.00  0.00    +0.000 C 
ATOM     44  C   UNL     1       4.304   2.449   0.000  0.00  0.00    +0.000 C 
ENDBRANCH  40  42
ENDBRANCH  39  40
ENDBRANCH  25  39
ENDBRANCH   9  25
BRANCH  16  45
ATOM     45  O   UNL     1      -1.442  -2.401   0.000  0.00  0.00    +0.000 OA
BRANCH  45  46
ATOM     46  C   UNL     1      -1.439  -3.226   0.000  0.00  0.00    +0.000 C 
ATOM     47  O   UNL     1      -2.150  -3.637   0.000  0.00  0.00    +0.000 OA
ATOM     48  C   UNL     1      -2.150  -4.459   0.000  0.00  0.00    +0.000 C 
ATOM     49  C   UNL     1      -1.437  -4.873   0.000  0.00  0.00    +0.000 C 
ATOM     50  C   UNL     1      -0.721  -4.460   0.000  0.00  0.00    +0.000 C 
ATOM     51  C   UNL     1      -0.720  -3.633   0.000  0.00  0.00    +0.000 C 
ATOM     52  O   UNL     1      -0.007  -4.873   0.000  0.00  0.00    +0.000 OA
ATOM     53  O   UNL     1      -1.438  -5.698   0.000  0.00  0.00    +0.000 OA
BRANCH  48  54
ATOM     54  C   UNL     1      -2.865  -4.870   0.000  0.00  0.00    +0.000 C 
ATOM     55  O   UNL     1      -2.866  -5.695   0.000  0.00  0.00    +0.000 OA
ENDBRANCH  48  54
BRANCH  51  56
ATOM     56  O   UNL     1      -0.007  -3.218   0.000  0.00  0.00    +0.000 OA
BRANCH  56  57
ATOM     57  C   UNL     1       0.709  -3.628   0.000  0.00  0.00    +0.000 C 
ATOM     58  O   UNL     1       0.710  -4.453   0.000  0.00  0.00    +0.000 OA
ATOM     59  C   UNL     1       1.422  -4.863   0.000  0.00  0.00    +0.000 C 
ATOM     60  C   UNL     1       2.137  -4.451   0.000  0.00  0.00    +0.000 C 
ATOM     61  C   UNL     1       2.136  -3.625   0.000  0.00  0.00    +0.000 C 
ATOM     62  C   UNL     1       1.420  -3.211   0.000  0.00  0.00    +0.000 C 
ATOM     63  O   UNL     1       2.851  -3.213   0.000  0.00  0.00    +0.000 OA
ATOM     64  O   UNL     1       2.852  -4.864   0.000  0.00  0.00    +0.000 OA
ATOM     65  C   UNL     1       1.422  -5.688   0.000  0.00  0.00    +0.000 C 
ATOM     66  O   UNL     1       1.418  -2.386   0.000  0.00  0.00    +0.000 OA
ENDBRANCH  56  57
ENDBRANCH  51  56
ENDBRANCH  45  46
ENDBRANCH  16  45
TORSDOF 12
