REMARK  Name = 
REMARK  8 active torsions:
REMARK  status: ('A' for Active; 'I' for Inactive)
REMARK    1  A    between atoms: C_1  and  C_3
REMARK    2  A    between atoms: C_1  and  C_4
REMARK    3  A    between atoms: C_2  and  C_5
REMARK    4  A    between atoms: C_2  and  C_6
REMARK    5  A    between atoms: C_20  and  O_24
REMARK    6  A    between atoms: O_24  and  C_25
REMARK    7  A    between atoms: C_25  and  C_26
REMARK    8  A    between atoms: C_26  and  N_27
REMARK                            x       y       z     vdW  Elec       q    Type
REMARK                         _______ _______ _______ _____ _____    ______ ____
ROOT
ATOM      1  C   UNL     1      -1.811  -0.184   0.000  0.00  0.00    +0.000 C 
ATOM      2  C   UNL     1      -2.518   0.229   0.000  0.00  0.00    +0.000 C 
ENDROOT
BRANCH   1   3
ATOM      3  C   UNL     1      -1.811  -1.057   0.000  0.00  0.00    +0.000 A 
ATOM      4  C   UNL     1      -1.107  -1.418   0.000  0.00  0.00    +0.000 A 
ATOM      5  C   UNL     1      -2.529  -1.418   0.000  0.00  0.00    +0.000 A 
ATOM      6  C   UNL     1      -1.107  -2.274   0.000  0.00  0.00    +0.000 A 
ATOM      7  C   UNL     1      -2.529  -2.274   0.000  0.00  0.00    +0.000 A 
ATOM      8  C   UNL     1      -1.835  -2.693   0.000  0.00  0.00    +0.000 A 
ATOM      9  O   UNL     1      -0.390  -2.690   0.000  0.00  0.00    +0.000 OA
ENDBRANCH   1   3
BRANCH   1  10
ATOM     10  C   UNL     1      -1.066   0.229   0.000  0.00  0.00    +0.000 A 
ATOM     11  C   UNL     1      -0.362  -0.184   0.000  0.00  0.00    +0.000 A 
ATOM     12  C   UNL     1      -1.066   1.054   0.000  0.00  0.00    +0.000 A 
ATOM     13  C   UNL     1       0.359   0.229   0.000  0.00  0.00    +0.000 A 
ATOM     14  C   UNL     1      -0.362   1.476   0.000  0.00  0.00    +0.000 A 
ATOM     15  C   UNL     1       0.359   1.054   0.000  0.00  0.00    +0.000 A 
BRANCH  15  16
ATOM     16  O   UNL     1       1.087   1.497   0.000  0.00  0.00    +0.000 OA
BRANCH  16  17
ATOM     17  C   UNL     1       1.821   1.081   0.000  0.00  0.00    +0.000 C 
BRANCH  17  18
ATOM     18  C   UNL     1       2.542   1.497   0.000  0.00  0.00    +0.000 C 
BRANCH  18  19
ATOM     19  N   UNL     1       3.256   1.102   0.000  0.00  0.00    +0.000 NA
ATOM     20  C   UNL     1       3.957   1.497   0.000  0.00  0.00    +0.000 C 
ATOM     21  C   UNL     1       3.256   0.229   0.000  0.00  0.00    +0.000 C 
ENDBRANCH  18  19
ENDBRANCH  17  18
ENDBRANCH  16  17
ENDBRANCH  15  16
ENDBRANCH   1  10
BRANCH   2  22
ATOM     22  C   UNL     1      -2.518   1.054   0.000  0.00  0.00    +0.000 A 
ATOM     23  C   UNL     1      -1.808   1.459   0.000  0.00  0.00    +0.000 A 
ATOM     24  C   UNL     1      -3.229   1.456   0.000  0.00  0.00    +0.000 A 
ATOM     25  C   UNL     1      -1.808   2.277   0.000  0.00  0.00    +0.000 A 
ATOM     26  C   UNL     1      -3.232   2.274   0.000  0.00  0.00    +0.000 A 
ATOM     27  C   UNL     1      -2.518   2.693   0.000  0.00  0.00    +0.000 A 
ENDBRANCH   2  22
BRANCH   2  28
ATOM     28  C   UNL     1      -3.246  -0.184   0.000  0.00  0.00    +0.000 C 
ATOM     29  C   UNL     1      -3.957   0.236   0.000  0.00  0.00    +0.000 C 
ENDBRANCH   2  28
TORSDOF 8
