REMARK  Name = 
REMARK  9 active torsions:
REMARK  status: ('A' for Active; 'I' for Inactive)
REMARK    1  A    between atoms: C_3  and  C_10
REMARK    2  A    between atoms: C_10  and  O_11
REMARK    3  A    between atoms: O_11  and  P_12
REMARK    4  A    between atoms: P_12  and  N_14
REMARK    5  A    between atoms: P_12  and  N_18
REMARK    6  A    between atoms: N_14  and  C_15
REMARK    7  A    between atoms: C_15  and  C_16
REMARK    8  A    between atoms: N_18  and  C_19
REMARK    9  A    between atoms: C_19  and  C_20
REMARK                            x       y       z     vdW  Elec       q    Type
REMARK                         _______ _______ _______ _____ _____    ______ ____
ROOT
ATOM      1  O   UNL     1       2.191   1.691   0.000  0.00  0.00    +0.000 OA
ENDROOT
BRANCH   1   2
ATOM      2  P   UNL     1       2.976   1.946   0.000  0.00  0.00    +0.000 P 
ATOM      3  O   UNL     1       3.231   1.162   0.000  0.00  0.00    +0.000 OA
BRANCH   2   4
ATOM      4  N   UNL     1       3.761   2.201   0.000  0.00  0.00    +0.000 NA
BRANCH   4   5
ATOM      5  C   UNL     1       4.374   1.649   0.000  0.00  0.00    +0.000 C 
BRANCH   5   6
ATOM      6  C   UNL     1       4.202   0.842   0.000  0.00  0.00    +0.000 C 
ATOM      7 BR   UNL     1       4.815   0.290   0.000  0.00  0.00    +0.000 Br
ENDBRANCH   5   6
ENDBRANCH   4   5
ENDBRANCH   2   4
BRANCH   2   8
ATOM      8  N   UNL     1       2.721   2.731   0.000  0.00  0.00    +0.000 NA
BRANCH   8   9
ATOM      9  C   UNL     1       3.273   3.344   0.000  0.00  0.00    +0.000 C 
BRANCH   9  10
ATOM     10  C   UNL     1       4.080   3.172   0.000  0.00  0.00    +0.000 C 
ATOM     11 BR   UNL     1       4.632   3.785   0.000  0.00  0.00    +0.000 Br
ENDBRANCH   9  10
ENDBRANCH   8   9
ENDBRANCH   2   8
ENDBRANCH   1   2
BRANCH   1  12
ATOM     12  C   UNL     1       2.020   0.884   0.000  0.00  0.00    +0.000 C 
BRANCH  12  15
ATOM     13  C   UNL     1       0.568   1.939   0.000  0.00  0.00    +0.000 C 
ATOM     14  N   UNL     1       0.568   1.114   0.000  0.00  0.00    +0.000 N 
ATOM     15  C   UNL     1       1.235   0.629   0.000  0.00  0.00    +0.000 A 
ATOM     16  C   UNL     1       0.980  -0.155   0.000  0.00  0.00    +0.000 A 
ATOM     17  N   UNL     1       0.155  -0.155   0.000  0.00  0.00    +0.000 NA
ATOM     18  C   UNL     1      -0.100   0.629   0.000  0.00  0.00    +0.000 A 
ATOM     19  N   UNL     1      -0.884   0.884   0.000  0.00  0.00    +0.000 N 
ATOM     20  O   UNL     1      -1.497   0.332   0.000  0.00  0.00    +0.000 OA
ATOM     21  O   UNL     1      -1.056   1.691   0.000  0.00  0.00    +0.000 OA
ENDBRANCH  12  15
ENDBRANCH   1  12
TORSDOF 9
