REMARK  Name = 
REMARK  3 active torsions:
REMARK  status: ('A' for Active; 'I' for Inactive)
REMARK    1  A    between atoms: C_2  and  N_3
REMARK    2  A    between atoms: N_3  and  C_4
REMARK    3  A    between atoms: C_4  and  C_5
REMARK                            x       y       z     vdW  Elec       q    Type
REMARK                         _______ _______ _______ _____ _____    ______ ____
ROOT
ATOM      1  C   UNL     1      -0.715  -1.238   0.000  0.00  0.00    +0.000 A 
ATOM      2  N   UNL     1       0.000  -1.650   0.000  0.00  0.00    +0.000 NA
ATOM      3  C   UNL     1       0.715  -1.238   0.000  0.00  0.00    +0.000 A 
ATOM      4  C   UNL     1       0.715  -0.412   0.000  0.00  0.00    +0.000 A 
ATOM      5  C   UNL     1       0.000   0.000   0.000  0.00  0.00    +0.000 A 
ATOM      6  O   UNL     1       0.000   0.825   0.000  0.00  0.00    +0.000 OA
ATOM      7  N   UNL     1      -0.715  -0.412   0.000  0.00  0.00    +0.000 N 
ATOM      8  C   UNL     1      -1.429   0.000   0.000  0.00  0.00    +0.000 C 
ATOM      9  C   UNL     1       1.429   0.000   0.000  0.00  0.00    +0.000 A 
ATOM     10 CL   UNL     1       1.429   0.825   0.000  0.00  0.00    +0.000 Cl
ATOM     11  C   UNL     1       2.143  -0.412   0.000  0.00  0.00    +0.000 A 
ATOM     12  C   UNL     1       2.143  -1.238   0.000  0.00  0.00    +0.000 A 
ATOM     13 CL   UNL     1       2.858  -1.650   0.000  0.00  0.00    +0.000 Cl
ATOM     14  C   UNL     1       1.429  -1.650   0.000  0.00  0.00    +0.000 A 
ATOM     15  O   UNL     1       1.429  -2.475   0.000  0.00  0.00    +0.000 OA
ENDROOT
BRANCH   1  16
ATOM     16  C   UNL     1      -1.429  -1.650   0.000  0.00  0.00    +0.000 C 
BRANCH  16  17
ATOM     17  N   UNL     1      -2.143  -1.238   0.000  0.00  0.00    +0.000 NA
BRANCH  17  19
ATOM     18  C   UNL     1      -3.572  -1.238   0.000  0.00  0.00    +0.000 C 
ATOM     19  C   UNL     1      -2.858  -1.650   0.000  0.00  0.00    +0.000 C 
ENDBRANCH  17  19
ENDBRANCH  16  17
ENDBRANCH   1  16
TORSDOF 3
