REMARK  Name = 
REMARK  7 active torsions:
REMARK  status: ('A' for Active; 'I' for Inactive)
REMARK    1  A    between atoms: C_2  and  C_3
REMARK    2  A    between atoms: C_3  and  C_4
REMARK    3  A    between atoms: C_3  and  C_6
REMARK    4  A    between atoms: C_6  and  C_7
REMARK    5  A    between atoms: C_6  and  N_9
REMARK    6  A    between atoms: N_9  and  S_10
REMARK    7  A    between atoms: S_10  and  C_13
REMARK                            x       y       z     vdW  Elec       q    Type
REMARK                         _______ _______ _______ _____ _____    ______ ____
ROOT
ATOM      1  N   UNL     1       0.568   2.764   0.000  0.00  0.00    +0.000 NA
ENDROOT
BRANCH   1   2
ATOM      2  S   UNL     1       0.568   1.939   0.000  0.00  0.00    +0.000 S 
ATOM      3  O   UNL     1      -0.257   1.939   0.000  0.00  0.00    +0.000 OA
ATOM      4  O   UNL     1       1.393   1.939   0.000  0.00  0.00    +0.000 OA
BRANCH   2   5
ATOM      5  C   UNL     1       0.568   1.114   0.000  0.00  0.00    +0.000 A 
ATOM      6  C   UNL     1       1.235   0.629   0.000  0.00  0.00    +0.000 A 
ATOM      7  C   UNL     1       0.980  -0.155   0.000  0.00  0.00    +0.000 A 
ATOM      8  C   UNL     1       0.155  -0.155   0.000  0.00  0.00    +0.000 A 
ATOM      9  S   UNL     1      -0.100   0.629   0.000  0.00  0.00    +0.000 S 
ATOM     10 CL   UNL     1      -0.330  -0.823   0.000  0.00  0.00    +0.000 Cl
ENDBRANCH   2   5
ENDBRANCH   1   2
BRANCH   1  11
ATOM     11  C   UNL     1       1.282   3.177   0.000  0.00  0.00    +0.000 C 
BRANCH  11  12
ATOM     12  C   UNL     1       1.997   2.764   0.000  0.00  0.00    +0.000 C 
ATOM     13  O   UNL     1       2.711   3.177   0.000  0.00  0.00    +0.000 OA
ENDBRANCH  11  12
BRANCH  11  14
ATOM     14  C   UNL     1       1.282   4.002   0.000  0.00  0.00    +0.000 C 
BRANCH  14  15
ATOM     15  C   UNL     1       0.568   4.414   0.000  0.00  0.00    +0.000 C 
ATOM     16  C   UNL     1      -0.147   4.002   0.000  0.00  0.00    +0.000 C 
ENDBRANCH  14  15
BRANCH  14  18
ATOM     17  C   UNL     1       1.997   5.239   0.000  0.00  0.00    +0.000 C 
ATOM     18  C   UNL     1       1.997   4.414   0.000  0.00  0.00    +0.000 C 
ENDBRANCH  14  18
ENDBRANCH  11  14
ENDBRANCH   1  11
TORSDOF 7
