REMARK  Name = 
REMARK  4 active torsions:
REMARK  status: ('A' for Active; 'I' for Inactive)
REMARK    1  A    between atoms: C_1  and  N_2
REMARK    2  A    between atoms: N_2  and  C_6
REMARK    3  A    between atoms: C_6  and  C_8
REMARK    4  A    between atoms: C_8  and  C_11
REMARK                            x       y       z     vdW  Elec       q    Type
REMARK                         _______ _______ _______ _____ _____    ______ ____
ROOT
ATOM      1  C   UNL     1      -0.703   0.206   0.000  0.00  0.00    +0.000 A 
ATOM      2  C   UNL     1      -0.698  -0.608   0.000  0.00  0.00    +0.000 A 
ATOM      3  C   UNL     1      -1.425  -1.016   0.000  0.00  0.00    +0.000 A 
ATOM      4  C   UNL     1      -1.415   0.628   0.000  0.00  0.00    +0.000 A 
ATOM      5  C   UNL     1      -2.138  -0.623   0.000  0.00  0.00    +0.000 A 
ATOM      6  C   UNL     1      -2.138   0.211   0.000  0.00  0.00    +0.000 A 
ATOM      7  I   UNL     1       0.015  -1.030   0.000  0.00  0.00    +0.000 I 
ATOM      8  N   UNL     1      -1.454  -1.869   0.000  0.00  0.00    +0.000 NA
ATOM      9  I   UNL     1      -1.430   1.456   0.000  0.00  0.00    +0.000 I 
ATOM     10  I   UNL     1      -2.850  -1.045   0.000  0.00  0.00    +0.000 I 
ENDROOT
BRANCH   1  11
ATOM     11  N   UNL     1       0.010   0.613   0.000  0.00  0.00    +0.000 N 
ATOM     12  C   UNL     1       0.010   1.456   0.000  0.00  0.00    +0.000 C 
ATOM     13  O   UNL     1      -0.713   1.849   0.000  0.00  0.00    +0.000 OA
ATOM     14  C   UNL     1       0.722   1.869   0.000  0.00  0.00    +0.000 C 
BRANCH  11  15
ATOM     15  C   UNL     1       0.708   0.240   0.000  0.00  0.00    +0.000 C 
BRANCH  15  16
ATOM     16  C   UNL     1       1.425   0.647   0.000  0.00  0.00    +0.000 C 
ATOM     17  C   UNL     1       1.425   1.456   0.000  0.00  0.00    +0.000 C 
BRANCH  16  18
ATOM     18  C   UNL     1       2.133   0.250   0.000  0.00  0.00    +0.000 C 
ATOM     19  O   UNL     1       2.152  -0.589   0.000  0.00  0.00    +0.000 OA
ATOM     20  O   UNL     1       2.850   0.662   0.000  0.00  0.00    +0.000 OA
ENDBRANCH  16  18
ENDBRANCH  15  16
ENDBRANCH  11  15
ENDBRANCH   1  11
TORSDOF 4
