REMARK  Name = 
REMARK  13 active torsions:
REMARK  status: ('A' for Active; 'I' for Inactive)
REMARK    1  A    between atoms: N_2  and  C_6
REMARK    2  A    between atoms: C_4  and  C_10
REMARK    3  A    between atoms: C_5  and  O_11
REMARK    4  A    between atoms: C_6  and  C_12
REMARK    5  A    between atoms: C_10  and  O_14
REMARK    6  A    between atoms: O_11  and  C_16
REMARK    7  A    between atoms: O_14  and  C_19
REMARK    8  A    between atoms: C_19  and  O_23
REMARK    9  A    between atoms: O_23  and  C_26
REMARK   10  A    between atoms: C_25  and  C_27
REMARK   11  A    between atoms: C_26  and  O_28
REMARK   12  A    between atoms: O_28  and  C_32
REMARK   13  A    between atoms: C_30  and  C_33
REMARK                            x       y       z     vdW  Elec       q    Type
REMARK                         _______ _______ _______ _____ _____    ______ ____
ROOT
ATOM      1  C   UNL     1       2.271   0.819   0.000  0.00  0.00    +0.000 A 
ATOM      2  N   UNL     1       2.009   1.601   0.000  0.00  0.00    +0.000 N 
ATOM      3  C   UNL     1       3.095   0.815   0.000  0.00  0.00    +0.000 A 
ATOM      4  C   UNL     1       1.857   0.105   0.000  0.00  0.00    +0.000 A 
ATOM      5  C   UNL     1       2.681   2.094   0.000  0.00  0.00    +0.000 A 
ATOM      6  N   UNL     1       3.353   1.601   0.000  0.00  0.00    +0.000 NA
ATOM      7  C   UNL     1       3.505   0.102   0.000  0.00  0.00    +0.000 A 
ATOM      8  C   UNL     1       2.268  -0.608   0.000  0.00  0.00    +0.000 A 
ATOM      9  C   UNL     1       3.091  -0.612   0.000  0.00  0.00    +0.000 A 
ENDROOT
BRANCH   4  10
ATOM     10  C   UNL     1       1.437  -0.605   0.000  0.00  0.00    +0.000 C 
ATOM     11  O   UNL     1       1.840  -1.321   0.000  0.00  0.00    +0.000 OA
BRANCH  10  12
ATOM     12  O   UNL     1       0.610  -0.598   0.000  0.00  0.00    +0.000 OA
BRANCH  12  13
ATOM     13  C   UNL     1       0.196  -1.308   0.000  0.00  0.00    +0.000 C 
ATOM     14  C   UNL     1       0.603  -2.021   0.000  0.00  0.00    +0.000 C 
BRANCH  13  15
ATOM     15  O   UNL     1      -0.627  -1.308   0.000  0.00  0.00    +0.000 OA
BRANCH  15  16
ATOM     16  C   UNL     1      -1.037  -2.018   0.000  0.00  0.00    +0.000 C 
ATOM     17  O   UNL     1      -0.627  -2.735   0.000  0.00  0.00    +0.000 OA
BRANCH  16  18
ATOM     18  O   UNL     1      -1.857  -2.018   0.000  0.00  0.00    +0.000 OA
BRANCH  18  19
ATOM     19  C   UNL     1      -2.271  -2.731   0.000  0.00  0.00    +0.000 C 
ATOM     20  C   UNL     1      -3.091  -2.731   0.000  0.00  0.00    +0.000 C 
ATOM     21  C   UNL     1      -1.857  -3.448   0.000  0.00  0.00    +0.000 C 
ATOM     22  C   UNL     1      -3.505  -3.448   0.000  0.00  0.00    +0.000 C 
ATOM     23  C   UNL     1      -2.268  -4.161   0.000  0.00  0.00    +0.000 C 
ATOM     24  C   UNL     1      -3.091  -4.161   0.000  0.00  0.00    +0.000 C 
ENDBRANCH  18  19
ENDBRANCH  16  18
ENDBRANCH  15  16
ENDBRANCH  13  15
ENDBRANCH  12  13
ENDBRANCH  10  12
ENDBRANCH   4  10
BRANCH   5  25
ATOM     25  O   UNL     1       2.681   2.921   0.000  0.00  0.00    +0.000 OA
BRANCH  25  26
ATOM     26  C   UNL     1       3.398   3.334   0.000  0.00  0.00    +0.000 C 
ATOM     27  C   UNL     1       3.398   4.161   0.000  0.00  0.00    +0.000 C 
ENDBRANCH  25  26
ENDBRANCH   5  25
BRANCH   2  28
ATOM     28  C   UNL     1       1.285   2.007   0.000  0.00  0.00    +0.000 C 
BRANCH  28  29
ATOM     29  C   UNL     1       0.576   1.580   0.000  0.00  0.00    +0.000 A 
ATOM     30  C   UNL     1      -0.152   1.983   0.000  0.00  0.00    +0.000 A 
ATOM     31  C   UNL     1       0.593   0.767   0.000  0.00  0.00    +0.000 A 
ATOM     32  C   UNL     1      -0.862   1.556   0.000  0.00  0.00    +0.000 A 
ATOM     33  C   UNL     1      -0.124   0.326   0.000  0.00  0.00    +0.000 A 
ATOM     34  C   UNL     1      -0.841   0.729   0.000  0.00  0.00    +0.000 A 
BRANCH  34  35
ATOM     35  C   UNL     1      -1.554   0.305   0.000  0.00  0.00    +0.000 A 
ATOM     36  C   UNL     1      -2.281   0.705   0.000  0.00  0.00    +0.000 A 
ATOM     37  C   UNL     1      -1.540  -0.522   0.000  0.00  0.00    +0.000 A 
ATOM     38  C   UNL     1      -2.988   0.281   0.000  0.00  0.00    +0.000 A 
ATOM     39  C   UNL     1      -2.250  -0.949   0.000  0.00  0.00    +0.000 A 
ATOM     40  C   UNL     1      -2.971  -0.550   0.000  0.00  0.00    +0.000 A 
BRANCH  36  41
ATOM     41  C   UNL     1      -2.295   1.535   0.000  0.00  0.00    +0.000 A 
ATOM     42  N   UNL     1      -2.964   2.011   0.000  0.00  0.00    +0.000 NA
ATOM     43  N   UNL     1      -1.627   2.035   0.000  0.00  0.00    +0.000 NA
ATOM     44  N   UNL     1      -2.723   2.804   0.000  0.00  0.00    +0.000 NA
ATOM     45  N   UNL     1      -1.895   2.817   0.000  0.00  0.00    +0.000 NA
ENDBRANCH  36  41
ENDBRANCH  34  35
ENDBRANCH  28  29
ENDBRANCH   2  28
TORSDOF 13
