REMARK  Name = 
REMARK  5 active torsions:
REMARK  status: ('A' for Active; 'I' for Inactive)
REMARK    1  A    between atoms: C_4  and  C_5
REMARK    2  A    between atoms: C_12  and  C_13
REMARK    3  A    between atoms: C_13  and  N_14
REMARK    4  A    between atoms: C_15  and  C_17
REMARK    5  A    between atoms: C_26  and  C_28
REMARK                            x       y       z     vdW  Elec       q    Type
REMARK                         _______ _______ _______ _____ _____    ______ ____
ROOT
ATOM      1  C   UNL     1       3.993   4.950   0.000  0.00  0.00    +0.000 C 
ATOM      2  O   UNL     1       3.279   4.537   0.000  0.00  0.00    +0.000 OA
ATOM      3  N   UNL     1       4.708   4.537   0.000  0.00  0.00    +0.000 N 
ATOM      4  C   UNL     1       5.422   4.950   0.000  0.00  0.00    +0.000 C 
ATOM      5  C   UNL     1       6.137   4.537   0.000  0.00  0.00    +0.000 C 
ATOM      6  C   UNL     1       6.137   3.712   0.000  0.00  0.00    +0.000 C 
ATOM      7  C   UNL     1       5.422   3.300   0.000  0.00  0.00    +0.000 C 
ATOM      8  C   UNL     1       4.708   3.712   0.000  0.00  0.00    +0.000 C 
ENDROOT
BRANCH   1  12
ATOM      9  C   UNL     1       4.891   7.712   0.000  0.00  0.00    +0.000 C 
ATOM     10  C   UNL     1       4.406   7.045   0.000  0.00  0.00    +0.000 A 
ATOM     11  N   UNL     1       4.661   6.260   0.000  0.00  0.00    +0.000 NA
ATOM     12  C   UNL     1       3.993   5.775   0.000  0.00  0.00    +0.000 A 
ATOM     13  C   UNL     1       3.326   6.260   0.000  0.00  0.00    +0.000 A 
ATOM     14  S   UNL     1       3.581   7.045   0.000  0.00  0.00    +0.000 S 
BRANCH  13  15
ATOM     15  C   UNL     1       2.541   6.005   0.000  0.00  0.00    +0.000 A 
ATOM     16  C   UNL     1       2.370   5.198   0.000  0.00  0.00    +0.000 A 
ATOM     17  C   UNL     1       1.585   4.943   0.000  0.00  0.00    +0.000 A 
ATOM     18  C   UNL     1       0.972   5.495   0.000  0.00  0.00    +0.000 A 
ATOM     19  F   UNL     1       0.188   5.240   0.000  0.00  0.00    +0.000 F 
ATOM     20  C   UNL     1       1.144   6.302   0.000  0.00  0.00    +0.000 A 
ATOM     21  C   UNL     1       1.928   6.557   0.000  0.00  0.00    +0.000 A 
ENDBRANCH  13  15
ENDBRANCH   1  12
BRANCH   8  22
ATOM     22  C   UNL     1       3.993   3.300   0.000  0.00  0.00    +0.000 C 
BRANCH  22  23
ATOM     23  N   UNL     1       3.993   2.475   0.000  0.00  0.00    +0.000 NA
ATOM     24  C   UNL     1       3.279   2.062   0.000  0.00  0.00    +0.000 C 
ATOM     25  O   UNL     1       2.564   2.475   0.000  0.00  0.00    +0.000 OA
BRANCH  24  26
ATOM     26  C   UNL     1       3.279   1.238   0.000  0.00  0.00    +0.000 A 
ATOM     27  C   UNL     1       3.993   0.825   0.000  0.00  0.00    +0.000 A 
ATOM     28  C   UNL     1       3.993   0.000   0.000  0.00  0.00    +0.000 A 
ATOM     29  C   UNL     1       3.279  -0.412   0.000  0.00  0.00    +0.000 A 
ATOM     30  C   UNL     1       2.564   0.000   0.000  0.00  0.00    +0.000 A 
ATOM     31  C   UNL     1       2.564   0.825   0.000  0.00  0.00    +0.000 A 
ATOM     32  C   UNL     1       1.780   1.080   0.000  0.00  0.00    +0.000 A 
ATOM     33  C   UNL     1       1.295   0.412   0.000  0.00  0.00    +0.000 A 
ATOM     34  O   UNL     1       1.780  -0.255   0.000  0.00  0.00    +0.000 OA
ENDBRANCH  24  26
ENDBRANCH  22  23
ENDBRANCH   8  22
TORSDOF 5
