REMARK  Name = 
REMARK  1 active torsions:
REMARK  status: ('A' for Active; 'I' for Inactive)
REMARK    1  A    between atoms: C_2  and  C_4
REMARK                            x       y       z     vdW  Elec       q    Type
REMARK                         _______ _______ _______ _____ _____    ______ ____
ROOT
ATOM      1  C   UNL     1       2.022  -2.112   0.000  0.00  0.00    +0.000 C 
ATOM      2  C   UNL     1       2.247  -1.318   0.000  0.00  0.00    +0.000 C 
ATOM      3  O   UNL     1       1.447  -1.520   0.000  0.00  0.00    +0.000 OA
ATOM      4  C   UNL     1       3.046  -1.115   0.000  0.00  0.00    +0.000 C 
ATOM      5  C   UNL     1       3.622  -1.706   0.000  0.00  0.00    +0.000 C 
ATOM      6  O   UNL     1       3.846  -0.913   0.000  0.00  0.00    +0.000 OA
ATOM      7  C   UNL     1       4.421  -1.504   0.000  0.00  0.00    +0.000 C 
ATOM      8  C   UNL     1       4.646  -0.710   0.000  0.00  0.00    +0.000 C 
ATOM      9  C   UNL     1       5.446  -0.507   0.000  0.00  0.00    +0.000 C 
ATOM     10  C   UNL     1       6.021  -1.099   0.000  0.00  0.00    +0.000 C 
ATOM     11  C   UNL     1       5.796  -1.893   0.000  0.00  0.00    +0.000 C 
ATOM     12  C   UNL     1       4.997  -2.095   0.000  0.00  0.00    +0.000 C 
ATOM     13  C   UNL     1       4.772  -2.889   0.000  0.00  0.00    +0.000 C 
ATOM     14  C   UNL     1       3.973  -3.092   0.000  0.00  0.00    +0.000 C 
ATOM     15  C   UNL     1       3.397  -2.500   0.000  0.00  0.00    +0.000 C 
ATOM     16  C   UNL     1       2.598  -2.703   0.000  0.00  0.00    +0.000 C 
ATOM     17  O   UNL     1       2.373  -3.497   0.000  0.00  0.00    +0.000 OA
ATOM     18  O   UNL     1       3.173  -3.294   0.000  0.00  0.00    +0.000 OA
ATOM     19  O   UNL     1       5.572  -2.686   0.000  0.00  0.00    +0.000 OA
ATOM     20  C   UNL     1       6.482  -2.351   0.000  0.00  0.00    +0.000 C 
ATOM     21  O   UNL     1       7.130  -1.841   0.000  0.00  0.00    +0.000 OA
ATOM     22  C   UNL     1       6.845  -1.067   0.000  0.00  0.00    +0.000 C 
ATOM     23  O   UNL     1       7.304  -0.381   0.000  0.00  0.00    +0.000 OA
ATOM     24  C   UNL     1       4.303  -0.687   0.000  0.00  0.00    +0.000 C 
ENDROOT
BRANCH   1  26
ATOM     25  C   UNL     1       0.637  -2.463   0.000  0.00  0.00    +0.000 C 
ATOM     26  C   UNL     1       1.431  -2.687   0.000  0.00  0.00    +0.000 C 
ATOM     27  C   UNL     1       1.634  -3.487   0.000  0.00  0.00    +0.000 C 
ENDBRANCH   1  26
TORSDOF 1
