REMARK  Name = 
REMARK  4 active torsions:
REMARK  status: ('A' for Active; 'I' for Inactive)
REMARK    1  A    between atoms: C_1  and  C_3
REMARK    2  A    between atoms: C_2  and  C_3
REMARK    3  A    between atoms: C_3  and  O_9
REMARK    4  A    between atoms: O_9  and  P_10
REMARK                            x       y       z     vdW  Elec       q    Type
REMARK                         _______ _______ _______ _____ _____    ______ ____
ROOT
ATOM      1  C   UNL     1       2.888  -0.715   0.000  0.00  0.00    +0.000 C 
ENDROOT
BRANCH   1   2
ATOM      2  C   UNL     1       3.712  -0.715   0.000  0.00  0.00    +0.000 C 
ATOM      3  O   UNL     1       4.125  -1.429   0.000  0.00  0.00    +0.000 OA
ENDBRANCH   1   2
BRANCH   1   4
ATOM      4  C   UNL     1       2.475  -1.429   0.000  0.00  0.00    +0.000 C 
ATOM      5  O   UNL     1       2.888  -2.143   0.000  0.00  0.00    +0.000 OA
ENDBRANCH   1   4
BRANCH   1   6
ATOM      6  O   UNL     1       2.475   0.000   0.000  0.00  0.00    +0.000 OA
BRANCH   6  10
ATOM      7  O   UNL     1       0.825   0.000   0.000  0.00  0.00    +0.000 OA
ATOM      8  O   UNL     1       1.650   0.825   0.000  0.00  0.00    +0.000 OA
ATOM      9  O   UNL     1       1.650  -0.825   0.000  0.00  0.00    +0.000 OA
ATOM     10  P   UNL     1       1.650   0.000   0.000  0.00  0.00    +0.000 P 
ENDBRANCH   6  10
ENDBRANCH   1   6
TORSDOF 4
REMARK  Name = 
REMARK  4 active torsions:
REMARK  status: ('A' for Active; 'I' for Inactive)
REMARK    1  A    between atoms: C_1  and  C_3
REMARK    2  A    between atoms: C_2  and  C_3
REMARK    3  A    between atoms: C_3  and  O_9
REMARK    4  A    between atoms: O_9  and  P_10
REMARK                            x       y       z     vdW  Elec       q    Type
REMARK                         _______ _______ _______ _____ _____    ______ ____
ROOT
ATOM      1 CA   UNL     1       0.000   0.000   0.000  0.00  0.00    +0.000 Ca
ENDROOT
TORSDOF 0
