REMARK  Name = 
REMARK  7 active torsions:
REMARK  status: ('A' for Active; 'I' for Inactive)
REMARK    1  A    between atoms: N_2  and  C_4
REMARK    2  A    between atoms: C_4  and  C_5
REMARK    3  A    between atoms: C_5  and  C_6
REMARK    4  A    between atoms: C_6  and  O_7
REMARK    5  A    between atoms: O_7  and  C_8
REMARK    6  A    between atoms: N_10  and  C_11
REMARK    7  A    between atoms: C_11  and  C_12
REMARK                            x       y       z     vdW  Elec       q    Type
REMARK                         _______ _______ _______ _____ _____    ______ ____
ROOT
ATOM      1  C   UNL     1       8.545   1.119   0.000  0.00  0.00    +0.000 A 
ATOM      2  N   UNL     1       9.299   1.455   0.000  0.00  0.00    +0.000 NA
ATOM      3  N   UNL     1       9.851   0.842   0.000  0.00  0.00    +0.000 N 
ATOM      4  C   UNL     1       9.438   0.127   0.000  0.00  0.00    +0.000 A 
ATOM      5  C   UNL     1       9.693  -0.657   0.000  0.00  0.00    +0.000 A 
ATOM      6  C   UNL     1       9.141  -1.270   0.000  0.00  0.00    +0.000 A 
ATOM      7  C   UNL     1       8.334  -1.099   0.000  0.00  0.00    +0.000 A 
ATOM      8  C   UNL     1       8.079  -0.314   0.000  0.00  0.00    +0.000 A 
ATOM      9  C   UNL     1       8.631   0.299   0.000  0.00  0.00    +0.000 A 
ENDROOT
BRANCH   3  10
ATOM     10  C   UNL     1      10.671   0.928   0.000  0.00  0.00    +0.000 C 
BRANCH  10  11
ATOM     11  C   UNL     1      11.156   0.261   0.000  0.00  0.00    +0.000 A 
ATOM     12  C   UNL     1      11.977   0.347   0.000  0.00  0.00    +0.000 A 
ATOM     13  C   UNL     1      12.462  -0.321   0.000  0.00  0.00    +0.000 A 
ATOM     14  C   UNL     1      12.126  -1.074   0.000  0.00  0.00    +0.000 A 
ATOM     15  C   UNL     1      11.306  -1.161   0.000  0.00  0.00    +0.000 A 
ATOM     16  C   UNL     1      10.821  -0.493   0.000  0.00  0.00    +0.000 A 
ENDBRANCH  10  11
ENDBRANCH   3  10
BRANCH   1  17
ATOM     17  O   UNL     1       7.831   1.532   0.000  0.00  0.00    +0.000 OA
BRANCH  17  18
ATOM     18  C   UNL     1       7.116   1.119   0.000  0.00  0.00    +0.000 C 
BRANCH  18  19
ATOM     19  C   UNL     1       6.402   1.532   0.000  0.00  0.00    +0.000 C 
BRANCH  19  20
ATOM     20  C   UNL     1       5.687   1.119   0.000  0.00  0.00    +0.000 C 
BRANCH  20  22
ATOM     21  C   UNL     1       4.258   1.119   0.000  0.00  0.00    +0.000 C 
ATOM     22  N   UNL     1       4.973   1.532   0.000  0.00  0.00    +0.000 NA
ATOM     23  C   UNL     1       4.973   2.357   0.000  0.00  0.00    +0.000 C 
ENDBRANCH  20  22
ENDBRANCH  19  20
ENDBRANCH  18  19
ENDBRANCH  17  18
ENDBRANCH   1  17
TORSDOF 7
