REMARK  Name = 
REMARK  7 active torsions:
REMARK  status: ('A' for Active; 'I' for Inactive)
REMARK    1  A    between atoms: C_15  and  N_24
REMARK    2  A    between atoms: C_16  and  S_35
REMARK    3  A    between atoms: C_17  and  C_21
REMARK    4  A    between atoms: C_18  and  N_25
REMARK    5  A    between atoms: C_20  and  S_34
REMARK    6  A    between atoms: N_25  and  S_34
REMARK    7  A    between atoms: N_26  and  S_35
REMARK                            x       y       z     vdW  Elec       q    Type
REMARK                         _______ _______ _______ _____ _____    ______ ____
ROOT
ATOM      1  C   UNL     1      -7.038   5.713   0.000  0.00  0.00    +0.000 C 
ATOM      2  N   UNL     1      -6.324   5.301   0.000  0.00  0.00    +0.000 NA
ATOM      3  O   UNL     1      -7.038   6.538   0.000  0.00  0.00    +0.000 OA
ENDROOT
BRANCH   1   8
ATOM      4  C   UNL     1      -9.181   4.476   0.000  0.00  0.00    +0.000 A 
ATOM      5  C   UNL     1      -8.467   4.063   0.000  0.00  0.00    +0.000 A 
ATOM      6  C   UNL     1      -8.467   5.713   0.000  0.00  0.00    +0.000 A 
ATOM      7  C   UNL     1      -9.181   5.301   0.000  0.00  0.00    +0.000 A 
ATOM      8  C   UNL     1      -7.753   5.301   0.000  0.00  0.00    +0.000 A 
ATOM      9  C   UNL     1      -7.753   4.476   0.000  0.00  0.00    +0.000 A 
ATOM     10 CL   UNL     1      -9.896   5.713   0.000  0.00  0.00    +0.000 Cl
BRANCH   9  11
ATOM     11  N   UNL     1      -7.038   4.063   0.000  0.00  0.00    +0.000 NA
BRANCH  11  14
ATOM     12  O   UNL     1      -6.213   3.238   0.000  0.00  0.00    +0.000 OA
ATOM     13  O   UNL     1      -7.863   3.238   0.000  0.00  0.00    +0.000 OA
ATOM     14  S   UNL     1      -7.038   3.238   0.000  0.00  0.00    +0.000 S 
BRANCH  14  18
ATOM     15  C   UNL     1      -6.625   1.144   0.000  0.00  0.00    +0.000 A 
ATOM     16  C   UNL     1      -6.371   1.929   0.000  0.00  0.00    +0.000 A 
ATOM     17  C   UNL     1      -7.450   1.144   0.000  0.00  0.00    +0.000 A 
ATOM     18  C   UNL     1      -7.038   2.413   0.000  0.00  0.00    +0.000 A 
ATOM     19 CL   UNL     1      -7.935   0.476   0.000  0.00  0.00    +0.000 Cl
ATOM     20  S   UNL     1      -7.705   1.929   0.000  0.00  0.00    +0.000 S 
ENDBRANCH  14  18
ENDBRANCH  11  14
ENDBRANCH   9  11
ENDBRANCH   1   8
BRANCH   2  25
ATOM     21  C   UNL     1      -4.895   5.301   0.000  0.00  0.00    +0.000 A 
ATOM     22  C   UNL     1      -5.609   6.538   0.000  0.00  0.00    +0.000 A 
ATOM     23  C   UNL     1      -4.180   5.713   0.000  0.00  0.00    +0.000 A 
ATOM     24  C   UNL     1      -4.895   6.951   0.000  0.00  0.00    +0.000 A 
ATOM     25  C   UNL     1      -5.609   5.713   0.000  0.00  0.00    +0.000 A 
ATOM     26  C   UNL     1      -4.180   6.538   0.000  0.00  0.00    +0.000 A 
BRANCH  26  29
ATOM     27  O   UNL     1      -3.053   6.236   0.000  0.00  0.00    +0.000 OA
ATOM     28  O   UNL     1      -3.878   7.665   0.000  0.00  0.00    +0.000 OA
ATOM     29  S   UNL     1      -3.466   6.951   0.000  0.00  0.00    +0.000 S 
BRANCH  29  34
ATOM     30  C   UNL     1      -2.037   6.951   0.000  0.00  0.00    +0.000 C 
ATOM     31  C   UNL     1      -2.751   8.188   0.000  0.00  0.00    +0.000 C 
ATOM     32  C   UNL     1      -1.322   7.363   0.000  0.00  0.00    +0.000 C 
ATOM     33  C   UNL     1      -2.037   8.601   0.000  0.00  0.00    +0.000 C 
ATOM     34  N   UNL     1      -2.751   7.363   0.000  0.00  0.00    +0.000 NA
ATOM     35  O   UNL     1      -1.322   8.188   0.000  0.00  0.00    +0.000 OA
ENDBRANCH  29  34
ENDBRANCH  26  29
ENDBRANCH   2  25
TORSDOF 7
