REMARK  Name = 
REMARK  8 active torsions:
REMARK  status: ('A' for Active; 'I' for Inactive)
REMARK    1  A    between atoms: C_2  and  C_3
REMARK    2  A    between atoms: C_3  and  C_4
REMARK    3  A    between atoms: C_4  and  C_6
REMARK    4  A    between atoms: C_4  and  C_11
REMARK    5  A    between atoms: C_6  and  O_7
REMARK    6  A    between atoms: O_7  and  N_8
REMARK    7  A    between atoms: C_11  and  O_12
REMARK    8  A    between atoms: O_12  and  N_13
REMARK                            x       y       z     vdW  Elec       q    Type
REMARK                         _______ _______ _______ _____ _____    ______ ____
ROOT
ATOM      1  C   UNL     1       1.540   0.412   0.000  0.00  0.00    +0.000 C 
ATOM      2  C   UNL     1       2.254   0.825   0.000  0.00  0.00    +0.000 C 
ENDROOT
BRANCH   1   3
ATOM      3  C   UNL     1       1.952  -0.302   0.000  0.00  0.00    +0.000 C 
BRANCH   3   4
ATOM      4  O   UNL     1       2.777  -0.302   0.000  0.00  0.00    +0.000 OA
BRANCH   4   5
ATOM      5  N   UNL     1       3.189  -1.016   0.000  0.00  0.00    +0.000 N 
ATOM      6  O   UNL     1       4.014  -1.016   0.000  0.00  0.00    +0.000 OA
ATOM      7  O   UNL     1       2.777  -1.731   0.000  0.00  0.00    +0.000 OA
ENDBRANCH   4   5
ENDBRANCH   3   4
ENDBRANCH   1   3
BRANCH   1   8
ATOM      8  C   UNL     1       0.825   0.000   0.000  0.00  0.00    +0.000 C 
BRANCH   8  10
ATOM      9  C   UNL     1      -0.604   0.000   0.000  0.00  0.00    +0.000 C 
ATOM     10  C   UNL     1       0.111   0.412   0.000  0.00  0.00    +0.000 C 
ENDBRANCH   8  10
ENDBRANCH   1   8
BRANCH   1  11
ATOM     11  C   UNL     1       1.127   1.127   0.000  0.00  0.00    +0.000 C 
BRANCH  11  12
ATOM     12  O   UNL     1       0.302   1.127   0.000  0.00  0.00    +0.000 OA
BRANCH  12  13
ATOM     13  N   UNL     1      -0.111   1.841   0.000  0.00  0.00    +0.000 N 
ATOM     14  O   UNL     1      -0.935   1.841   0.000  0.00  0.00    +0.000 OA
ATOM     15  O   UNL     1       0.302   2.556   0.000  0.00  0.00    +0.000 OA
ENDBRANCH  12  13
ENDBRANCH  11  12
ENDBRANCH   1  11
TORSDOF 8
