REMARK  Name = 
REMARK  7 active torsions:
REMARK  status: ('A' for Active; 'I' for Inactive)
REMARK    1  A    between atoms: C_4  and  C_25
REMARK    2  A    between atoms: C_6  and  C_7
REMARK    3  A    between atoms: C_7  and  N_8
REMARK    4  A    between atoms: C_11  and  N_14
REMARK    5  A    between atoms: N_14  and  C_15
REMARK    6  A    between atoms: C_28  and  C_33
REMARK    7  A    between atoms: C_29  and  C_30
REMARK                            x       y       z     vdW  Elec       q    Type
REMARK                         _______ _______ _______ _____ _____    ______ ____
ROOT
ATOM      1  N   UNL     1       0.394  -1.283   0.000  0.00  0.00    +0.000 NA
ATOM      2  C   UNL     1      -0.320  -1.696   0.000  0.00  0.00    +0.000 C 
ATOM      3  C   UNL     1      -1.034  -1.283   0.000  0.00  0.00    +0.000 C 
ATOM      4  C   UNL     1      -1.034  -0.458   0.000  0.00  0.00    +0.000 C 
ATOM      5  C   UNL     1      -0.320  -0.046   0.000  0.00  0.00    +0.000 C 
ATOM      6  C   UNL     1       0.394  -0.458   0.000  0.00  0.00    +0.000 C 
ENDROOT
BRANCH   1   7
ATOM      7  C   UNL     1       1.109  -1.696   0.000  0.00  0.00    +0.000 C 
BRANCH   7  13
ATOM      8  C   UNL     1       1.823  -0.458   0.000  0.00  0.00    +0.000 A 
ATOM      9  C   UNL     1       2.538  -0.046   0.000  0.00  0.00    +0.000 A 
ATOM     10  C   UNL     1       3.252  -0.458   0.000  0.00  0.00    +0.000 A 
ATOM     11  C   UNL     1       3.252  -1.283   0.000  0.00  0.00    +0.000 A 
ATOM     12  C   UNL     1       2.538  -1.696   0.000  0.00  0.00    +0.000 A 
ATOM     13  C   UNL     1       1.823  -1.283   0.000  0.00  0.00    +0.000 A 
ATOM     14  F   UNL     1       3.967  -0.046   0.000  0.00  0.00    +0.000 F 
BRANCH  11  15
ATOM     15  C   UNL     1       3.967  -1.696   0.000  0.00  0.00    +0.000 C 
ATOM     16  N   UNL     1       4.681  -2.108   0.000  0.00  0.00    +0.000 NA
ENDBRANCH  11  15
ENDBRANCH   7  13
ENDBRANCH   1   7
BRANCH   4  17
ATOM     17  N   UNL     1      -1.749  -0.046   0.000  0.00  0.00    +0.000 NA
BRANCH  17  18
ATOM     18  C   UNL     1      -1.749   0.779   0.000  0.00  0.00    +0.000 A 
ATOM     19  C   UNL     1      -2.463   1.192   0.000  0.00  0.00    +0.000 A 
ATOM     20  C   UNL     1      -3.248   0.937   0.000  0.00  0.00    +0.000 A 
ATOM     21  C   UNL     1      -3.733   1.604   0.000  0.00  0.00    +0.000 A 
ATOM     22  S   UNL     1      -3.248   2.272   0.000  0.00  0.00    +0.000 S 
ATOM     23  C   UNL     1      -2.463   2.017   0.000  0.00  0.00    +0.000 A 
ATOM     24  N   UNL     1      -1.749   2.429   0.000  0.00  0.00    +0.000 NA
ATOM     25  C   UNL     1      -1.034   2.017   0.000  0.00  0.00    +0.000 A 
ATOM     26  N   UNL     1      -1.034   1.192   0.000  0.00  0.00    +0.000 NA
ATOM     27 CL   UNL     1      -4.558   1.604   0.000  0.00  0.00    +0.000 Cl
ENDBRANCH  17  18
ENDBRANCH   4  17
TORSDOF 5
REMARK  Name = 
REMARK  7 active torsions:
REMARK  status: ('A' for Active; 'I' for Inactive)
REMARK    1  A    between atoms: C_4  and  C_25
REMARK    2  A    between atoms: C_6  and  C_7
REMARK    3  A    between atoms: C_7  and  N_8
REMARK    4  A    between atoms: C_11  and  N_14
REMARK    5  A    between atoms: N_14  and  C_15
REMARK    6  A    between atoms: C_28  and  C_33
REMARK    7  A    between atoms: C_29  and  C_30
REMARK                            x       y       z     vdW  Elec       q    Type
REMARK                         _______ _______ _______ _____ _____    ______ ____
ROOT
ATOM      1  C   UNL     1       8.512   0.000   0.000  0.00  0.00    +0.000 C 
ATOM      2  C   UNL     1       7.687   0.000   0.000  0.00  0.00    +0.000 C 
ENDROOT
BRANCH   2   3
ATOM      3  C   UNL     1       7.274  -0.715   0.000  0.00  0.00    +0.000 C 
ATOM      4  O   UNL     1       6.449  -0.715   0.000  0.00  0.00    +0.000 OA
ATOM      5  O   UNL     1       7.687  -1.429   0.000  0.00  0.00    +0.000 OA
ENDBRANCH   2   3
BRANCH   1   6
ATOM      6  C   UNL     1       8.924   0.715   0.000  0.00  0.00    +0.000 C 
ATOM      7  O   UNL     1       8.512   1.429   0.000  0.00  0.00    +0.000 OA
ATOM      8  O   UNL     1       9.749   0.715   0.000  0.00  0.00    +0.000 OA
ENDBRANCH   1   6
TORSDOF 2
