REMARK  Name = 
REMARK  3 active torsions:
REMARK  status: ('A' for Active; 'I' for Inactive)
REMARK    1  A    between atoms: O_3  and  C_12
REMARK    2  A    between atoms: O_3  and  C_13
REMARK    3  A    between atoms: C_10  and  C_13
REMARK                            x       y       z     vdW  Elec       q    Type
REMARK                         _______ _______ _______ _____ _____    ______ ____
ROOT
ATOM      1  F   UNL     1      -0.052  -3.094   0.000  0.00  0.00    +0.000 F 
ATOM      2  C   UNL     1       1.443  -0.780   0.000  0.00  0.00    +0.000 C 
ATOM      3  C   UNL     1       0.662  -1.031   0.000  0.00  0.00    +0.000 A 
ATOM      4  C   UNL     1       1.924  -1.444   0.000  0.00  0.00    +0.000 C 
ATOM      5  C   UNL     1       1.443  -2.108   0.000  0.00  0.00    +0.000 C 
ATOM      6  C   UNL     1       0.662  -1.856   0.000  0.00  0.00    +0.000 A 
ATOM      7  C   UNL     1      -0.052  -0.619   0.000  0.00  0.00    +0.000 A 
ATOM      8  C   UNL     1      -0.052  -2.269   0.000  0.00  0.00    +0.000 A 
ATOM      9  C   UNL     1      -0.767  -1.031   0.000  0.00  0.00    +0.000 A 
ATOM     10  C   UNL     1      -0.767  -1.856   0.000  0.00  0.00    +0.000 A 
ENDROOT
BRANCH   7  11
ATOM     11  O   UNL     1      -0.052   0.206   0.000  0.00  0.00    +0.000 OA
BRANCH  11  12
ATOM     12  C   UNL     1      -0.767   0.619   0.000  0.00  0.00    +0.000 C 
BRANCH  12  15
ATOM     13  O   UNL     1      -0.052   1.856   0.000  0.00  0.00    +0.000 OA
ATOM     14  N   UNL     1      -1.481   2.681   0.000  0.00  0.00    +0.000 NA
ATOM     15  C   UNL     1      -0.767   1.444   0.000  0.00  0.00    +0.000 C 
ATOM     16  C   UNL     1      -1.481   1.856   0.000  0.00  0.00    +0.000 C 
ATOM     17  C   UNL     1      -0.767   3.094   0.000  0.00  0.00    +0.000 C 
ATOM     18  C   UNL     1      -0.052   2.681   0.000  0.00  0.00    +0.000 C 
ATOM     19  H   UNL     1      -1.924   2.937   0.000  0.00  0.00    +0.000 HD
ENDBRANCH  12  15
ENDBRANCH  11  12
ENDBRANCH   7  11
TORSDOF 3
