REMARK  Name = 
REMARK  5 active torsions:
REMARK  status: ('A' for Active; 'I' for Inactive)
REMARK    1  A    between atoms: C_1  and  C_3
REMARK    2  A    between atoms: C_3  and  C_6
REMARK    3  A    between atoms: C_5  and  N_10
REMARK    4  A    between atoms: C_6  and  N_11
REMARK    5  A    between atoms: N_11  and  C_14
REMARK                            x       y       z     vdW  Elec       q    Type
REMARK                         _______ _______ _______ _____ _____    ______ ____
ROOT
ATOM      1  C   UNL     1      -0.316  -0.206   0.000  0.00  0.00    +0.000 A 
ATOM      2  C   UNL     1      -1.030   0.206   0.000  0.00  0.00    +0.000 A 
ATOM      3  C   UNL     1      -0.316  -1.031   0.000  0.00  0.00    +0.000 A 
ATOM      4  C   UNL     1      -1.745  -0.206   0.000  0.00  0.00    +0.000 A 
ATOM      5  C   UNL     1      -1.030  -1.444   0.000  0.00  0.00    +0.000 A 
ATOM      6  C   UNL     1      -1.745  -1.031   0.000  0.00  0.00    +0.000 A 
ATOM      7  O   UNL     1      -2.459  -1.444   0.000  0.00  0.00    +0.000 OA
ENDROOT
BRANCH   4   8
ATOM      8  N   UNL     1      -2.459   0.206   0.000  0.00  0.00    +0.000 NA
ATOM      9  C   UNL     1      -2.459   1.031   0.000  0.00  0.00    +0.000 C 
ATOM     10  N   UNL     1      -3.174   1.444   0.000  0.00  0.00    +0.000 NA
ATOM     11  O   UNL     1      -1.745   1.444   0.000  0.00  0.00    +0.000 OA
ENDBRANCH   4   8
BRANCH   1  12
ATOM     12  C   UNL     1       0.398   0.206   0.000  0.00  0.00    +0.000 C 
ATOM     13  O   UNL     1       0.398   1.032   0.000  0.00  0.00    +0.000 OA
BRANCH  12  14
ATOM     14  C   UNL     1       1.113  -0.206   0.000  0.00  0.00    +0.000 C 
BRANCH  14  15
ATOM     15  N   UNL     1       1.827   0.207   0.000  0.00  0.00    +0.000 NA
BRANCH  15  16
ATOM     16  C   UNL     1       2.542  -0.206   0.000  0.00  0.00    +0.000 C 
ATOM     17  C   UNL     1       3.125   0.378   0.000  0.00  0.00    +0.000 C 
ATOM     18  C   UNL     1       3.174  -0.736   0.000  0.00  0.00    +0.000 C 
ATOM     19  C   UNL     1       2.069  -0.882   0.000  0.00  0.00    +0.000 C 
ENDBRANCH  15  16
ENDBRANCH  14  15
ENDBRANCH  12  14
ENDBRANCH   1  12
TORSDOF 5
