REMARK  Name = 
REMARK  5 active torsions:
REMARK  status: ('A' for Active; 'I' for Inactive)
REMARK    1  A    between atoms: P_1  and  O_4
REMARK    2  A    between atoms: O_4  and  C_17
REMARK    3  A    between atoms: N_10  and  C_16
REMARK    4  A    between atoms: C_14  and  C_17
REMARK    5  A    between atoms: C_20  and  C_22
REMARK                            x       y       z     vdW  Elec       q    Type
REMARK                         _______ _______ _______ _____ _____    ______ ____
ROOT
ATOM      1  O   UNL     1       0.141  -0.670   0.000  0.00  0.00    +0.000 OA
ATOM      2  O   UNL     1      -1.424  -2.122   0.000  0.00  0.00    +0.000 OA
ATOM      3  C   UNL     1      -0.939  -1.454   0.000  0.00  0.00    +0.000 C 
ATOM      4  C   UNL     1      -0.114  -1.454   0.000  0.00  0.00    +0.000 C 
ATOM      5  C   UNL     1      -1.194  -0.670   0.000  0.00  0.00    +0.000 C 
ATOM      6  C   UNL     1      -0.526  -0.185   0.000  0.00  0.00    +0.000 C 
ENDROOT
BRANCH   6   8
ATOM      7  O   UNL     1       0.902   0.640   0.000  0.00  0.00    +0.000 OA
ATOM      8  N   UNL     1      -0.526   0.640   0.000  0.00  0.00    +0.000 N 
ATOM      9  N   UNL     1       0.188   1.877   0.000  0.00  0.00    +0.000 NA
ATOM     10  N   UNL     1      -0.526   3.115   0.000  0.00  0.00    +0.000 NA
ATOM     11  C   UNL     1      -1.241   1.052   0.000  0.00  0.00    +0.000 A 
ATOM     12  C   UNL     1       0.188   1.052   0.000  0.00  0.00    +0.000 A 
ATOM     13  C   UNL     1      -1.241   1.877   0.000  0.00  0.00    +0.000 A 
ATOM     14  C   UNL     1      -0.526   2.290   0.000  0.00  0.00    +0.000 A 
BRANCH  13  16
ATOM     15  O   UNL     1      -2.670   1.877   0.000  0.00  0.00    +0.000 OA
ATOM     16  C   UNL     1      -1.955   2.290   0.000  0.00  0.00    +0.000 C 
ENDBRANCH  13  16
ENDBRANCH   6   8
BRANCH   4  17
ATOM     17  C   UNL     1       0.371  -2.122   0.000  0.00  0.00    +0.000 C 
BRANCH  17  18
ATOM     18  O   UNL     1       1.191  -2.036   0.000  0.00  0.00    +0.000 OA
BRANCH  18  19
ATOM     19  P   UNL     1       1.676  -2.703   0.000  0.00  0.00    +0.000 P 
ATOM     20  O   UNL     1       2.161  -3.370   0.000  0.00  0.00    +0.000 OA
ATOM     21  O   UNL     1       2.344  -2.218   0.000  0.00  0.00    +0.000 OA
ATOM     22  O   UNL     1       1.009  -3.188   0.000  0.00  0.00    +0.000 OA
ENDBRANCH  18  19
ENDBRANCH  17  18
ENDBRANCH   4  17
TORSDOF 5
