REMARK  Name = 
REMARK  3 active torsions:
REMARK  status: ('A' for Active; 'I' for Inactive)
REMARK    1  A    between atoms: O_2  and  C_3
REMARK    2  A    between atoms: C_3  and  C_5
REMARK    3  A    between atoms: C_6  and  C_11
REMARK                            x       y       z     vdW  Elec       q    Type
REMARK                         _______ _______ _______ _____ _____    ______ ____
ROOT
ATOM      1  C   UNL     1       2.143  -0.412   0.000  0.00  0.00    +0.000 A 
ATOM      2  C   UNL     1       2.858   0.000   0.000  0.00  0.00    +0.000 A 
ATOM      3  C   UNL     1       3.572  -0.412   0.000  0.00  0.00    +0.000 A 
ATOM      4  C   UNL     1       4.287   0.000   0.000  0.00  0.00    +0.000 A 
ATOM      5  C   UNL     1       4.287   0.825   0.000  0.00  0.00    +0.000 A 
ATOM      6  N   UNL     1       5.001   1.238   0.000  0.00  0.00    +0.000 NA
ATOM      7  C   UNL     1       3.572   1.238   0.000  0.00  0.00    +0.000 A 
ATOM      8 BR   UNL     1       3.572   2.062   0.000  0.00  0.00    +0.000 Br
ATOM      9  C   UNL     1       2.858   0.825   0.000  0.00  0.00    +0.000 A 
ATOM     10  O   UNL     1       2.143   1.238   0.000  0.00  0.00    +0.000 OA
ATOM     11  C   UNL     1       1.429   0.825   0.000  0.00  0.00    +0.000 A 
ATOM     12  C   UNL     1       1.429   0.000   0.000  0.00  0.00    +0.000 A 
ATOM     13  C   UNL     1       0.715  -0.412   0.000  0.00  0.00    +0.000 A 
ATOM     14  C   UNL     1       0.000   0.000   0.000  0.00  0.00    +0.000 A 
ATOM     15  C   UNL     1       0.000   0.825   0.000  0.00  0.00    +0.000 A 
ATOM     16  N   UNL     1      -0.715   1.238   0.000  0.00  0.00    +0.000 NA
ATOM     17  C   UNL     1       0.715   1.238   0.000  0.00  0.00    +0.000 A 
ATOM     18 BR   UNL     1       0.715   2.062   0.000  0.00  0.00    +0.000 Br
ENDROOT
BRANCH   1  20
ATOM     19  C   UNL     1       1.429  -1.650   0.000  0.00  0.00    +0.000 A 
ATOM     20  C   UNL     1       2.143  -1.238   0.000  0.00  0.00    +0.000 A 
ATOM     21  C   UNL     1       2.858  -1.650   0.000  0.00  0.00    +0.000 A 
ATOM     22  C   UNL     1       2.858  -2.475   0.000  0.00  0.00    +0.000 A 
ATOM     23  C   UNL     1       2.143  -2.888   0.000  0.00  0.00    +0.000 A 
ATOM     24  C   UNL     1       1.429  -2.475   0.000  0.00  0.00    +0.000 A 
BRANCH  19  25
ATOM     25  C   UNL     1       0.715  -1.238   0.000  0.00  0.00    +0.000 C 
ATOM     26  O   UNL     1       0.230  -0.570   0.000  0.00  0.00    +0.000 OA
BRANCH  25  28
ATOM     27  C   UNL     1      -0.715  -1.238   0.000  0.00  0.00    +0.000 C 
ATOM     28  O   UNL     1       0.000  -1.650   0.000  0.00  0.00    +0.000 OA
ENDBRANCH  25  28
ENDBRANCH  19  25
ENDBRANCH   1  20
TORSDOF 3
