REMARK  Name = 
REMARK  6 active torsions:
REMARK  status: ('A' for Active; 'I' for Inactive)
REMARK    1  A    between atoms: C_1  and  C_2
REMARK    2  A    between atoms: C_1  and  N_4
REMARK    3  A    between atoms: N_4  and  P_5
REMARK    4  A    between atoms: P_5  and  N_7
REMARK    5  A    between atoms: N_7  and  C_8
REMARK    6  A    between atoms: C_8  and  C_9
REMARK                            x       y       z     vdW  Elec       q    Type
REMARK                         _______ _______ _______ _____ _____    ______ ____
ROOT
ATOM      1  P   UNL     1       0.825   0.000   0.000  0.00  0.00    +0.000 P 
ATOM      2  O   UNL     1       1.650   0.000   0.000  0.00  0.00    +0.000 OA
ATOM      3  O   UNL     1       0.000   0.000   0.000  0.00  0.00    +0.000 OA
ENDROOT
BRANCH   1   4
ATOM      4  N   UNL     1       0.825  -0.825   0.000  0.00  0.00    +0.000 NA
BRANCH   4   5
ATOM      5  C   UNL     1       1.540  -1.238   0.000  0.00  0.00    +0.000 C 
BRANCH   5   6
ATOM      6  C   UNL     1       1.540  -2.062   0.000  0.00  0.00    +0.000 C 
ATOM      7 CL   UNL     1       2.254  -2.475   0.000  0.00  0.00    +0.000 Cl
ENDBRANCH   5   6
ENDBRANCH   4   5
ENDBRANCH   1   4
BRANCH   1   8
ATOM      8  N   UNL     1       0.825   0.825   0.000  0.00  0.00    +0.000 NA
BRANCH   8   9
ATOM      9  C   UNL     1       0.111   1.238   0.000  0.00  0.00    +0.000 C 
BRANCH   9  10
ATOM     10  C   UNL     1       0.111   2.062   0.000  0.00  0.00    +0.000 C 
ATOM     11 CL   UNL     1      -0.604   2.475   0.000  0.00  0.00    +0.000 Cl
ENDBRANCH   9  10
ENDBRANCH   8   9
ENDBRANCH   1   8
TORSDOF 6
