REMARK  Name = 
REMARK  5 active torsions:
REMARK  status: ('A' for Active; 'I' for Inactive)
REMARK    1  A    between atoms: C_3  and  C_4
REMARK    2  A    between atoms: C_9  and  N_11
REMARK    3  A    between atoms: N_14  and  C_22
REMARK    4  A    between atoms: C_25  and  O_26
REMARK    5  A    between atoms: O_26  and  C_27
REMARK                            x       y       z     vdW  Elec       q    Type
REMARK                         _______ _______ _______ _____ _____    ______ ____
ROOT
ATOM      1  N   UNL     1       1.139  -1.365   0.000  0.00  0.00    +0.000 N 
ATOM      2  C   UNL     1       0.654  -0.698   0.000  0.00  0.00    +0.000 A 
ATOM      3  O   UNL     1      -0.171  -0.698   0.000  0.00  0.00    +0.000 OA
ATOM      4  N   UNL     1       1.139  -0.030   0.000  0.00  0.00    +0.000 N 
ATOM      5  C   UNL     1       1.923  -0.285   0.000  0.00  0.00    +0.000 A 
ATOM      6  C   UNL     1       2.638   0.127   0.000  0.00  0.00    +0.000 A 
ATOM      7  N   UNL     1       2.638   0.952   0.000  0.00  0.00    +0.000 NA
ATOM      8  N   UNL     1       3.352  -0.285   0.000  0.00  0.00    +0.000 NA
ATOM      9  C   UNL     1       3.352  -1.110   0.000  0.00  0.00    +0.000 A 
ATOM     10  N   UNL     1       2.638  -1.523   0.000  0.00  0.00    +0.000 NA
ATOM     11  C   UNL     1       1.923  -1.110   0.000  0.00  0.00    +0.000 A 
ENDROOT
BRANCH   1  17
ATOM     12  C   UNL     1       1.139  -4.269   0.000  0.00  0.00    +0.000 C 
ATOM     13  O   UNL     1       1.946  -4.441   0.000  0.00  0.00    +0.000 OA
ATOM     14  N   UNL     1       0.884  -3.485   0.000  0.00  0.00    +0.000 N 
ATOM     15  C   UNL     1       0.099  -3.230   0.000  0.00  0.00    +0.000 C 
ATOM     16  C   UNL     1       0.099  -2.405   0.000  0.00  0.00    +0.000 C 
ATOM     17  C   UNL     1       0.884  -2.150   0.000  0.00  0.00    +0.000 C 
ATOM     18  C   UNL     1       1.369  -2.817   0.000  0.00  0.00    +0.000 C 
BRANCH  12  21
ATOM     19  C   UNL     1      -0.517  -6.109   0.000  0.00  0.00    +0.000 C 
ATOM     20  C   UNL     1       0.035  -5.496   0.000  0.00  0.00    +0.000 C 
ATOM     21  C   UNL     1       0.587  -4.883   0.000  0.00  0.00    +0.000 C 
ENDBRANCH  12  21
ENDBRANCH   1  17
BRANCH   4  22
ATOM     22  C   UNL     1       0.884   0.754   0.000  0.00  0.00    +0.000 A 
ATOM     23  C   UNL     1       0.077   0.926   0.000  0.00  0.00    +0.000 A 
ATOM     24  C   UNL     1      -0.178   1.710   0.000  0.00  0.00    +0.000 A 
ATOM     25  C   UNL     1       0.374   2.323   0.000  0.00  0.00    +0.000 A 
ATOM     26  C   UNL     1       1.181   2.152   0.000  0.00  0.00    +0.000 A 
ATOM     27  C   UNL     1       1.436   1.367   0.000  0.00  0.00    +0.000 A 
BRANCH  25  28
ATOM     28  O   UNL     1       0.119   3.108   0.000  0.00  0.00    +0.000 OA
BRANCH  28  29
ATOM     29  C   UNL     1       0.671   3.721   0.000  0.00  0.00    +0.000 A 
ATOM     30  C   UNL     1       0.416   4.506   0.000  0.00  0.00    +0.000 A 
ATOM     31  C   UNL     1       0.968   5.119   0.000  0.00  0.00    +0.000 A 
ATOM     32  C   UNL     1       1.775   4.947   0.000  0.00  0.00    +0.000 A 
ATOM     33  C   UNL     1       2.030   4.163   0.000  0.00  0.00    +0.000 A 
ATOM     34  C   UNL     1       1.478   3.550   0.000  0.00  0.00    +0.000 A 
ENDBRANCH  28  29
ENDBRANCH  25  28
ENDBRANCH   4  22
TORSDOF 5
