REMARK  Name = 
REMARK  4 active torsions:
REMARK  status: ('A' for Active; 'I' for Inactive)
REMARK    1  A    between atoms: C_3  and  S_24
REMARK    2  A    between atoms: C_9  and  C_11
REMARK    3  A    between atoms: C_11  and  C_12
REMARK    4  A    between atoms: C_15  and  C_18
REMARK                            x       y       z     vdW  Elec       q    Type
REMARK                         _______ _______ _______ _____ _____    ______ ____
ROOT
ATOM      1  C   UNL     1       2.751  -4.187   0.000  0.00  0.00    +0.000 C 
ATOM      2  C   UNL     1       2.751  -5.012   0.000  0.00  0.00    +0.000 A 
ATOM      3  C   UNL     1       3.419  -5.497   0.000  0.00  0.00    +0.000 A 
ATOM      4  S   UNL     1       3.164  -6.281   0.000  0.00  0.00    +0.000 S 
ATOM      5  C   UNL     1       2.339  -6.281   0.000  0.00  0.00    +0.000 A 
ATOM      6  N   UNL     1       2.084  -5.497   0.000  0.00  0.00    +0.000 NA
ATOM      7  N   UNL     1       1.854  -6.949   0.000  0.00  0.00    +0.000 N 
ATOM      8  C   UNL     1       2.189  -7.702   0.000  0.00  0.00    +0.000 C 
ATOM      9  C   UNL     1       1.033  -6.862   0.000  0.00  0.00    +0.000 C 
ATOM     10  O   UNL     1       0.698  -6.109   0.000  0.00  0.00    +0.000 OA
ENDROOT
BRANCH   3  11
ATOM     11  S   UNL     1       4.203  -5.242   0.000  0.00  0.00    +0.000 S 
ATOM     12  O   UNL     1       4.988  -4.987   0.000  0.00  0.00    +0.000 OA
ATOM     13  O   UNL     1       4.458  -6.026   0.000  0.00  0.00    +0.000 OA
ATOM     14  N   UNL     1       3.948  -4.457   0.000  0.00  0.00    +0.000 NA
ENDBRANCH   3  11
BRANCH   9  15
ATOM     15  C   UNL     1       0.548  -7.530   0.000  0.00  0.00    +0.000 C 
BRANCH  15  16
ATOM     16  C   UNL     1      -0.272  -7.444   0.000  0.00  0.00    +0.000 A 
ATOM     17  C   UNL     1      -0.757  -8.111   0.000  0.00  0.00    +0.000 A 
ATOM     18  C   UNL     1      -1.577  -8.025   0.000  0.00  0.00    +0.000 A 
ATOM     19  C   UNL     1      -1.913  -7.271   0.000  0.00  0.00    +0.000 A 
ATOM     20  C   UNL     1      -1.428  -6.604   0.000  0.00  0.00    +0.000 A 
ATOM     21  C   UNL     1      -0.608  -6.690   0.000  0.00  0.00    +0.000 A 
BRANCH  19  22
ATOM     22  C   UNL     1      -2.734  -7.185   0.000  0.00  0.00    +0.000 A 
ATOM     23  C   UNL     1      -3.219  -7.852   0.000  0.00  0.00    +0.000 A 
ATOM     24  C   UNL     1      -4.039  -7.766   0.000  0.00  0.00    +0.000 A 
ATOM     25  C   UNL     1      -4.375  -7.012   0.000  0.00  0.00    +0.000 A 
ATOM     26  C   UNL     1      -3.890  -6.345   0.000  0.00  0.00    +0.000 A 
ATOM     27  N   UNL     1      -3.069  -6.431   0.000  0.00  0.00    +0.000 NA
ENDBRANCH  19  22
ENDBRANCH  15  16
ENDBRANCH   9  15
TORSDOF 4
