REMARK  Name = 
REMARK  13 active torsions:
REMARK  status: ('A' for Active; 'I' for Inactive)
REMARK    1  A    between atoms: N_8  and  C_15
REMARK    2  A    between atoms: N_9  and  CA_18
REMARK    3  A    between atoms: N_10  and  C_23
REMARK    4  A    between atoms: N_11  and  CA_24
REMARK    5  A    between atoms: C_12  and  C_13
REMARK    6  A    between atoms: C_12  and  C_14
REMARK    7  A    between atoms: C_13  and  C_15
REMARK    8  A    between atoms: C_14  and  C_16
REMARK    9  A    between atoms: C_15  and  C_19
REMARK   10  A    between atoms: C_16  and  C_17
REMARK   11  A    between atoms: CA_18  and  C_20
REMARK   12  A    between atoms: C_22  and  CA_24
REMARK   13  A    between atoms: C_23  and  C_26
REMARK                            x       y       z     vdW  Elec       q    Type
REMARK                         _______ _______ _______ _____ _____    ______ ____
ROOT
ATOM      1  C   UNK A   2      -0.936   0.619   0.000  0.00  0.00    +0.000 C 
ENDROOT
BRANCH   1   4
ATOM      2  O   UNK A   2      -0.222  -0.619   0.000  0.00  0.00    +0.000 OA
ATOM      3  N   GLY A   1      -1.650  -0.619   0.000  0.00  0.00    +0.000 N 
ATOM      4  C   UNK A   2      -0.936  -0.206   0.000  0.00  0.00    +0.000 C 
ATOM      5  H   GLY A   1      -2.093  -0.363   0.000  0.00  0.00    +0.000 HD
BRANCH   3   6
ATOM      6  CA  GLY A   1      -1.650  -1.444   0.000  0.00  0.00    +0.000 C 
ATOM      7  CB  GLY A   1      -0.936  -1.856   0.000  0.00  0.00    +0.000 C 
BRANCH   6  10
ATOM      8  O   GLY A   1      -3.079  -1.444   0.000  0.00  0.00    +0.000 OA
ATOM      9  N   UNK A   2      -2.365  -2.681   0.000  0.00  0.00    +0.000 N 
ATOM     10  C   GLY A   1      -2.365  -1.856   0.000  0.00  0.00    +0.000 C 
ATOM     11  H   UNK A   2      -1.922  -2.937   0.000  0.00  0.00    +0.000 HD
BRANCH   9  12
ATOM     12  C   UNK A   2      -3.079  -3.094   0.000  0.00  0.00    +0.000 C 
ATOM     13  C   UNK A   2      -3.794  -2.681   0.000  0.00  0.00    +0.000 C 
BRANCH  12  16
ATOM     14  O   UNK A   2      -3.794  -4.331   0.000  0.00  0.00    +0.000 OA
ATOM     15  O   UNK A   2      -2.365  -4.331   0.000  0.00  0.00    +0.000 OA
ATOM     16  C   UNK A   2      -3.079  -3.919   0.000  0.00  0.00    +0.000 C 
ENDBRANCH  12  16
ENDBRANCH   9  12
ENDBRANCH   6  10
ENDBRANCH   3   6
ENDBRANCH   1   4
BRANCH   1  17
ATOM     17  C   UNK A   2      -0.222   1.031   0.000  0.00  0.00    +0.000 C 
BRANCH  17  18
ATOM     18  C   UNK A   2      -0.222   1.856   0.000  0.00  0.00    +0.000 C 
BRANCH  18  19
ATOM     19  C   UNK A   2       0.493   2.269   0.000  0.00  0.00    +0.000 C 
BRANCH  19  20
ATOM     20  C   UNK A   2       0.493   3.094   0.000  0.00  0.00    +0.000 C 
BRANCH  20  22
ATOM     21  O   GLY A   1       1.922   2.269   0.000  0.00  0.00    +0.000 OA
ATOM     22  N   UNK A   2       1.207   3.506   0.000  0.00  0.00    +0.000 N 
ATOM     23  C   GLY A   1       1.922   3.094   0.000  0.00  0.00    +0.000 C 
ATOM     24  H   UNK A   2       1.207   4.018   0.000  0.00  0.00    +0.000 HD
BRANCH  23  25
ATOM     25  CA  GLY A   1       2.636   3.506   0.000  0.00  0.00    +0.000 C 
BRANCH  25  26
ATOM     26  N   GLY A   1       3.351   3.094   0.000  0.00  0.00    +0.000 NA
ATOM     27  H1  GLY A   1       3.351   2.582   0.000  0.00  0.00    +0.000 HD
ATOM     28  H2  GLY A   1       3.794   3.349   0.000  0.00  0.00    +0.000 HD
ENDBRANCH  25  26
ENDBRANCH  23  25
ENDBRANCH  20  22
BRANCH  20  31
ATOM     29  O   UNK A   2      -0.936   3.094   0.000  0.00  0.00    +0.000 OA
ATOM     30  O   UNK A   2      -0.222   4.331   0.000  0.00  0.00    +0.000 OA
ATOM     31  C   UNK A   2      -0.222   3.506   0.000  0.00  0.00    +0.000 C 
ENDBRANCH  20  31
ENDBRANCH  19  20
ENDBRANCH  18  19
ENDBRANCH  17  18
ENDBRANCH   1  17
TORSDOF 13
