REMARK  Name = 
REMARK  6 active torsions:
REMARK  status: ('A' for Active; 'I' for Inactive)
REMARK    1  A    between atoms: C_5  and  C_21
REMARK    2  A    between atoms: C_7  and  N_8
REMARK    3  A    between atoms: C_13  and  C_15
REMARK    4  A    between atoms: N_23  and  C_24
REMARK    5  A    between atoms: C_26  and  C_36
REMARK    6  A    between atoms: C_28  and  N_30
REMARK                            x       y       z     vdW  Elec       q    Type
REMARK                         _______ _______ _______ _____ _____    ______ ____
ROOT
ATOM      1  C   UNL     1      -1.536   7.240   0.000  0.00  0.00    +0.000 C 
ATOM      2  C   UNL     1      -0.821   6.828   0.000  0.00  0.00    +0.000 A 
ATOM      3  C   UNL     1      -0.107   7.240   0.000  0.00  0.00    +0.000 A 
ATOM      4  C   UNL     1       0.608   6.828   0.000  0.00  0.00    +0.000 A 
ATOM      5  C   UNL     1       0.608   6.003   0.000  0.00  0.00    +0.000 A 
ATOM      6  C   UNL     1      -0.107   5.590   0.000  0.00  0.00    +0.000 A 
ATOM      7  C   UNL     1      -0.821   6.003   0.000  0.00  0.00    +0.000 A 
ENDROOT
BRANCH   7   8
ATOM      8  N   UNL     1      -1.536   5.590   0.000  0.00  0.00    +0.000 NA
ATOM      9  C   UNL     1      -2.250   6.003   0.000  0.00  0.00    +0.000 A 
ATOM     10  N   UNL     1      -2.965   5.590   0.000  0.00  0.00    +0.000 NA
ATOM     11  C   UNL     1      -3.679   6.003   0.000  0.00  0.00    +0.000 A 
ATOM     12  C   UNL     1      -3.679   6.828   0.000  0.00  0.00    +0.000 A 
ATOM     13  C   UNL     1      -2.965   7.240   0.000  0.00  0.00    +0.000 A 
ATOM     14  N   UNL     1      -2.250   6.828   0.000  0.00  0.00    +0.000 NA
BRANCH  13  15
ATOM     15  C   UNL     1      -2.965   8.065   0.000  0.00  0.00    +0.000 A 
ATOM     16  C   UNL     1      -3.679   8.478   0.000  0.00  0.00    +0.000 A 
ATOM     17  N   UNL     1      -3.679   9.303   0.000  0.00  0.00    +0.000 NA
ATOM     18  C   UNL     1      -2.965   9.715   0.000  0.00  0.00    +0.000 A 
ATOM     19  C   UNL     1      -2.250   9.303   0.000  0.00  0.00    +0.000 A 
ATOM     20  N   UNL     1      -2.250   8.478   0.000  0.00  0.00    +0.000 NA
ENDBRANCH  13  15
ENDBRANCH   7   8
BRANCH   5  21
ATOM     21  C   UNL     1       1.322   5.590   0.000  0.00  0.00    +0.000 C 
ATOM     22  O   UNL     1       2.037   6.003   0.000  0.00  0.00    +0.000 OA
ATOM     23  N   UNL     1       1.322   4.765   0.000  0.00  0.00    +0.000 NA
BRANCH  23  24
ATOM     24  C   UNL     1       2.037   4.353   0.000  0.00  0.00    +0.000 A 
ATOM     25  C   UNL     1       2.751   4.765   0.000  0.00  0.00    +0.000 A 
ATOM     26  C   UNL     1       3.466   4.353   0.000  0.00  0.00    +0.000 A 
ATOM     27  C   UNL     1       3.466   3.528   0.000  0.00  0.00    +0.000 A 
ATOM     28  C   UNL     1       2.751   3.115   0.000  0.00  0.00    +0.000 A 
ATOM     29  C   UNL     1       2.037   3.528   0.000  0.00  0.00    +0.000 A 
BRANCH  28  30
ATOM     30  N   UNL     1       2.751   2.290   0.000  0.00  0.00    +0.000 N 
ATOM     31  C   UNL     1       3.419   1.805   0.000  0.00  0.00    +0.000 A 
ATOM     32  C   UNL     1       3.164   1.021   0.000  0.00  0.00    +0.000 A 
ATOM     33  N   UNL     1       2.339   1.021   0.000  0.00  0.00    +0.000 NA
ATOM     34  C   UNL     1       2.084   1.805   0.000  0.00  0.00    +0.000 A 
ATOM     35  C   UNL     1       3.649   0.353   0.000  0.00  0.00    +0.000 C 
ENDBRANCH  28  30
BRANCH  26  36
ATOM     36  C   UNL     1       4.180   4.765   0.000  0.00  0.00    +0.000 C 
ATOM     37  F   UNL     1       4.895   5.178   0.000  0.00  0.00    +0.000 F 
ATOM     38  F   UNL     1       4.593   4.051   0.000  0.00  0.00    +0.000 F 
ATOM     39  F   UNL     1       3.768   5.480   0.000  0.00  0.00    +0.000 F 
ENDBRANCH  26  36
ENDBRANCH  23  24
ENDBRANCH   5  21
TORSDOF 6
