REMARK  Name = 
REMARK  3 active torsions:
REMARK  status: ('A' for Active; 'I' for Inactive)
REMARK    1  A    between atoms: N_8  and  C_11
REMARK    2  A    between atoms: C_11  and  C_16
REMARK    3  A    between atoms: C_14  and  C_15
REMARK                            x       y       z     vdW  Elec       q    Type
REMARK                         _______ _______ _______ _____ _____    ______ ____
ROOT
ATOM      1  O   UNL     1       0.357  -0.204   0.000  0.00  0.00    +0.000 OA
ATOM      2  O   UNL     1      -1.786   0.209   0.000  0.00  0.00    +0.000 OA
ATOM      3  O   UNL     1      -1.786  -1.441   0.000  0.00  0.00    +0.000 OA
ATOM      4  O   UNL     1      -0.357  -2.266   0.000  0.00  0.00    +0.000 OA
ATOM      5  C   UNL     1      -1.072  -0.204   0.000  0.00  0.00    +0.000 C 
ATOM      6  C   UNL     1      -0.357   0.209   0.000  0.00  0.00    +0.000 C 
ATOM      7  C   UNL     1      -1.072  -1.029   0.000  0.00  0.00    +0.000 C 
ATOM      8  C   UNL     1      -0.357  -1.441   0.000  0.00  0.00    +0.000 C 
ATOM      9  C   UNL     1       0.357  -1.029   0.000  0.00  0.00    +0.000 C 
ENDROOT
BRANCH   6  12
ATOM     10  O   UNL     1      -0.357   1.638   0.000  0.00  0.00    +0.000 OA
ATOM     11  N   UNL     1       0.880   0.923   0.000  0.00  0.00    +0.000 N 
ATOM     12  C   UNL     1       0.055   0.923   0.000  0.00  0.00    +0.000 C 
ATOM     13  H   UNL     1       1.136   1.366   0.000  0.00  0.00    +0.000 HD
ATOM     14  H   UNL     1       1.136   0.480   0.000  0.00  0.00    +0.000 HD
ENDBRANCH   6  12
BRANCH   6  16
ATOM     15  O   UNL     1      -0.281   2.266   0.000  0.00  0.00    +0.000 OA
ATOM     16  N   UNL     1      -0.770   0.923   0.000  0.00  0.00    +0.000 N 
ATOM     17  C   UNL     1      -0.913   1.736   0.000  0.00  0.00    +0.000 C 
ATOM     18  C   UNL     1      -1.688   2.018   0.000  0.00  0.00    +0.000 C 
ATOM     19  H   UNL     1      -1.281   0.923   0.000  0.00  0.00    +0.000 HD
ENDBRANCH   6  16
BRANCH   9  21
ATOM     20  O   UNL     1       1.786  -1.029   0.000  0.00  0.00    +0.000 OA
ATOM     21  C   UNL     1       1.072  -1.441   0.000  0.00  0.00    +0.000 C 
ENDBRANCH   9  21
TORSDOF 3
