REMARK  Name = 
REMARK  6 active torsions:
REMARK  status: ('A' for Active; 'I' for Inactive)
REMARK    1  A    between atoms: C_7  and  C_21
REMARK    2  A    between atoms: C_12  and  C_16
REMARK    3  A    between atoms: C_12  and  C_19
REMARK    4  A    between atoms: C_13  and  C_16
REMARK    5  A    between atoms: C_13  and  N_22
REMARK    6  A    between atoms: C_20  and  C_21
REMARK                            x       y       z     vdW  Elec       q    Type
REMARK                         _______ _______ _______ _____ _____    ______ ____
ROOT
ATOM      1  C   UNL     1      -1.429   2.475   0.000  0.00  0.00    +0.000 C 
ENDROOT
BRANCH   1   6
ATOM      2  C   UNL     1      -0.714   3.712   0.000  0.00  0.00    +0.000 A 
ATOM      3  C   UNL     1      -2.143   3.712   0.000  0.00  0.00    +0.000 A 
ATOM      4  C   UNL     1      -0.714   4.537   0.000  0.00  0.00    +0.000 A 
ATOM      5  C   UNL     1      -2.143   4.537   0.000  0.00  0.00    +0.000 A 
ATOM      6  C   UNL     1      -1.429   3.300   0.000  0.00  0.00    +0.000 A 
ATOM      7  C   UNL     1      -1.429   4.950   0.000  0.00  0.00    +0.000 A 
BRANCH   7  10
ATOM      8  C   UNL     1      -2.254   5.775   0.000  0.00  0.00    +0.000 C 
ATOM      9  C   UNL     1      -0.604   5.775   0.000  0.00  0.00    +0.000 C 
ATOM     10  C   UNL     1      -1.429   5.775   0.000  0.00  0.00    +0.000 C 
BRANCH  10  12
ATOM     11  C   UNL     1      -2.143   7.013   0.000  0.00  0.00    +0.000 C 
ATOM     12  C   UNL     1      -1.429   6.600   0.000  0.00  0.00    +0.000 C 
ENDBRANCH  10  12
ENDBRANCH   7  10
ENDBRANCH   1   6
BRANCH   1  14
ATOM     13  C   UNL     1       0.000   2.475   0.000  0.00  0.00    +0.000 C 
ATOM     14  C   UNL     1      -0.714   2.062   0.000  0.00  0.00    +0.000 C 
BRANCH  14  15
ATOM     15  C   UNL     1      -0.714   1.238   0.000  0.00  0.00    +0.000 C 
BRANCH  15  22
ATOM     16  C   UNL     1       0.714  -1.238   0.000  0.00  0.00    +0.000 C 
ATOM     17  C   UNL     1       2.143   1.238   0.000  0.00  0.00    +0.000 C 
ATOM     18  C   UNL     1       0.000   0.000   0.000  0.00  0.00    +0.000 C 
ATOM     19  C   UNL     1       0.714   1.238   0.000  0.00  0.00    +0.000 C 
ATOM     20  C   UNL     1       0.714  -0.412   0.000  0.00  0.00    +0.000 C 
ATOM     21  C   UNL     1       1.429   0.825   0.000  0.00  0.00    +0.000 C 
ATOM     22  N   UNL     1       0.000   0.825   0.000  0.00  0.00    +0.000 NA
ATOM     23  O   UNL     1       1.429   0.000   0.000  0.00  0.00    +0.000 OA
ENDBRANCH  15  22
ENDBRANCH  14  15
ENDBRANCH   1  14
TORSDOF 6
