REMARK  Name = 
REMARK  3 active torsions:
REMARK  status: ('A' for Active; 'I' for Inactive)
REMARK    1  A    between atoms: C_15  and  C_16
REMARK    2  A    between atoms: C_19  and  C_21
REMARK    3  A    between atoms: C_21  and  N_22
REMARK                            x       y       z     vdW  Elec       q    Type
REMARK                         _______ _______ _______ _____ _____    ______ ____
ROOT
ATOM      1  C   UNL     1      -3.217  -0.695   0.000  0.00  0.00    +0.000 A 
ATOM      2  C   UNL     1      -2.502  -0.282   0.000  0.00  0.00    +0.000 A 
ATOM      3  C   UNL     1      -1.788  -0.695   0.000  0.00  0.00    +0.000 A 
ATOM      4  C   UNL     1      -1.788  -1.520   0.000  0.00  0.00    +0.000 A 
ATOM      5  C   UNL     1      -2.502  -1.932   0.000  0.00  0.00    +0.000 A 
ATOM      6  C   UNL     1      -3.217  -1.520   0.000  0.00  0.00    +0.000 A 
ATOM      7 CL   UNL     1      -2.502  -2.757   0.000  0.00  0.00    +0.000 Cl
ATOM      8  C   UNL     1      -1.143  -2.034   0.000  0.00  0.00    +0.000 C 
ATOM      9  N   UNL     1      -0.339  -1.850   0.000  0.00  0.00    +0.000 N 
ATOM     10  C   UNL     1       0.019  -1.107   0.000  0.00  0.00    +0.000 C 
ATOM     11  C   UNL     1      -0.339  -0.364   0.000  0.00  0.00    +0.000 A 
ATOM     12  N   UNL     1      -1.143  -0.180   0.000  0.00  0.00    +0.000 N 
ATOM     13  C   UNL     1      -1.217   0.642   0.000  0.00  0.00    +0.000 A 
ATOM     14  N   UNL     1      -0.458   0.966   0.000  0.00  0.00    +0.000 NA
ATOM     15  C   UNL     1       0.085   0.344   0.000  0.00  0.00    +0.000 A 
ATOM     16  C   UNL     1       0.245  -2.434   0.000  0.00  0.00    +0.000 C 
ATOM     17  O   UNL     1      -1.327  -2.838   0.000  0.00  0.00    +0.000 OA
ENDROOT
BRANCH  15  18
ATOM     18  C   UNL     1       0.906   0.418   0.000  0.00  0.00    +0.000 A 
ATOM     19  N   UNL     1       1.449  -0.203   0.000  0.00  0.00    +0.000 NA
ATOM     20  O   UNL     1       2.208   0.121   0.000  0.00  0.00    +0.000 OA
ATOM     21  C   UNL     1       2.134   0.943   0.000  0.00  0.00    +0.000 A 
ATOM     22  N   UNL     1       1.329   1.127   0.000  0.00  0.00    +0.000 NA
BRANCH  21  23
ATOM     23  C   UNL     1       2.755   1.486   0.000  0.00  0.00    +0.000 C 
BRANCH  23  24
ATOM     24  N   UNL     1       2.596   2.295   0.000  0.00  0.00    +0.000 NA
ATOM     25  C   UNL     1       3.217   2.838   0.000  0.00  0.00    +0.000 C 
ATOM     26  C   UNL     1       1.815   2.562   0.000  0.00  0.00    +0.000 C 
ENDBRANCH  23  24
ENDBRANCH  21  23
ENDBRANCH  15  18
TORSDOF 3
