REMARK  Name = 
REMARK  10 active torsions:
REMARK  status: ('A' for Active; 'I' for Inactive)
REMARK    1  A    between atoms: C_3  and  C_7
REMARK    2  A    between atoms: C_6  and  C_13
REMARK    3  A    between atoms: C_12  and  C_17
REMARK    4  A    between atoms: N_18  and  C_20
REMARK    5  A    between atoms: C_27  and  C_29
REMARK    6  A    between atoms: N_30  and  C_32
REMARK    7  A    between atoms: C_32  and  C_33
REMARK    8  A    between atoms: C_32  and  C_34
REMARK    9  A    between atoms: N_41  and  C_42
REMARK   10  A    between atoms: C_42  and  C_44
REMARK                            x       y       z     vdW  Elec       q    Type
REMARK                         _______ _______ _______ _____ _____    ______ ____
ROOT
ATOM      1  C   UNL     1      -2.591  -0.835   0.000  0.00  0.00    +0.000 A 
ATOM      2  C   UNL     1      -1.877  -1.250   0.000  0.00  0.00    +0.000 A 
ATOM      3  C   UNL     1      -1.886   0.401   0.000  0.00  0.00    +0.000 A 
ATOM      4  C   UNL     1      -2.596  -0.015   0.000  0.00  0.00    +0.000 A 
ATOM      5  C   UNL     1      -1.166  -0.010   0.000  0.00  0.00    +0.000 A 
ATOM      6  C   UNL     1      -1.167  -0.832   0.000  0.00  0.00    +0.000 A 
ATOM      7  C   UNL     1      -0.385  -1.087   0.000  0.00  0.00    +0.000 A 
ATOM      8  C   UNL     1       0.099  -0.422   0.000  0.00  0.00    +0.000 A 
ATOM      9  N   UNL     1      -0.383   0.243   0.000  0.00  0.00    +0.000 N 
ATOM     10  C   UNL     1      -0.128   1.028   0.000  0.00  0.00    +0.000 C 
ENDROOT
BRANCH   8  11
ATOM     11  C   UNL     1       0.924  -0.423   0.000  0.00  0.00    +0.000 C 
ATOM     12  N   UNL     1       1.336  -1.138   0.000  0.00  0.00    +0.000 NA
ATOM     13  O   UNL     1       1.338   0.291   0.000  0.00  0.00    +0.000 OA
BRANCH  12  14
ATOM     14  C   UNL     1       2.161  -1.139   0.000  0.00  0.00    +0.000 C 
BRANCH  14  15
ATOM     15  C   UNL     1       2.575  -0.425   0.000  0.00  0.00    +0.000 A 
ATOM     16  C   UNL     1       3.397  -0.428   0.000  0.00  0.00    +0.000 A 
ATOM     17  C   UNL     1       3.810   0.285   0.000  0.00  0.00    +0.000 A 
ATOM     18  C   UNL     1       3.398   1.001   0.000  0.00  0.00    +0.000 A 
ATOM     19  C   UNL     1       2.569   0.999   0.000  0.00  0.00    +0.000 A 
ATOM     20  C   UNL     1       2.160   0.285   0.000  0.00  0.00    +0.000 A 
ENDBRANCH  14  15
BRANCH  14  21
ATOM     21  C   UNL     1       2.573  -1.854   0.000  0.00  0.00    +0.000 C 
ATOM     22  O   UNL     1       2.160  -2.568   0.000  0.00  0.00    +0.000 OA
ATOM     23  N   UNL     1       3.398  -1.855   0.000  0.00  0.00    +0.000 N 
ATOM     24  C   UNL     1       3.811  -1.140   0.000  0.00  0.00    +0.000 C 
BRANCH  23  25
ATOM     25  C   UNL     1       3.810  -2.570   0.000  0.00  0.00    +0.000 C 
BRANCH  25  26
ATOM     26  C   UNL     1       4.635  -2.570   0.000  0.00  0.00    +0.000 A 
ATOM     27  C   UNL     1       5.042  -3.286   0.000  0.00  0.00    +0.000 A 
ATOM     28  C   UNL     1       5.866  -3.287   0.000  0.00  0.00    +0.000 A 
ATOM     29  C   UNL     1       6.280  -2.572   0.000  0.00  0.00    +0.000 A 
ATOM     30  C   UNL     1       5.864  -1.855   0.000  0.00  0.00    +0.000 A 
ATOM     31  C   UNL     1       5.041  -1.857   0.000  0.00  0.00    +0.000 A 
ENDBRANCH  25  26
ENDBRANCH  23  25
ENDBRANCH  14  21
ENDBRANCH  12  14
ENDBRANCH   8  11
BRANCH   1  33
ATOM     32  C   UNL     1      -4.020  -0.838   0.000  0.00  0.00    +0.000 C 
ATOM     33  N   UNL     1      -3.304  -1.249   0.000  0.00  0.00    +0.000 NA
ATOM     34  O   UNL     1      -4.022  -0.013   0.000  0.00  0.00    +0.000 OA
BRANCH  32  40
ATOM     35  C   UNL     1      -5.445  -0.843   0.000  0.00  0.00    +0.000 A 
ATOM     36  C   UNL     1      -6.162  -1.254   0.000  0.00  0.00    +0.000 A 
ATOM     37  C   UNL     1      -6.162  -2.079   0.000  0.00  0.00    +0.000 A 
ATOM     38  C   UNL     1      -5.447  -2.492   0.000  0.00  0.00    +0.000 A 
ATOM     39  C   UNL     1      -4.730  -2.075   0.000  0.00  0.00    +0.000 A 
ATOM     40  C   UNL     1      -4.733  -1.253   0.000  0.00  0.00    +0.000 A 
BRANCH  35  43
ATOM     41  C   UNL     1      -6.161   1.220   0.000  0.00  0.00    +0.000 A 
ATOM     42  C   UNL     1      -6.162   0.393   0.000  0.00  0.00    +0.000 A 
ATOM     43  C   UNL     1      -5.447  -0.020   0.000  0.00  0.00    +0.000 A 
ATOM     44  C   UNL     1      -4.730   0.393   0.000  0.00  0.00    +0.000 A 
ATOM     45  C   UNL     1      -4.733   1.224   0.000  0.00  0.00    +0.000 A 
ATOM     46  C   UNL     1      -5.449   1.633   0.000  0.00  0.00    +0.000 A 
BRANCH  46  47
ATOM     47  C   UNL     1      -5.455   2.462   0.000  0.00  0.00    +0.000 C 
ATOM     48  F   UNL     1      -5.459   3.287   0.000  0.00  0.00    +0.000 F 
ATOM     49  F   UNL     1      -6.280   2.457   0.000  0.00  0.00    +0.000 F 
ATOM     50  F   UNL     1      -4.630   2.471   0.000  0.00  0.00    +0.000 F 
ENDBRANCH  46  47
ENDBRANCH  35  43
ENDBRANCH  32  40
ENDBRANCH   1  33
TORSDOF 10
