REMARK  Name = 
REMARK  0 active torsions:
REMARK  status: ('A' for Active; 'I' for Inactive)
REMARK                            x       y       z     vdW  Elec       q    Type
REMARK                         _______ _______ _______ _____ _____    ______ ____
ROOT
ATOM      1  C   UNL     1       0.865   0.507   0.000  0.00  0.00    +0.000 A 
ATOM      2  C   UNL     1       1.404  -0.701   0.000  0.00  0.00    +0.000 C 
ATOM      3  C   UNL     1       0.690  -0.281   0.000  0.00  0.00    +0.000 C 
ATOM      4  C   UNL     1      -0.021  -0.701   0.000  0.00  0.00    +0.000 A 
ATOM      5  C   UNL     1      -0.021  -1.522   0.000  0.00  0.00    +0.000 A 
ATOM      6  C   UNL     1       1.686   0.590   0.000  0.00  0.00    +0.000 A 
ATOM      7  O   UNL     1       0.690  -1.942   0.000  0.00  0.00    +0.000 OA
ATOM      8  C   UNL     1      -0.726  -1.942   0.000  0.00  0.00    +0.000 A 
ATOM      9  C   UNL     1       0.381   1.171   0.000  0.00  0.00    +0.000 A 
ATOM     10  C   UNL     1       2.022  -0.152   0.000  0.00  0.00    +0.000 C 
ATOM     11  C   UNL     1       2.022   1.342   0.000  0.00  0.00    +0.000 A 
ATOM     12  C   UNL     1      -0.726  -0.281   0.000  0.00  0.00    +0.000 A 
ATOM     13  C   UNL     1       0.708   1.933   0.000  0.00  0.00    +0.000 A 
ATOM     14  C   UNL     1       1.404  -1.522   0.000  0.00  0.00    +0.000 C 
ATOM     15  C   UNL     1       1.538   2.011   0.000  0.00  0.00    +0.000 A 
ATOM     16  C   UNL     1      -1.446  -1.522   0.000  0.00  0.00    +0.000 A 
ATOM     17  C   UNL     1      -1.446  -0.701   0.000  0.00  0.00    +0.000 A 
ATOM     18  O   UNL     1       2.161  -1.042   0.000  0.00  0.00    +0.000 OA
ATOM     19  O   UNL     1      -0.726  -2.763   0.000  0.00  0.00    +0.000 OA
ATOM     20  O   UNL     1       0.233   2.597   0.000  0.00  0.00    +0.000 OA
ATOM     21  O   UNL     1       1.875   2.763   0.000  0.00  0.00    +0.000 OA
ATOM     22  O   UNL     1      -2.161  -1.942   0.000  0.00  0.00    +0.000 OA
ENDROOT
TORSDOF 0
