REMARK  Name = 
REMARK  6 active torsions:
REMARK  status: ('A' for Active; 'I' for Inactive)
REMARK    1  A    between atoms: N_2  and  C_4
REMARK    2  A    between atoms: C_4  and  C_5
REMARK    3  A    between atoms: C_8  and  S_11
REMARK    4  A    between atoms: S_11  and  N_14
REMARK    5  A    between atoms: C_17  and  C_19
REMARK    6  A    between atoms: C_20  and  C_21
REMARK                            x       y       z     vdW  Elec       q    Type
REMARK                         _______ _______ _______ _____ _____    ______ ____
ROOT
ATOM      1  S   UNL     1       0.715   5.116   0.000  0.00  0.00    +0.000 S 
ATOM      2  O   UNL     1      -0.111   5.116   0.000  0.00  0.00    +0.000 OA
ATOM      3  O   UNL     1       1.540   5.116   0.000  0.00  0.00    +0.000 OA
ENDROOT
BRANCH   1   7
ATOM      4  C   UNL     1       0.715   7.591   0.000  0.00  0.00    +0.000 A 
ATOM      5  C   UNL     1       1.429   7.179   0.000  0.00  0.00    +0.000 A 
ATOM      6  C   UNL     1       1.429   6.354   0.000  0.00  0.00    +0.000 A 
ATOM      7  C   UNL     1       0.715   5.941   0.000  0.00  0.00    +0.000 A 
ATOM      8  C   UNL     1       0.000   6.354   0.000  0.00  0.00    +0.000 A 
ATOM      9  C   UNL     1       0.000   7.179   0.000  0.00  0.00    +0.000 A 
BRANCH   4  10
ATOM     10  C   UNL     1       0.715   8.416   0.000  0.00  0.00    +0.000 C 
BRANCH  10  12
ATOM     11  C   UNL     1       0.000   9.654   0.000  0.00  0.00    +0.000 C 
ATOM     12  N   UNL     1       0.000   8.829   0.000  0.00  0.00    +0.000 NA
ATOM     13  C   UNL     1      -0.715   8.416   0.000  0.00  0.00    +0.000 C 
ENDBRANCH  10  12
ENDBRANCH   4  10
ENDBRANCH   1   7
BRANCH   1  14
ATOM     14  N   UNL     1       0.715   4.291   0.000  0.00  0.00    +0.000 N 
ATOM     15  C   UNL     1       1.382   3.806   0.000  0.00  0.00    +0.000 A 
ATOM     16  C   UNL     1       1.127   3.022   0.000  0.00  0.00    +0.000 A 
ATOM     17  C   UNL     1       0.302   3.022   0.000  0.00  0.00    +0.000 A 
ATOM     18  C   UNL     1       0.047   3.806   0.000  0.00  0.00    +0.000 A 
BRANCH  17  19
ATOM     19  C   UNL     1      -0.183   2.354   0.000  0.00  0.00    +0.000 C 
ATOM     20  C   UNL     1      -1.003   2.440   0.000  0.00  0.00    +0.000 C 
BRANCH  20  21
ATOM     21  C   UNL     1      -1.488   1.773   0.000  0.00  0.00    +0.000 C 
ATOM     22  O   UNL     1      -1.153   1.019   0.000  0.00  0.00    +0.000 OA
ATOM     23  N   UNL     1      -2.309   1.859   0.000  0.00  0.00    +0.000 NA
ATOM     24  O   UNL     1      -2.794   1.192   0.000  0.00  0.00    +0.000 OA
ENDBRANCH  20  21
ENDBRANCH  17  19
ENDBRANCH   1  14
TORSDOF 6
