REMARK  Name = 
REMARK  7 active torsions:
REMARK  status: ('A' for Active; 'I' for Inactive)
REMARK    1  A    between atoms: C_2  and  C_11
REMARK    2  A    between atoms: C_7  and  C_9
REMARK    3  A    between atoms: N_13  and  CA_14
REMARK    4  A    between atoms: CA_14  and  CB_15
REMARK    5  A    between atoms: CA_14  and  C_20
REMARK    6  A    between atoms: CB_15  and  CG_16
REMARK    7  A    between atoms: CG_16  and  CD_17
REMARK                            x       y       z     vdW  Elec       q    Type
REMARK                         _______ _______ _______ _____ _____    ______ ____
ROOT
ATOM      1  C   UNK A   0      -0.349   0.255   0.000  0.00  0.00    +0.000 C 
ATOM      2  O   UNK A   0      -0.349   1.080   0.000  0.00  0.00    +0.000 OA
ATOM      3  N   GLU A   1       0.365  -0.158   0.000  0.00  0.00    +0.000 NA
ENDROOT
BRANCH   1   5
ATOM      4  C   UNK A   0      -1.400   0.596   0.000  0.00  0.00    +0.000 C 
ATOM      5  C   UNK A   0      -1.064  -0.158   0.000  0.00  0.00    +0.000 C 
ATOM      6  C   UNK A   0      -0.579  -0.825   0.000  0.00  0.00    +0.000 C 
ATOM      7  C   UNK A   0      -1.064  -1.492   0.000  0.00  0.00    +0.000 C 
ATOM      8  C   UNK A   0      -1.849  -1.238   0.000  0.00  0.00    +0.000 C 
ATOM      9  N   UNK A   0      -1.849  -0.412   0.000  0.00  0.00    +0.000 N 
ATOM     10  C   UNK A   0      -2.516   0.072   0.000  0.00  0.00    +0.000 C 
ATOM     11  O   UNK A   0      -2.430   0.893   0.000  0.00  0.00    +0.000 OA
BRANCH  10  12
ATOM     12  C   UNK A   0      -3.270  -0.263   0.000  0.00  0.00    +0.000 C 
ATOM     13  N   UNK A   0      -3.937   0.222   0.000  0.00  0.00    +0.000 NA
ENDBRANCH  10  12
ENDBRANCH   1   5
BRANCH   3  14
ATOM     14  CA  GLU A   1       1.079   0.255   0.000  0.00  0.00    +0.000 C 
BRANCH  14  15
ATOM     15  C   GLU A   1       1.079   1.080   0.000  0.00  0.00    +0.000 C 
ATOM     16  O   GLU A   1       1.794   1.492   0.000  0.00  0.00    +0.000 OA
ATOM     17  OXT GLU A   1       0.365   1.492   0.000  0.00  0.00    +0.000 OA
ENDBRANCH  14  15
BRANCH  14  18
ATOM     18  CB  GLU A   1       1.794  -0.158   0.000  0.00  0.00    +0.000 C 
BRANCH  18  19
ATOM     19  CG  GLU A   1       2.508   0.255   0.000  0.00  0.00    +0.000 C 
BRANCH  19  20
ATOM     20  CD  GLU A   1       3.223  -0.158   0.000  0.00  0.00    +0.000 C 
ATOM     21  OE1 GLU A   1       3.937   0.255   0.000  0.00  0.00    +0.000 OA
ATOM     22  OE2 GLU A   1       3.223  -0.983   0.000  0.00  0.00    +0.000 OA
ENDBRANCH  19  20
ENDBRANCH  18  19
ENDBRANCH  14  18
ENDBRANCH   3  14
TORSDOF 7
