REMARK  Name = 
REMARK  9 active torsions:
REMARK  status: ('A' for Active; 'I' for Inactive)
REMARK    1  A    between atoms: C_7  and  C_14
REMARK    2  A    between atoms: C_7  and  O_33
REMARK    3  A    between atoms: C_14  and  C_27
REMARK    4  A    between atoms: C_27  and  O_28
REMARK    5  A    between atoms: O_28  and  C_29
REMARK    6  A    between atoms: C_29  and  C_30
REMARK    7  A    between atoms: O_33  and  C_34
REMARK    8  A    between atoms: C_34  and  C_35
REMARK    9  A    between atoms: C_35  and  C_36
REMARK                            x       y       z     vdW  Elec       q    Type
REMARK                         _______ _______ _______ _____ _____    ______ ____
ROOT
ATOM      1  C   UNL     1      -0.034  -0.837   0.000  0.00  0.00    +0.000 C 
ATOM      2  C   UNL     1      -0.745  -1.255   0.000  0.00  0.00    +0.000 C 
ATOM      3  C   UNL     1      -0.034  -0.042   0.000  0.00  0.00    +0.000 C 
ATOM      4  C   UNL     1       1.347  -0.837   0.000  0.00  0.00    +0.000 C 
ATOM      5  C   UNL     1      -1.456  -0.837   0.000  0.00  0.00    +0.000 C 
ATOM      6  C   UNL     1      -0.745  -2.050   0.000  0.00  0.00    +0.000 C 
ATOM      7  C   UNL     1       0.677   0.377   0.000  0.00  0.00    +0.000 C 
ATOM      8  C   UNL     1      -0.745   0.377   0.000  0.00  0.00    +0.000 C 
ATOM      9  C   UNL     1      -0.034   0.795   0.000  0.00  0.00    +0.000 C 
ATOM     10  C   UNL     1       1.347  -0.042   0.000  0.00  0.00    +0.000 C 
ATOM     11  C   UNL     1      -2.167  -1.255   0.000  0.00  0.00    +0.000 C 
ATOM     12  C   UNL     1      -1.456  -0.042   0.000  0.00  0.00    +0.000 C 
ATOM     13  C   UNL     1      -1.456  -2.468   0.000  0.00  0.00    +0.000 C 
ATOM     14  C   UNL     1      -2.167  -2.050   0.000  0.00  0.00    +0.000 C 
ATOM     15  C   UNL     1      -2.878  -0.837   0.000  0.00  0.00    +0.000 C 
ATOM     16  C   UNL     1      -2.167  -0.418   0.000  0.00  0.00    +0.000 C 
ATOM     17  O   UNL     1      -2.167   0.377   0.000  0.00  0.00    +0.000 OA
ATOM     18  C   UNL     1      -2.878  -2.468   0.000  0.00  0.00    +0.000 C 
ATOM     19  C   UNL     1      -3.589  -1.255   0.000  0.00  0.00    +0.000 C 
ATOM     20  C   UNL     1      -3.589  -2.050   0.000  0.00  0.00    +0.000 C 
ATOM     21  O   UNL     1      -4.300  -2.468   0.000  0.00  0.00    +0.000 OA
ENDROOT
BRANCH   7  22
ATOM     22  C   UNL     1       0.677   1.213   0.000  0.00  0.00    +0.000 C 
ATOM     23  O   UNL     1      -0.034   1.631   0.000  0.00  0.00    +0.000 OA
BRANCH  22  24
ATOM     24  C   UNL     1       1.404   1.628   0.000  0.00  0.00    +0.000 C 
BRANCH  24  25
ATOM     25  O   UNL     1       2.114   1.214   0.000  0.00  0.00    +0.000 OA
BRANCH  25  26
ATOM     26  C   UNL     1       2.829   1.623   0.000  0.00  0.00    +0.000 C 
ATOM     27  O   UNL     1       2.797   2.468   0.000  0.00  0.00    +0.000 OA
BRANCH  26  28
ATOM     28  C   UNL     1       3.534   1.212   0.000  0.00  0.00    +0.000 C 
ATOM     29  C   UNL     1       4.252   1.622   0.000  0.00  0.00    +0.000 C 
ENDBRANCH  26  28
ENDBRANCH  25  26
ENDBRANCH  24  25
ENDBRANCH  22  24
ENDBRANCH   7  22
BRANCH   7  30
ATOM     30  O   UNL     1       1.409   0.782   0.000  0.00  0.00    +0.000 OA
BRANCH  30  31
ATOM     31  C   UNL     1       2.105   0.364   0.000  0.00  0.00    +0.000 C 
ATOM     32  O   UNL     1       2.091  -0.460   0.000  0.00  0.00    +0.000 OA
BRANCH  31  33
ATOM     33  C   UNL     1       2.838   0.770   0.000  0.00  0.00    +0.000 C 
BRANCH  33  34
ATOM     34  C   UNL     1       3.573   0.328   0.000  0.00  0.00    +0.000 C 
ATOM     35  C   UNL     1       4.300   0.731   0.000  0.00  0.00    +0.000 C 
ENDBRANCH  33  34
ENDBRANCH  31  33
ENDBRANCH  30  31
ENDBRANCH   7  30
TORSDOF 9
