REMARK  Name = 
REMARK  7 active torsions:
REMARK  status: ('A' for Active; 'I' for Inactive)
REMARK    1  A    between atoms: C_2  and  C_3
REMARK    2  A    between atoms: C_3  and  C_4
REMARK    3  A    between atoms: C_4  and  C_5
REMARK    4  A    between atoms: C_4  and  C_8
REMARK    5  A    between atoms: C_5  and  C_6
REMARK    6  A    between atoms: N_10  and  C_11
REMARK    7  A    between atoms: C_11  and  C_12
REMARK                            x       y       z     vdW  Elec       q    Type
REMARK                         _______ _______ _______ _____ _____    ______ ____
ROOT
ATOM      1  C   UNL     1       1.238   3.572   0.000  0.00  0.00    +0.000 C 
ENDROOT
BRANCH   1   2
ATOM      2  C   UNL     1       2.062   3.572   0.000  0.00  0.00    +0.000 C 
ATOM      3  O   UNL     1       2.475   4.287   0.000  0.00  0.00    +0.000 OA
ATOM      4  N   UNL     1       2.475   2.858   0.000  0.00  0.00    +0.000 NA
BRANCH   4   5
ATOM      5  C   UNL     1       3.300   2.858   0.000  0.00  0.00    +0.000 C 
BRANCH   5   6
ATOM      6  C   UNL     1       3.712   2.143   0.000  0.00  0.00    +0.000 C 
ATOM      7  O   UNL     1       4.537   2.143   0.000  0.00  0.00    +0.000 OA
ATOM      8  N   UNL     1       3.300   1.429   0.000  0.00  0.00    +0.000 NA
ENDBRANCH   5   6
ENDBRANCH   4   5
ENDBRANCH   1   2
BRANCH   1   9
ATOM      9  C   UNL     1       0.825   2.858   0.000  0.00  0.00    +0.000 C 
BRANCH   9  10
ATOM     10  C   UNL     1       1.238   2.143   0.000  0.00  0.00    +0.000 C 
ATOM     11  C   UNL     1       0.825   1.429   0.000  0.00  0.00    +0.000 C 
ENDBRANCH   9  10
ENDBRANCH   1   9
BRANCH   1  12
ATOM     12  C   UNL     1       0.825   4.287   0.000  0.00  0.00    +0.000 C 
BRANCH  12  14
ATOM     13  C   UNL     1      -0.412   5.001   0.000  0.00  0.00    +0.000 C 
ATOM     14  C   UNL     1       0.000   4.287   0.000  0.00  0.00    +0.000 C 
ENDBRANCH  12  14
ENDBRANCH   1  12
TORSDOF 7
