REMARK  Name = 
REMARK  5 active torsions:
REMARK  status: ('A' for Active; 'I' for Inactive)
REMARK    1  A    between atoms: C_2  and  C_5
REMARK    2  A    between atoms: C_5  and  N_6
REMARK    3  A    between atoms: C_11  and  C_13
REMARK    4  A    between atoms: C_14  and  C_22
REMARK    5  A    between atoms: C_16  and  C_18
REMARK                            x       y       z     vdW  Elec       q    Type
REMARK                         _______ _______ _______ _____ _____    ______ ____
ROOT
ATOM      1  C   UNL     1       2.784  -1.523   0.000  0.00  0.00    +0.000 A 
ATOM      2  C   UNL     1       3.538  -1.187   0.000  0.00  0.00    +0.000 A 
ATOM      3  N   UNL     1       4.090  -1.800   0.000  0.00  0.00    +0.000 NA
ATOM      4  C   UNL     1       3.678  -2.515   0.000  0.00  0.00    +0.000 A 
ATOM      5  N   UNL     1       2.871  -2.343   0.000  0.00  0.00    +0.000 NA
ENDROOT
BRANCH   1  11
ATOM      6  N   UNL     1      -0.143  -1.365   0.000  0.00  0.00    +0.000 N 
ATOM      7  C   UNL     1       0.641  -1.110   0.000  0.00  0.00    +0.000 A 
ATOM      8  C   UNL     1       0.641  -0.285   0.000  0.00  0.00    +0.000 A 
ATOM      9  C   UNL     1       1.356   0.127   0.000  0.00  0.00    +0.000 A 
ATOM     10  C   UNL     1       2.070  -0.285   0.000  0.00  0.00    +0.000 A 
ATOM     11  C   UNL     1       2.070  -1.110   0.000  0.00  0.00    +0.000 A 
ATOM     12  N   UNL     1       1.356  -1.523   0.000  0.00  0.00    +0.000 NA
ATOM     13  N   UNL     1      -0.143  -0.030   0.000  0.00  0.00    +0.000 NA
ATOM     14  C   UNL     1      -0.628  -0.698   0.000  0.00  0.00    +0.000 A 
ATOM     15  N   UNL     1      -1.453  -0.698   0.000  0.00  0.00    +0.000 NA
BRANCH   6  16
ATOM     16  C   UNL     1      -0.398  -2.150   0.000  0.00  0.00    +0.000 C 
BRANCH  16  18
ATOM     17  C   UNL     1      -2.012  -2.493   0.000  0.00  0.00    +0.000 C 
ATOM     18  C   UNL     1      -1.205  -2.321   0.000  0.00  0.00    +0.000 C 
ATOM     19  C   UNL     1      -1.034  -3.128   0.000  0.00  0.00    +0.000 C 
ATOM     20  C   UNL     1      -1.377  -1.515   0.000  0.00  0.00    +0.000 C 
ENDBRANCH  16  18
ENDBRANCH   6  16
ENDBRANCH   1  11
BRANCH   2  21
ATOM     21  C   UNL     1       3.710  -0.380   0.000  0.00  0.00    +0.000 A 
ATOM     22  C   UNL     1       3.097   0.172   0.000  0.00  0.00    +0.000 A 
ATOM     23  C   UNL     1       3.268   0.979   0.000  0.00  0.00    +0.000 A 
ATOM     24  C   UNL     1       4.053   1.234   0.000  0.00  0.00    +0.000 A 
ATOM     25  C   UNL     1       4.666   0.681   0.000  0.00  0.00    +0.000 A 
ATOM     26  C   UNL     1       4.494  -0.126   0.000  0.00  0.00    +0.000 A 
ATOM     27  F   UNL     1       4.224   2.041   0.000  0.00  0.00    +0.000 F 
ENDBRANCH   2  21
BRANCH   4  28
ATOM     28  C   UNL     1       4.013  -3.269   0.000  0.00  0.00    +0.000 C 
ATOM     29  C   UNL     1       4.349  -4.022   0.000  0.00  0.00    +0.000 C 
ATOM     30  C   UNL     1       3.260  -3.604   0.000  0.00  0.00    +0.000 C 
ATOM     31  C   UNL     1       4.767  -2.933   0.000  0.00  0.00    +0.000 C 
ENDBRANCH   4  28
TORSDOF 5
