REMARK  Name = 
REMARK  6 active torsions:
REMARK  status: ('A' for Active; 'I' for Inactive)
REMARK    1  A    between atoms: N_4  and  C_16
REMARK    2  A    between atoms: N_4  and  C_19
REMARK    3  A    between atoms: N_5  and  C_19
REMARK    4  A    between atoms: C_8  and  C_9
REMARK    5  A    between atoms: C_8  and  C_10
REMARK    6  A    between atoms: C_22  and  C_23
REMARK                            x       y       z     vdW  Elec       q    Type
REMARK                         _______ _______ _______ _____ _____    ______ ____
ROOT
ATOM      1  N   UNL     1      -1.072   0.206   0.000  0.00  0.00    +0.000 NA
ATOM      2  N   UNL     1      -1.786   1.444   0.000  0.00  0.00    +0.000 N 
ATOM      3  C   UNL     1      -1.786   0.619   0.000  0.00  0.00    +0.000 C 
ATOM      4  H   UNL     1      -1.343   1.700   0.000  0.00  0.00    +0.000 HD
ATOM      5  H   UNL     1      -2.229   1.700   0.000  0.00  0.00    +0.000 HD
ENDROOT
BRANCH   1   7
ATOM      6  S   UNL     1      -0.357   1.444   0.000  0.00  0.00    +0.000 S 
ATOM      7  C   UNL     1      -0.357   0.619   0.000  0.00  0.00    +0.000 C 
BRANCH   7   8
ATOM      8  N   UNL     1       0.357   0.206   0.000  0.00  0.00    +0.000 N 
ATOM      9  H   UNL     1       0.357  -0.305   0.000  0.00  0.00    +0.000 HD
BRANCH   8  10
ATOM     10  C   UNL     1       1.072   0.619   0.000  0.00  0.00    +0.000 A 
ATOM     11  C   UNL     1       1.072   1.444   0.000  0.00  0.00    +0.000 A 
ATOM     12  C   UNL     1       1.786   0.206   0.000  0.00  0.00    +0.000 A 
ATOM     13  C   UNL     1       1.786   1.856   0.000  0.00  0.00    +0.000 A 
ATOM     14  C   UNL     1       2.501   0.619   0.000  0.00  0.00    +0.000 A 
ATOM     15  C   UNL     1       2.501   1.444   0.000  0.00  0.00    +0.000 A 
BRANCH  15  17
ATOM     16  N   UNL     1       3.930   2.269   0.000  0.00  0.00    +0.000 NA
ATOM     17  C   UNL     1       3.215   1.856   0.000  0.00  0.00    +0.000 C 
ENDBRANCH  15  17
ENDBRANCH   8  10
ENDBRANCH   7   8
ENDBRANCH   1   7
BRANCH   3  18
ATOM     18  C   UNL     1      -2.501   0.206   0.000  0.00  0.00    +0.000 C 
BRANCH  18  21
ATOM     19 CL   UNL     1      -1.072  -0.619   0.000  0.00  0.00    +0.000 Cl
ATOM     20 CL   UNL     1      -3.930  -0.619   0.000  0.00  0.00    +0.000 Cl
ATOM     21  C   UNL     1      -2.501  -0.619   0.000  0.00  0.00    +0.000 A 
ATOM     22  C   UNL     1      -1.786  -1.031   0.000  0.00  0.00    +0.000 A 
ATOM     23  C   UNL     1      -3.215  -1.031   0.000  0.00  0.00    +0.000 A 
ATOM     24  C   UNL     1      -1.786  -1.856   0.000  0.00  0.00    +0.000 A 
ATOM     25  C   UNL     1      -3.215  -1.856   0.000  0.00  0.00    +0.000 A 
ATOM     26  C   UNL     1      -2.501  -2.269   0.000  0.00  0.00    +0.000 A 
ENDBRANCH  18  21
ENDBRANCH   3  18
TORSDOF 6
