REMARK  Name = 
REMARK  10 active torsions:
REMARK  status: ('A' for Active; 'I' for Inactive)
REMARK    1  A    between atoms: N_2  and  C_41
REMARK    2  A    between atoms: C_4  and  O_9
REMARK    3  A    between atoms: C_8  and  O_21
REMARK    4  A    between atoms: C_8  and  C_42
REMARK    5  A    between atoms: O_9  and  C_12
REMARK    6  A    between atoms: C_14  and  C_15
REMARK    7  A    between atoms: O_21  and  C_22
REMARK    8  A    between atoms: C_22  and  C_23
REMARK    9  A    between atoms: C_31  and  C_35
REMARK   10  A    between atoms: C_38  and  C_41
REMARK                            x       y       z     vdW  Elec       q    Type
REMARK                         _______ _______ _______ _____ _____    ______ ____
ROOT
ATOM      1  C   UNL     1      -0.863  -2.197   0.000  0.00  0.00    +0.000 A 
ATOM      2  N   UNL     1      -0.079  -1.950   0.000  0.00  0.00    +0.000 N 
ATOM      3  C   UNL     1      -0.863  -3.022   0.000  0.00  0.00    +0.000 A 
ATOM      4  C   UNL     1       0.416  -2.610   0.000  0.00  0.00    +0.000 A 
ATOM      5  N   UNL     1      -0.079  -3.311   0.000  0.00  0.00    +0.000 NA
ATOM      6  C   UNL     1      -1.564  -3.435   0.000  0.00  0.00    +0.000 A 
ATOM      7  C   UNL     1      -2.266  -2.197   0.000  0.00  0.00    +0.000 A 
ATOM      8  C   UNL     1      -2.266  -3.022   0.000  0.00  0.00    +0.000 A 
ATOM      9  C   UNL     1      -1.564  -1.785   0.000  0.00  0.00    +0.000 A 
ENDROOT
BRANCH   9  10
ATOM     10  C   UNL     1      -1.564  -0.960   0.000  0.00  0.00    +0.000 C 
ATOM     11  O   UNL     1      -0.832  -0.529   0.000  0.00  0.00    +0.000 OA
BRANCH  10  12
ATOM     12  O   UNL     1      -2.275  -0.541   0.000  0.00  0.00    +0.000 OA
BRANCH  12  13
ATOM     13  C   UNL     1      -2.269   0.283   0.000  0.00  0.00    +0.000 C 
BRANCH  13  14
ATOM     14  C   UNL     1      -2.970   0.696   0.000  0.00  0.00    +0.000 A 
ATOM     15  C   UNL     1      -3.742   0.459   0.000  0.00  0.00    +0.000 A 
ATOM     16  O   UNL     1      -4.207   1.119   0.000  0.00  0.00    +0.000 OA
ATOM     17  C   UNL     1      -3.724   1.766   0.000  0.00  0.00    +0.000 A 
ATOM     18  O   UNL     1      -2.959   1.505   0.000  0.00  0.00    +0.000 OA
ATOM     19  C   UNL     1      -4.008  -0.320   0.000  0.00  0.00    +0.000 C 
ATOM     20  O   UNL     1      -3.972   2.568   0.000  0.00  0.00    +0.000 OA
ENDBRANCH  13  14
ENDBRANCH  12  13
ENDBRANCH  10  12
ENDBRANCH   9  10
BRANCH   4  21
ATOM     21  O   UNL     1       1.241  -2.610   0.000  0.00  0.00    +0.000 OA
BRANCH  21  22
ATOM     22  C   UNL     1       1.653  -3.352   0.000  0.00  0.00    +0.000 C 
ATOM     23  C   UNL     1       2.478  -3.352   0.000  0.00  0.00    +0.000 C 
ENDBRANCH  21  22
ENDBRANCH   4  21
BRANCH   2  24
ATOM     24  C   UNL     1      -0.079  -1.125   0.000  0.00  0.00    +0.000 C 
BRANCH  24  28
ATOM     25  C   UNL     1       2.064   0.113   0.000  0.00  0.00    +0.000 A 
ATOM     26  C   UNL     1       1.349   0.525   0.000  0.00  0.00    +0.000 A 
ATOM     27  C   UNL     1       0.635   0.113   0.000  0.00  0.00    +0.000 A 
ATOM     28  C   UNL     1       0.635  -0.712   0.000  0.00  0.00    +0.000 A 
ATOM     29  C   UNL     1       1.349  -1.125   0.000  0.00  0.00    +0.000 A 
ATOM     30  C   UNL     1       2.064  -0.712   0.000  0.00  0.00    +0.000 A 
BRANCH  25  33
ATOM     31  C   UNL     1       2.779   1.350   0.000  0.00  0.00    +0.000 A 
ATOM     32  C   UNL     1       3.493   1.763   0.000  0.00  0.00    +0.000 A 
ATOM     33  C   UNL     1       2.779   0.525   0.000  0.00  0.00    +0.000 A 
ATOM     34  C   UNL     1       3.493   0.113   0.000  0.00  0.00    +0.000 A 
ATOM     35  C   UNL     1       4.207   0.525   0.000  0.00  0.00    +0.000 A 
ATOM     36  C   UNL     1       4.207   1.350   0.000  0.00  0.00    +0.000 A 
BRANCH  31  37
ATOM     37  C   UNL     1       2.004   1.738   0.000  0.00  0.00    +0.000 A 
ATOM     38  N   UNL     1       1.893   2.531   0.000  0.00  0.00    +0.000 NA
ATOM     39  N   UNL     1       1.266   1.369   0.000  0.00  0.00    +0.000 NA
ATOM     40  C   UNL     1       1.081   2.660   0.000  0.00  0.00    +0.000 A 
ATOM     41  O   UNL     1       0.712   1.922   0.000  0.00  0.00    +0.000 OA
ATOM     42  O   UNL     1       0.731   3.435   0.000  0.00  0.00    +0.000 OA
ENDBRANCH  31  37
ENDBRANCH  25  33
ENDBRANCH  24  28
ENDBRANCH   2  24
TORSDOF 10
