REMARK  Name = 
REMARK  6 active torsions:
REMARK  status: ('A' for Active; 'I' for Inactive)
REMARK    1  A    between atoms: C_3  and  C_7
REMARK    2  A    between atoms: C_8  and  C_9
REMARK    3  A    between atoms: N_11  and  C_12
REMARK    4  A    between atoms: C_12  and  C_13
REMARK    5  A    between atoms: C_16  and  C_19
REMARK    6  A    between atoms: N_21  and  C_22
REMARK                            x       y       z     vdW  Elec       q    Type
REMARK                         _______ _______ _______ _____ _____    ______ ____
ROOT
ATOM      1  C   UNL     1       6.430  -3.712   0.000  0.00  0.00    +0.000 A 
ATOM      2  C   UNL     1       6.430  -2.888   0.000  0.00  0.00    +0.000 A 
ATOM      3  C   UNL     1       7.145  -2.475   0.000  0.00  0.00    +0.000 A 
ATOM      4  C   UNL     1       7.859  -2.888   0.000  0.00  0.00    +0.000 A 
ATOM      5  C   UNL     1       7.859  -3.712   0.000  0.00  0.00    +0.000 A 
ATOM      6  C   UNL     1       7.145  -4.125   0.000  0.00  0.00    +0.000 A 
ENDROOT
BRANCH   4   7
ATOM      7  C   UNL     1       8.574  -2.475   0.000  0.00  0.00    +0.000 C 
ATOM      8  O   UNL     1       9.288  -2.888   0.000  0.00  0.00    +0.000 OA
ATOM      9  N   UNL     1       8.574  -1.650   0.000  0.00  0.00    +0.000 NA
BRANCH   9  10
ATOM     10  C   UNL     1       9.288  -1.238   0.000  0.00  0.00    +0.000 A 
ATOM     11  C   UNL     1       9.288  -0.412   0.000  0.00  0.00    +0.000 A 
ATOM     12  C   UNL     1      10.003   0.000   0.000  0.00  0.00    +0.000 A 
ATOM     13  C   UNL     1      10.717  -0.412   0.000  0.00  0.00    +0.000 A 
ATOM     14  C   UNL     1      10.717  -1.238   0.000  0.00  0.00    +0.000 A 
ATOM     15  C   UNL     1      10.003  -1.650   0.000  0.00  0.00    +0.000 A 
ATOM     16  N   UNL     1      10.003  -2.475   0.000  0.00  0.00    +0.000 NA
ATOM     17  F   UNL     1      11.431   0.000   0.000  0.00  0.00    +0.000 F 
ENDBRANCH   9  10
ENDBRANCH   4   7
BRANCH   1  18
ATOM     18  C   UNL     1       5.716  -4.125   0.000  0.00  0.00    +0.000 C 
BRANCH  18  21
ATOM     19  C   UNL     1       5.001  -5.362   0.000  0.00  0.00    +0.000 C 
ATOM     20  O   UNL     1       4.287  -4.950   0.000  0.00  0.00    +0.000 OA
ATOM     21  N   UNL     1       5.716  -4.950   0.000  0.00  0.00    +0.000 NA
BRANCH  19  23
ATOM     22  C   UNL     1       4.287  -6.600   0.000  0.00  0.00    +0.000 C 
ATOM     23  C   UNL     1       5.001  -6.188   0.000  0.00  0.00    +0.000 C 
BRANCH  22  26
ATOM     24  C   UNL     1       3.572  -8.662   0.000  0.00  0.00    +0.000 A 
ATOM     25  C   UNL     1       3.572  -7.838   0.000  0.00  0.00    +0.000 A 
ATOM     26  C   UNL     1       4.287  -7.425   0.000  0.00  0.00    +0.000 A 
ATOM     27  C   UNL     1       5.001  -7.838   0.000  0.00  0.00    +0.000 A 
ATOM     28  N   UNL     1       5.001  -8.662   0.000  0.00  0.00    +0.000 NA
ATOM     29  C   UNL     1       4.287  -9.075   0.000  0.00  0.00    +0.000 A 
ENDBRANCH  22  26
ENDBRANCH  19  23
ENDBRANCH  18  21
ENDBRANCH   1  18
TORSDOF 6
