REMARK  Name = 
REMARK  2 active torsions:
REMARK  status: ('A' for Active; 'I' for Inactive)
REMARK    1  A    between atoms: C_5  and  C_6
REMARK    2  A    between atoms: C_20  and  N_23
REMARK                            x       y       z     vdW  Elec       q    Type
REMARK                         _______ _______ _______ _____ _____    ______ ____
ROOT
ATOM      1  C   UNL     1       0.376   0.326   0.000  0.00  0.00    +0.000 C 
ATOM      2  C   UNL     1       0.807  -0.378   0.000  0.00  0.00    +0.000 A 
ATOM      3  C   UNL     1       1.629  -0.443   0.000  0.00  0.00    +0.000 A 
ATOM      4  N   UNL     1       2.136   0.208   0.000  0.00  0.00    +0.000 NA
ATOM      5  C   UNL     1       2.961   0.217   0.000  0.00  0.00    +0.000 C 
ATOM      6  C   UNL     1       3.483  -0.422   0.000  0.00  0.00    +0.000 A 
ATOM      7  C   UNL     1       3.308  -1.228   0.000  0.00  0.00    +0.000 A 
ATOM      8  N   UNL     1       2.569  -1.594   0.000  0.00  0.00    +0.000 NA
ATOM      9  C   UNL     1       1.822  -1.245   0.000  0.00  0.00    +0.000 A 
ATOM     10  N   UNL     1       1.118  -1.676   0.000  0.00  0.00    +0.000 NA
ATOM     11  N   UNL     1       0.491  -1.140   0.000  0.00  0.00    +0.000 NA
ATOM     12  C   UNL     1       3.919  -1.782   0.000  0.00  0.00    +0.000 A 
ATOM     13  C   UNL     1       4.705  -1.530   0.000  0.00  0.00    +0.000 A 
ATOM     14  N   UNL     1       4.880  -0.724   0.000  0.00  0.00    +0.000 NA
ATOM     15  C   UNL     1       4.269  -0.170   0.000  0.00  0.00    +0.000 A 
ENDROOT
BRANCH   5  16
ATOM     16  C   UNL     1       3.311   0.965   0.000  0.00  0.00    +0.000 A 
ATOM     17  C   UNL     1       2.839   1.641   0.000  0.00  0.00    +0.000 A 
ATOM     18  C   UNL     1       3.188   2.388   0.000  0.00  0.00    +0.000 A 
ATOM     19  C   UNL     1       4.010   2.459   0.000  0.00  0.00    +0.000 A 
ATOM     20  C   UNL     1       4.483   1.783   0.000  0.00  0.00    +0.000 A 
ATOM     21  C   UNL     1       4.133   1.036   0.000  0.00  0.00    +0.000 A 
ATOM     22 CL   UNL     1       4.605   0.359   0.000  0.00  0.00    +0.000 Cl
ENDBRANCH   5  16
BRANCH  13  23
ATOM     23  N   UNL     1       5.316  -2.085   0.000  0.00  0.00    +0.000 N 
ATOM     24  C   UNL     1       6.101  -1.833   0.000  0.00  0.00    +0.000 C 
ATOM     25  C   UNL     1       6.713  -2.387   0.000  0.00  0.00    +0.000 C 
ATOM     26  O   UNL     1       6.538  -3.193   0.000  0.00  0.00    +0.000 OA
ATOM     27  C   UNL     1       5.752  -3.446   0.000  0.00  0.00    +0.000 C 
ATOM     28  C   UNL     1       5.141  -2.891   0.000  0.00  0.00    +0.000 C 
ENDBRANCH  13  23
TORSDOF 2
