REMARK  Name = 
REMARK  13 active torsions:
REMARK  status: ('A' for Active; 'I' for Inactive)
REMARK    1  A    between atoms: C_2  and  C_3
REMARK    2  A    between atoms: C_3  and  C_4
REMARK    3  A    between atoms: C_4  and  C_5
REMARK    4  A    between atoms: C_5  and  C_6
REMARK    5  A    between atoms: C_6  and  C_7
REMARK    6  A    between atoms: C_7  and  C_8
REMARK    7  A    between atoms: C_8  and  C_9
REMARK    8  A    between atoms: C_9  and  C_10
REMARK    9  A    between atoms: C_10  and  C_11
REMARK   10  A    between atoms: C_11  and  C_12
REMARK   11  A    between atoms: C_12  and  O_13
REMARK   12  A    between atoms: O_13  and  C_14
REMARK   13  A    between atoms: C_16  and  C_17
REMARK                            x       y       z     vdW  Elec       q    Type
REMARK                         _______ _______ _______ _____ _____    ______ ____
ROOT
ATOM      1  C   UNL     1       2.143   0.412   0.000  0.00  0.00    +0.000 C 
ENDROOT
BRANCH   1   2
ATOM      2  C   UNL     1       1.429   0.825   0.000  0.00  0.00    +0.000 C 
BRANCH   2   3
ATOM      3  C   UNL     1       0.714   0.412   0.000  0.00  0.00    +0.000 C 
BRANCH   3   4
ATOM      4  C   UNL     1       0.000   0.825   0.000  0.00  0.00    +0.000 C 
BRANCH   4   5
ATOM      5  C   UNL     1      -0.714   0.412   0.000  0.00  0.00    +0.000 C 
BRANCH   5   6
ATOM      6  C   UNL     1      -1.429   0.825   0.000  0.00  0.00    +0.000 C 
BRANCH   6   7
ATOM      7  C   UNL     1      -2.143   0.412   0.000  0.00  0.00    +0.000 C 
BRANCH   7   8
ATOM      8  C   UNL     1      -2.858   0.825   0.000  0.00  0.00    +0.000 C 
BRANCH   8   9
ATOM      9  C   UNL     1      -3.572   0.412   0.000  0.00  0.00    +0.000 C 
BRANCH   9  10
ATOM     10  C   UNL     1      -4.287   0.825   0.000  0.00  0.00    +0.000 C 
BRANCH  10  12
ATOM     11  C   UNL     1      -5.716   0.825   0.000  0.00  0.00    +0.000 C 
ATOM     12  C   UNL     1      -5.001   0.412   0.000  0.00  0.00    +0.000 C 
ENDBRANCH  10  12
ENDBRANCH   9  10
ENDBRANCH   8   9
ENDBRANCH   7   8
ENDBRANCH   6   7
ENDBRANCH   5   6
ENDBRANCH   4   5
ENDBRANCH   3   4
ENDBRANCH   2   3
ENDBRANCH   1   2
BRANCH   1  13
ATOM     13  O   UNL     1       2.858   0.825   0.000  0.00  0.00    +0.000 OA
BRANCH  13  14
ATOM     14  C   UNL     1       3.572   0.412   0.000  0.00  0.00    +0.000 C 
ATOM     15  O   UNL     1       4.287   0.825   0.000  0.00  0.00    +0.000 OA
ATOM     16  C   UNL     1       5.001   0.412   0.000  0.00  0.00    +0.000 C 
ATOM     17  C   UNL     1       5.001  -0.412   0.000  0.00  0.00    +0.000 C 
ATOM     18  O   UNL     1       5.716  -0.825   0.000  0.00  0.00    +0.000 OA
ATOM     19  C   UNL     1       4.287  -0.825   0.000  0.00  0.00    +0.000 C 
ATOM     20  O   UNL     1       4.287  -1.650   0.000  0.00  0.00    +0.000 OA
ATOM     21  C   UNL     1       3.572  -0.412   0.000  0.00  0.00    +0.000 C 
ATOM     22  O   UNL     1       2.858  -0.825   0.000  0.00  0.00    +0.000 OA
BRANCH  16  23
ATOM     23  C   UNL     1       5.716   0.825   0.000  0.00  0.00    +0.000 C 
ATOM     24  O   UNL     1       5.716   1.650   0.000  0.00  0.00    +0.000 OA
ENDBRANCH  16  23
ENDBRANCH  13  14
ENDBRANCH   1  13
TORSDOF 13
