REMARK  Name = 
REMARK  4 active torsions:
REMARK  status: ('A' for Active; 'I' for Inactive)
REMARK    1  A    between atoms: C_4  and  C_7
REMARK    2  A    between atoms: C_7  and  C_8
REMARK    3  A    between atoms: C_7  and  C_15
REMARK    4  A    between atoms: C_7  and  N_22
REMARK                            x       y       z     vdW  Elec       q    Type
REMARK                         _______ _______ _______ _____ _____    ______ ____
ROOT
ATOM      1  C   UNL     1       2.241   0.289   0.000  0.00  0.00    +0.000 C 
ENDROOT
BRANCH   1   2
ATOM      2  C   UNL     1       1.416   0.289   0.000  0.00  0.00    +0.000 A 
ATOM      3  C   UNL     1       1.004  -0.425   0.000  0.00  0.00    +0.000 A 
ATOM      4  C   UNL     1       0.179  -0.425   0.000  0.00  0.00    +0.000 A 
ATOM      5  C   UNL     1      -0.234   0.289   0.000  0.00  0.00    +0.000 A 
ATOM      6  C   UNL     1       0.179   1.004   0.000  0.00  0.00    +0.000 A 
ATOM      7  C   UNL     1       1.004   1.004   0.000  0.00  0.00    +0.000 A 
ATOM      8  F   UNL     1      -1.059   0.289   0.000  0.00  0.00    +0.000 F 
ENDBRANCH   1   2
BRANCH   1   9
ATOM      9  C   UNL     1       3.066   0.289   0.000  0.00  0.00    +0.000 A 
ATOM     10  C   UNL     1       3.479   1.004   0.000  0.00  0.00    +0.000 A 
ATOM     11  C   UNL     1       4.304   1.004   0.000  0.00  0.00    +0.000 A 
ATOM     12  C   UNL     1       4.716   0.289   0.000  0.00  0.00    +0.000 A 
ATOM     13  C   UNL     1       4.304  -0.425   0.000  0.00  0.00    +0.000 A 
ATOM     14  C   UNL     1       3.479  -0.425   0.000  0.00  0.00    +0.000 A 
ATOM     15  F   UNL     1       3.307  -1.232   0.000  0.00  0.00    +0.000 F 
ENDBRANCH   1   9
BRANCH   1  19
ATOM     16  C   UNL     1       2.241   2.764   0.000  0.00  0.00    +0.000 A 
ATOM     17  C   UNL     1       2.956   2.352   0.000  0.00  0.00    +0.000 A 
ATOM     18  C   UNL     1       2.956   1.527   0.000  0.00  0.00    +0.000 A 
ATOM     19  C   UNL     1       2.241   1.114   0.000  0.00  0.00    +0.000 A 
ATOM     20  C   UNL     1       1.527   1.527   0.000  0.00  0.00    +0.000 A 
ATOM     21  C   UNL     1       1.527   2.352   0.000  0.00  0.00    +0.000 A 
ENDBRANCH   1  19
BRANCH   1  22
ATOM     22  N   UNL     1       2.241  -0.536   0.000  0.00  0.00    +0.000 N 
ATOM     23  C   UNL     1       1.574  -1.021   0.000  0.00  0.00    +0.000 A 
ATOM     24  C   UNL     1       1.829  -1.805   0.000  0.00  0.00    +0.000 A 
ATOM     25  N   UNL     1       2.654  -1.805   0.000  0.00  0.00    +0.000 NA
ATOM     26  C   UNL     1       2.909  -1.021   0.000  0.00  0.00    +0.000 A 
ENDBRANCH   1  22
TORSDOF 4
