REMARK  Name = 
REMARK  3 active torsions:
REMARK  status: ('A' for Active; 'I' for Inactive)
REMARK    1  A    between atoms: S_1  and  N_2
REMARK    2  A    between atoms: S_1  and  C_4
REMARK    3  A    between atoms: C_3  and  C_8
REMARK                            x       y       z     vdW  Elec       q    Type
REMARK                         _______ _______ _______ _____ _____    ______ ____
ROOT
ATOM      1  S   UNL     1       0.315  -0.795   0.000  0.00  0.00    +0.000 S 
ATOM      2  O   UNL     1       0.315  -1.622   0.000  0.00  0.00    +0.000 OA
ATOM      3  O   UNL     1       0.307   0.031   0.000  0.00  0.00    +0.000 OA
ENDROOT
BRANCH   1   4
ATOM      4  C   UNL     1      -0.407  -0.382   0.000  0.00  0.00    +0.000 A 
ATOM      5  C   UNL     1      -1.121  -0.795   0.000  0.00  0.00    +0.000 A 
ATOM      6  C   UNL     1      -0.407   0.445   0.000  0.00  0.00    +0.000 A 
ATOM      7  C   UNL     1      -1.835   0.445   0.000  0.00  0.00    +0.000 A 
ATOM      8  N   UNL     1      -2.549   0.858   0.000  0.00  0.00    +0.000 NA
ATOM      9  C   UNL     1      -1.121   0.858   0.000  0.00  0.00    +0.000 A 
ATOM     10  C   UNL     1      -1.835  -0.382   0.000  0.00  0.00    +0.000 A 
ENDBRANCH   1   4
BRANCH   1  11
ATOM     11  N   UNL     1       1.033  -1.209   0.000  0.00  0.00    +0.000 NA
ATOM     12  C   UNL     1       1.781  -0.854   0.000  0.00  0.00    +0.000 C 
ATOM     13  O   UNL     1       2.511  -1.255   0.000  0.00  0.00    +0.000 OA
BRANCH  12  14
ATOM     14  C   UNL     1       1.797  -0.027   0.000  0.00  0.00    +0.000 A 
ATOM     15  C   UNL     1       2.524   0.361   0.000  0.00  0.00    +0.000 A 
ATOM     16  C   UNL     1       1.096   0.399   0.000  0.00  0.00    +0.000 A 
ATOM     17  C   UNL     1       1.117   1.221   0.000  0.00  0.00    +0.000 A 
ATOM     18  C   UNL     1       2.549   1.188   0.000  0.00  0.00    +0.000 A 
ATOM     19  C   UNL     1       1.847   1.622   0.000  0.00  0.00    +0.000 A 
ENDBRANCH  12  14
ENDBRANCH   1  11
TORSDOF 3
