REMARK  Name = 
REMARK  7 active torsions:
REMARK  status: ('A' for Active; 'I' for Inactive)
REMARK    1  A    between atoms: S_2  and  C_3
REMARK    2  A    between atoms: C_6  and  C_9
REMARK    3  A    between atoms: C_9  and  C_11
REMARK    4  A    between atoms: C_12  and  C_13
REMARK    5  A    between atoms: C_17  and  O_18
REMARK    6  A    between atoms: O_18  and  C_19
REMARK    7  A    between atoms: C_19  and  C_22
REMARK                            x       y       z     vdW  Elec       q    Type
REMARK                         _______ _______ _______ _____ _____    ______ ____
ROOT
ATOM      1  C   UNL     1       1.072  -1.650   0.000  0.00  0.00    +0.000 A 
ATOM      2  C   UNL     1       1.072  -2.475   0.000  0.00  0.00    +0.000 A 
ATOM      3  C   UNL     1       0.357  -2.888   0.000  0.00  0.00    +0.000 A 
ATOM      4  C   UNL     1       0.357  -3.712   0.000  0.00  0.00    +0.000 C 
ATOM      5  C   UNL     1      -0.357  -2.475   0.000  0.00  0.00    +0.000 A 
ATOM      6  C   UNL     1      -0.357  -1.650   0.000  0.00  0.00    +0.000 A 
ATOM      7  C   UNL     1      -1.072  -1.238   0.000  0.00  0.00    +0.000 C 
ATOM      8  C   UNL     1       0.357  -1.238   0.000  0.00  0.00    +0.000 A 
ENDROOT
BRANCH   1  10
ATOM      9  C   UNL     1       1.786  -0.412   0.000  0.00  0.00    +0.000 C 
ATOM     10  C   UNL     1       1.786  -1.238   0.000  0.00  0.00    +0.000 C 
BRANCH   9  11
ATOM     11  C   UNL     1       2.501   0.000   0.000  0.00  0.00    +0.000 C 
ATOM     12  O   UNL     1       3.215  -0.412   0.000  0.00  0.00    +0.000 OA
BRANCH  11  16
ATOM     13  C   UNL     1       2.501   2.475   0.000  0.00  0.00    +0.000 A 
ATOM     14  C   UNL     1       3.215   2.062   0.000  0.00  0.00    +0.000 A 
ATOM     15  C   UNL     1       3.215   1.238   0.000  0.00  0.00    +0.000 A 
ATOM     16  C   UNL     1       2.501   0.825   0.000  0.00  0.00    +0.000 A 
ATOM     17  C   UNL     1       1.786   1.238   0.000  0.00  0.00    +0.000 A 
ATOM     18  C   UNL     1       1.786   2.062   0.000  0.00  0.00    +0.000 A 
BRANCH  13  20
ATOM     19  C   UNL     1       1.786   3.712   0.000  0.00  0.00    +0.000 C 
ATOM     20  S   UNL     1       2.501   3.300   0.000  0.00  0.00    +0.000 S 
ENDBRANCH  13  20
ENDBRANCH  11  16
ENDBRANCH   9  11
ENDBRANCH   1  10
BRANCH   5  21
ATOM     21  O   UNL     1      -1.072  -2.888   0.000  0.00  0.00    +0.000 OA
BRANCH  21  22
ATOM     22  C   UNL     1      -1.786  -2.475   0.000  0.00  0.00    +0.000 C 
ATOM     23  C   UNL     1      -1.374  -1.760   0.000  0.00  0.00    +0.000 C 
ATOM     24  C   UNL     1      -2.199  -3.189   0.000  0.00  0.00    +0.000 C 
BRANCH  22  25
ATOM     25  C   UNL     1      -2.501  -2.062   0.000  0.00  0.00    +0.000 C 
ATOM     26  O   UNL     1      -3.215  -2.475   0.000  0.00  0.00    +0.000 OA
ATOM     27  O   UNL     1      -2.501  -1.238   0.000  0.00  0.00    +0.000 OA
ENDBRANCH  22  25
ENDBRANCH  21  22
ENDBRANCH   5  21
TORSDOF 7
