REMARK  Name = 
REMARK  7 active torsions:
REMARK  status: ('A' for Active; 'I' for Inactive)
REMARK    1  A    between atoms: N_5  and  C_6
REMARK    2  A    between atoms: C_6  and  C_7
REMARK    3  A    between atoms: C_8  and  C_34
REMARK    4  A    between atoms: C_10  and  N_11
REMARK    5  A    between atoms: C_12  and  C_14
REMARK    6  A    between atoms: C_16  and  C_17
REMARK    7  A    between atoms: C_18  and  C_19
REMARK                            x       y       z     vdW  Elec       q    Type
REMARK                         _______ _______ _______ _____ _____    ______ ____
ROOT
ATOM      1  N   UNL     1       5.642  -2.602   0.000  0.00  0.00    +0.000 NA
ATOM      2  C   UNL     1       4.928  -2.190   0.000  0.00  0.00    +0.000 C 
ATOM      3  O   UNL     1       4.213  -2.602   0.000  0.00  0.00    +0.000 OA
ENDROOT
BRANCH   2   4
ATOM      4  C   UNL     1       4.928  -1.365   0.000  0.00  0.00    +0.000 A 
ATOM      5  C   UNL     1       4.213  -0.952   0.000  0.00  0.00    +0.000 A 
ATOM      6  C   UNL     1       4.213  -0.127   0.000  0.00  0.00    +0.000 A 
ATOM      7  C   UNL     1       4.928   0.285   0.000  0.00  0.00    +0.000 A 
ATOM      8  C   UNL     1       4.928   1.110   0.000  0.00  0.00    +0.000 C 
ATOM      9  C   UNL     1       5.642  -0.127   0.000  0.00  0.00    +0.000 A 
ATOM     10  C   UNL     1       5.642  -0.952   0.000  0.00  0.00    +0.000 A 
BRANCH   6  11
ATOM     11  C   UNL     1       3.499   0.285   0.000  0.00  0.00    +0.000 C 
ATOM     12  C   UNL     1       2.784   0.698   0.000  0.00  0.00    +0.000 C 
BRANCH  12  13
ATOM     13  C   UNL     1       2.070   1.110   0.000  0.00  0.00    +0.000 A 
ATOM     14  C   UNL     1       1.356   0.698   0.000  0.00  0.00    +0.000 A 
ATOM     15  C   UNL     1       0.641   1.110   0.000  0.00  0.00    +0.000 A 
ATOM     16  C   UNL     1       0.641   1.935   0.000  0.00  0.00    +0.000 A 
ATOM     17  N   UNL     1      -0.143   2.190   0.000  0.00  0.00    +0.000 NA
ATOM     18  N   UNL     1      -0.628   1.523   0.000  0.00  0.00    +0.000 NA
ATOM     19  C   UNL     1      -0.143   0.856   0.000  0.00  0.00    +0.000 A 
ATOM     20  N   UNL     1       1.356   2.348   0.000  0.00  0.00    +0.000 NA
ATOM     21  C   UNL     1       2.070   1.935   0.000  0.00  0.00    +0.000 A 
ENDBRANCH  12  13
ENDBRANCH   6  11
ENDBRANCH   2   4
BRANCH   1  25
ATOM     22  C   UNL     1       5.642  -5.077   0.000  0.00  0.00    +0.000 A 
ATOM     23  C   UNL     1       4.928  -4.665   0.000  0.00  0.00    +0.000 A 
ATOM     24  C   UNL     1       4.928  -3.840   0.000  0.00  0.00    +0.000 A 
ATOM     25  C   UNL     1       5.642  -3.427   0.000  0.00  0.00    +0.000 A 
ATOM     26  C   UNL     1       6.357  -3.840   0.000  0.00  0.00    +0.000 A 
ATOM     27  C   UNL     1       6.357  -4.665   0.000  0.00  0.00    +0.000 A 
BRANCH  23  28
ATOM     28  C   UNL     1       4.213  -5.077   0.000  0.00  0.00    +0.000 C 
ATOM     29  F   UNL     1       3.499  -5.490   0.000  0.00  0.00    +0.000 F 
ATOM     30  F   UNL     1       3.801  -4.363   0.000  0.00  0.00    +0.000 F 
ATOM     31  F   UNL     1       4.626  -5.792   0.000  0.00  0.00    +0.000 F 
ENDBRANCH  23  28
BRANCH  22  32
ATOM     32  C   UNL     1       5.642  -5.902   0.000  0.00  0.00    +0.000 C 
BRANCH  32  37
ATOM     33  C   UNL     1       8.500  -7.552   0.000  0.00  0.00    +0.000 C 
ATOM     34  N   UNL     1       7.786  -7.140   0.000  0.00  0.00    +0.000 NA
ATOM     35  C   UNL     1       7.071  -7.552   0.000  0.00  0.00    +0.000 C 
ATOM     36  C   UNL     1       6.357  -7.140   0.000  0.00  0.00    +0.000 C 
ATOM     37  N   UNL     1       6.357  -6.315   0.000  0.00  0.00    +0.000 NA
ATOM     38  C   UNL     1       7.071  -5.902   0.000  0.00  0.00    +0.000 C 
ATOM     39  C   UNL     1       7.786  -6.315   0.000  0.00  0.00    +0.000 C 
ENDBRANCH  32  37
ENDBRANCH  22  32
ENDBRANCH   1  25
TORSDOF 7
