REMARK  Name = 
REMARK  6 active torsions:
REMARK  status: ('A' for Active; 'I' for Inactive)
REMARK    1  A    between atoms: C_8  and  N_11
REMARK    2  A    between atoms: C_12  and  C_14
REMARK    3  A    between atoms: C_14  and  O_15
REMARK    4  A    between atoms: O_15  and  C_16
REMARK    5  A    between atoms: C_16  and  C_17
REMARK    6  A    between atoms: C_17  and  N_18
REMARK                            x       y       z     vdW  Elec       q    Type
REMARK                         _______ _______ _______ _____ _____    ______ ____
ROOT
ATOM      1  C   UNL     1      -3.176  -1.861   0.000  0.00  0.00    +0.000 C 
ATOM      2  C   UNL     1      -2.535  -1.178   0.000  0.00  0.00    +0.000 C 
ATOM      3  C   UNL     1      -2.371  -1.636   0.000  0.00  0.00    +0.000 C 
ATOM      4  C   UNL     1      -1.823  -1.440   0.000  0.00  0.00    +0.000 C 
ATOM      5  C   UNL     1      -1.619  -1.939   0.000  0.00  0.00    +0.000 C 
ATOM      6  C   UNL     1      -1.076  -1.255   0.000  0.00  0.00    +0.000 C 
ATOM      7  C   UNL     1      -2.374  -0.784   0.000  0.00  0.00    +0.000 C 
ATOM      8  C   UNL     1      -1.817  -0.126   0.000  0.00  0.00    +0.000 C 
ATOM      9  C   UNL     1      -2.539  -0.382   0.000  0.00  0.00    +0.000 C 
ATOM     10  C   UNL     1      -1.070  -0.436   0.000  0.00  0.00    +0.000 C 
ENDROOT
BRANCH   8  11
ATOM     11  N   UNL     1      -1.823   0.697   0.000  0.00  0.00    +0.000 NA
ATOM     12  C   UNL     1      -1.111   1.114   0.000  0.00  0.00    +0.000 C 
ATOM     13  O   UNL     1      -1.116   1.939   0.000  0.00  0.00    +0.000 OA
BRANCH  12  14
ATOM     14  C   UNL     1      -0.394   0.706   0.000  0.00  0.00    +0.000 C 
BRANCH  14  15
ATOM     15  O   UNL     1       0.318   1.123   0.000  0.00  0.00    +0.000 OA
BRANCH  15  16
ATOM     16  C   UNL     1       1.035   0.715   0.000  0.00  0.00    +0.000 C 
BRANCH  16  17
ATOM     17  C   UNL     1       1.747   1.132   0.000  0.00  0.00    +0.000 C 
BRANCH  17  18
ATOM     18  N   UNL     1       2.464   0.724   0.000  0.00  0.00    +0.000 NA
ATOM     19  C   UNL     1       3.176   1.141   0.000  0.00  0.00    +0.000 C 
ATOM     20  C   UNL     1       2.469  -0.101   0.000  0.00  0.00    +0.000 C 
ENDBRANCH  17  18
ENDBRANCH  16  17
ENDBRANCH  15  16
ENDBRANCH  14  15
ENDBRANCH  12  14
ENDBRANCH   8  11
TORSDOF 6
