REMARK  Name = 
REMARK  11 active torsions:
REMARK  status: ('A' for Active; 'I' for Inactive)
REMARK    1  A    between atoms: O_1  and  C_2
REMARK    2  A    between atoms: O_1  and  C_3
REMARK    3  A    between atoms: C_2  and  C_4
REMARK    4  A    between atoms: C_5  and  O_9
REMARK    5  A    between atoms: N_7  and  C_12
REMARK    6  A    between atoms: N_7  and  C_13
REMARK    7  A    between atoms: C_15  and  C_18
REMARK    8  A    between atoms: C_18  and  C_19
REMARK    9  A    between atoms: C_19  and  O_20
REMARK   10  A    between atoms: O_20  and  C_22
REMARK   11  A    between atoms: C_22  and  C_23
REMARK                            x       y       z     vdW  Elec       q    Type
REMARK                         _______ _______ _______ _____ _____    ______ ____
ROOT
ATOM      1  C   UNL     1      -0.715   0.001   0.000  0.00  0.00    +0.000 A 
ATOM      2  C   UNL     1      -0.715   0.826   0.000  0.00  0.00    +0.000 A 
ATOM      3  C   UNL     1       0.001  -0.412   0.000  0.00  0.00    +0.000 A 
ATOM      4  C   UNL     1       0.001   1.237   0.000  0.00  0.00    +0.000 A 
ATOM      5  C   UNL     1       0.713   0.001   0.000  0.00  0.00    +0.000 A 
ATOM      6  C   UNL     1       0.713   0.826   0.000  0.00  0.00    +0.000 A 
ENDROOT
BRANCH   2   7
ATOM      7  O   UNL     1      -1.430   1.237   0.000  0.00  0.00    +0.000 OA
ATOM      8  C   UNL     1      -2.144   0.826   0.000  0.00  0.00    +0.000 C 
ENDBRANCH   2   7
BRANCH   6   9
ATOM      9  C   UNL     1       1.428   1.237   0.000  0.00  0.00    +0.000 C 
BRANCH   9  10
ATOM     10  C   UNL     1       2.142   0.826   0.000  0.00  0.00    +0.000 C 
ATOM     11  O   UNL     1       2.142   0.001   0.000  0.00  0.00    +0.000 OA
BRANCH  10  12
ATOM     12  O   UNL     1       2.857   1.237   0.000  0.00  0.00    +0.000 OA
BRANCH  12  13
ATOM     13  C   UNL     1       3.571   0.826   0.000  0.00  0.00    +0.000 C 
BRANCH  13  14
ATOM     14  C   UNL     1       4.285   1.237   0.000  0.00  0.00    +0.000 C 
ATOM     15  C   UNL     1       5.002   0.826   0.000  0.00  0.00    +0.000 C 
ENDBRANCH  13  14
ENDBRANCH  12  13
ENDBRANCH  10  12
ENDBRANCH   9  10
ENDBRANCH   6   9
BRANCH   1  16
ATOM     16  O   UNL     1      -1.430  -0.412   0.000  0.00  0.00    +0.000 OA
BRANCH  16  17
ATOM     17  C   UNL     1      -2.144   0.001   0.000  0.00  0.00    +0.000 C 
BRANCH  17  18
ATOM     18  C   UNL     1      -2.859  -0.412   0.000  0.00  0.00    +0.000 C 
ATOM     19  N   UNL     1      -3.573   0.001   0.000  0.00  0.00    +0.000 N 
ATOM     20  O   UNL     1      -2.859  -1.237   0.000  0.00  0.00    +0.000 OA
BRANCH  19  21
ATOM     21  C   UNL     1      -3.573   0.826   0.000  0.00  0.00    +0.000 C 
ATOM     22  C   UNL     1      -4.287   1.237   0.000  0.00  0.00    +0.000 C 
ENDBRANCH  19  21
BRANCH  19  23
ATOM     23  C   UNL     1      -4.287  -0.412   0.000  0.00  0.00    +0.000 C 
ATOM     24  C   UNL     1      -5.002   0.001   0.000  0.00  0.00    +0.000 C 
ENDBRANCH  19  23
ENDBRANCH  17  18
ENDBRANCH  16  17
ENDBRANCH   1  16
TORSDOF 11
