REMARK  Name = 
REMARK  3 active torsions:
REMARK  status: ('A' for Active; 'I' for Inactive)
REMARK    1  A    between atoms: C_2  and  N_5
REMARK    2  A    between atoms: C_8  and  C_11
REMARK    3  A    between atoms: C_8  and  C_17
REMARK                            x       y       z     vdW  Elec       q    Type
REMARK                         _______ _______ _______ _____ _____    ______ ____
ROOT
ATOM      1  N   UNL     1       1.102  -2.791   0.000  0.00  0.00    +0.000 NA
ATOM      2  C   UNL     1       0.387  -2.378   0.000  0.00  0.00    +0.000 C 
ATOM      3  C   UNL     1       0.387  -1.553   0.000  0.00  0.00    +0.000 C 
ATOM      4  C   UNL     1       1.102  -1.141   0.000  0.00  0.00    +0.000 C 
ATOM      5  C   UNL     1       1.816  -1.553   0.000  0.00  0.00    +0.000 C 
ATOM      6  C   UNL     1       1.816  -2.378   0.000  0.00  0.00    +0.000 C 
ENDROOT
BRANCH   4   7
ATOM      7  C   UNL     1       0.508  -0.568   0.000  0.00  0.00    +0.000 A 
ATOM      8  C   UNL     1      -0.285  -0.795   0.000  0.00  0.00    +0.000 A 
ATOM      9  C   UNL     1      -0.878  -0.222   0.000  0.00  0.00    +0.000 A 
ATOM     10  C   UNL     1      -0.679   0.578   0.000  0.00  0.00    +0.000 A 
ATOM     11  C   UNL     1       0.115   0.806   0.000  0.00  0.00    +0.000 A 
ATOM     12  C   UNL     1       0.708   0.233   0.000  0.00  0.00    +0.000 A 
ENDBRANCH   4   7
BRANCH   4  13
ATOM     13  C   UNL     1       1.489  -0.412   0.000  0.00  0.00    +0.000 A 
ATOM     14  C   UNL     1       1.052   0.287   0.000  0.00  0.00    +0.000 A 
ATOM     15  C   UNL     1       1.439   1.016   0.000  0.00  0.00    +0.000 A 
ATOM     16  C   UNL     1       2.264   1.044   0.000  0.00  0.00    +0.000 A 
ATOM     17  C   UNL     1       2.701   0.345   0.000  0.00  0.00    +0.000 A 
ATOM     18  C   UNL     1       2.314  -0.384   0.000  0.00  0.00    +0.000 A 
ENDBRANCH   4  13
BRANCH   1  20
ATOM     19  C   UNL     1       1.102  -4.441   0.000  0.00  0.00    +0.000 C 
ATOM     20  C   UNL     1       1.102  -3.616   0.000  0.00  0.00    +0.000 C 
ATOM     21  C   UNL     1       1.927  -3.616   0.000  0.00  0.00    +0.000 C 
ATOM     22  C   UNL     1       0.277  -3.616   0.000  0.00  0.00    +0.000 C 
ENDBRANCH   1  20
TORSDOF 3
