REMARK  Name = 
REMARK  2 active torsions:
REMARK  status: ('A' for Active; 'I' for Inactive)
REMARK    1  A    between atoms: C_8  and  O_20
REMARK    2  A    between atoms: C_15  and  O_20
REMARK                            x       y       z     vdW  Elec       q    Type
REMARK                         _______ _______ _______ _____ _____    ______ ____
ROOT
ATOM      1  C   UNL     1       3.572   2.062   0.000  0.00  0.00    +0.000 C 
ATOM      2  C   UNL     1       1.429   0.825   0.000  0.00  0.00    +0.000 A 
ATOM      3  C   UNL     1       2.143   1.238   0.000  0.00  0.00    +0.000 A 
ATOM      4  C   UNL     1       4.287   0.825   0.000  0.00  0.00    +0.000 A 
ATOM      5  C   UNL     1       2.143  -0.412   0.000  0.00  0.00    +0.000 A 
ATOM      6  C   UNL     1       3.572   1.238   0.000  0.00  0.00    +0.000 A 
ATOM      7  C   UNL     1       1.429   0.000   0.000  0.00  0.00    +0.000 A 
ATOM      8  C   UNL     1       2.858   0.825   0.000  0.00  0.00    +0.000 A 
ATOM      9  C   UNL     1       2.858   0.000   0.000  0.00  0.00    +0.000 A 
ATOM     10  C   UNL     1       4.287   0.000   0.000  0.00  0.00    +0.000 A 
ATOM     11  O   UNL     1       5.001  -0.412   0.000  0.00  0.00    +0.000 OA
ATOM     12  O   UNL     1       3.572  -0.412   0.000  0.00  0.00    +0.000 OA
ENDROOT
BRANCH   7  13
ATOM     13  O   UNL     1       0.715  -0.412   0.000  0.00  0.00    +0.000 OA
BRANCH  13  18
ATOM     14  C   UNL     1      -0.715   1.238   0.000  0.00  0.00    +0.000 C 
ATOM     15  C   UNL     1      -1.429   0.825   0.000  0.00  0.00    +0.000 C 
ATOM     16  C   UNL     1      -1.429   0.000   0.000  0.00  0.00    +0.000 C 
ATOM     17  C   UNL     1      -0.715  -0.412   0.000  0.00  0.00    +0.000 C 
ATOM     18  C   UNL     1       0.000   0.000   0.000  0.00  0.00    +0.000 C 
ATOM     19  O   UNL     1      -2.143   1.238   0.000  0.00  0.00    +0.000 OA
ATOM     20  O   UNL     1      -2.143  -0.412   0.000  0.00  0.00    +0.000 OA
ATOM     21  O   UNL     1      -0.715  -1.238   0.000  0.00  0.00    +0.000 OA
ATOM     22  S   UNL     1       0.000   0.825   0.000  0.00  0.00    +0.000 S 
ENDBRANCH  13  18
ENDBRANCH   7  13
TORSDOF 2
