REMARK  Name = 
REMARK  4 active torsions:
REMARK  status: ('A' for Active; 'I' for Inactive)
REMARK    1  A    between atoms: C_1  and  C_2
REMARK    2  A    between atoms: C_2  and  C_20
REMARK    3  A    between atoms: C_3  and  C_4
REMARK    4  A    between atoms: N_11  and  C_12
REMARK                            x       y       z     vdW  Elec       q    Type
REMARK                         _______ _______ _______ _____ _____    ______ ____
ROOT
ATOM      1  C   UNL     1       0.000   0.357   0.000  0.00  0.00    +0.000 C 
ATOM      2  C   UNL     1       0.412  -0.357   0.000  0.00  0.00    +0.000 C 
ENDROOT
BRANCH   2   3
ATOM      3  C   UNL     1       1.238  -0.357   0.000  0.00  0.00    +0.000 A 
ATOM      4  C   UNL     1       1.650  -1.072   0.000  0.00  0.00    +0.000 A 
ATOM      5  C   UNL     1       2.475  -1.072   0.000  0.00  0.00    +0.000 A 
ATOM      6  C   UNL     1       2.888  -0.357   0.000  0.00  0.00    +0.000 A 
ATOM      7  C   UNL     1       2.475   0.357   0.000  0.00  0.00    +0.000 A 
ATOM      8  C   UNL     1       1.650   0.357   0.000  0.00  0.00    +0.000 A 
ATOM      9  O   UNL     1       3.712  -0.357   0.000  0.00  0.00    +0.000 OA
ATOM     10  O   UNL     1       2.888  -1.786   0.000  0.00  0.00    +0.000 OA
ENDBRANCH   2   3
BRANCH   1  11
ATOM     11  C   UNL     1      -0.825   0.357   0.000  0.00  0.00    +0.000 C 
ATOM     12  O   UNL     1      -1.238   1.072   0.000  0.00  0.00    +0.000 OA
ATOM     13  N   UNL     1      -1.238  -0.357   0.000  0.00  0.00    +0.000 NA
BRANCH  13  14
ATOM     14  C   UNL     1      -2.062  -0.357   0.000  0.00  0.00    +0.000 A 
ATOM     15  C   UNL     1      -2.475  -1.072   0.000  0.00  0.00    +0.000 A 
ATOM     16  C   UNL     1      -3.300  -1.072   0.000  0.00  0.00    +0.000 A 
ATOM     17  C   UNL     1      -3.712  -0.357   0.000  0.00  0.00    +0.000 A 
ATOM     18  C   UNL     1      -3.300   0.357   0.000  0.00  0.00    +0.000 A 
ATOM     19  C   UNL     1      -2.475   0.357   0.000  0.00  0.00    +0.000 A 
ENDBRANCH  13  14
ENDBRANCH   1  11
BRANCH   1  20
ATOM     20  C   UNL     1       0.412   1.072   0.000  0.00  0.00    +0.000 C 
ATOM     21  N   UNL     1       0.825   1.786   0.000  0.00  0.00    +0.000 NA
ENDBRANCH   1  20
TORSDOF 4
