REMARK  Name = 
REMARK  3 active torsions:
REMARK  status: ('A' for Active; 'I' for Inactive)
REMARK    1  A    between atoms: C_4  and  C_7
REMARK    2  A    between atoms: C_9  and  N_16
REMARK    3  A    between atoms: N_16  and  C_17
REMARK                            x       y       z     vdW  Elec       q    Type
REMARK                         _______ _______ _______ _____ _____    ______ ____
ROOT
ATOM      1  C   UNL     1       3.352   1.935   0.000  0.00  0.00    +0.000 A 
ATOM      2  N   UNL     1       3.352   1.110   0.000  0.00  0.00    +0.000 NA
ATOM      3  C   UNL     1       2.638   0.698   0.000  0.00  0.00    +0.000 A 
ATOM      4  C   UNL     1       1.923   1.110   0.000  0.00  0.00    +0.000 A 
ATOM      5  C   UNL     1       1.923   1.935   0.000  0.00  0.00    +0.000 A 
ATOM      6  N   UNL     1       2.638   2.348   0.000  0.00  0.00    +0.000 NA
ATOM      7  N   UNL     1       1.139   2.190   0.000  0.00  0.00    +0.000 NA
ATOM      8  C   UNL     1       0.654   1.523   0.000  0.00  0.00    +0.000 A 
ATOM      9  C   UNL     1       1.139   0.856   0.000  0.00  0.00    +0.000 A 
ENDROOT
BRANCH   1  13
ATOM     10  C   UNL     1       5.496   3.173   0.000  0.00  0.00    +0.000 A 
ATOM     11  C   UNL     1       5.496   2.348   0.000  0.00  0.00    +0.000 A 
ATOM     12  C   UNL     1       4.781   1.935   0.000  0.00  0.00    +0.000 A 
ATOM     13  C   UNL     1       4.067   2.348   0.000  0.00  0.00    +0.000 A 
ATOM     14  C   UNL     1       4.067   3.173   0.000  0.00  0.00    +0.000 A 
ATOM     15  C   UNL     1       4.781   3.585   0.000  0.00  0.00    +0.000 A 
ENDBRANCH   1  13
BRANCH   3  16
ATOM     16  N   UNL     1       2.638  -0.127   0.000  0.00  0.00    +0.000 NA
BRANCH  16  17
ATOM     17  C   UNL     1       1.923  -0.540   0.000  0.00  0.00    +0.000 C 
ATOM     18  C   UNL     1       1.923  -1.365   0.000  0.00  0.00    +0.000 C 
ATOM     19  C   UNL     1       1.209  -1.777   0.000  0.00  0.00    +0.000 C 
ATOM     20  C   UNL     1       0.494  -1.365   0.000  0.00  0.00    +0.000 C 
ATOM     21  C   UNL     1       0.494  -0.540   0.000  0.00  0.00    +0.000 C 
ATOM     22  C   UNL     1       1.209  -0.127   0.000  0.00  0.00    +0.000 C 
ATOM     23  O   UNL     1      -0.220  -1.777   0.000  0.00  0.00    +0.000 OA
ENDBRANCH  16  17
ENDBRANCH   3  16
TORSDOF 3
