REMARK  Name = 
REMARK  5 active torsions:
REMARK  status: ('A' for Active; 'I' for Inactive)
REMARK    1  A    between atoms: N_4  and  CA_5
REMARK    2  A    between atoms: CA_5  and  CB_6
REMARK    3  A    between atoms: CA_5  and  C_11
REMARK    4  A    between atoms: CB_6  and  CG_7
REMARK    5  A    between atoms: CG_7  and  CD_8
REMARK                            x       y       z     vdW  Elec       q    Type
REMARK                         _______ _______ _______ _____ _____    ______ ____
ROOT
ATOM      1  CA  GLN A   1       3.189   1.841   0.000  0.00  0.00    +0.000 C 
ENDROOT
BRANCH   1   5
ATOM      2  C   UNK A   0       1.046   1.429   0.000  0.00  0.00    +0.000 C 
ATOM      3  C   UNK A   0       1.760   1.841   0.000  0.00  0.00    +0.000 C 
ATOM      4  O   UNK A   0       1.760   2.666   0.000  0.00  0.00    +0.000 OA
ATOM      5  N   GLN A   1       2.475   1.429   0.000  0.00  0.00    +0.000 NA
ENDBRANCH   1   5
BRANCH   1   6
ATOM      6  C   GLN A   1       3.189   2.666   0.000  0.00  0.00    +0.000 C 
ATOM      7  O   GLN A   1       3.904   3.079   0.000  0.00  0.00    +0.000 OA
ATOM      8  OXT GLN A   1       2.475   3.079   0.000  0.00  0.00    +0.000 OA
ENDBRANCH   1   6
BRANCH   1   9
ATOM      9  CB  GLN A   1       3.904   1.429   0.000  0.00  0.00    +0.000 C 
BRANCH   9  10
ATOM     10  CG  GLN A   1       4.618   1.841   0.000  0.00  0.00    +0.000 C 
BRANCH  10  11
ATOM     11  CD  GLN A   1       5.333   1.429   0.000  0.00  0.00    +0.000 C 
ATOM     12  OE1 GLN A   1       6.047   1.841   0.000  0.00  0.00    +0.000 OA
ATOM     13  NE2 GLN A   1       5.333   0.604   0.000  0.00  0.00    +0.000 NA
ENDBRANCH  10  11
ENDBRANCH   9  10
ENDBRANCH   1   9
TORSDOF 5
