REMARK  Name = 
REMARK  9 active torsions:
REMARK  status: ('A' for Active; 'I' for Inactive)
REMARK    1  A    between atoms: C_2  and  N_4
REMARK    2  A    between atoms: N_4  and  C_5
REMARK    3  A    between atoms: N_4  and  C_29
REMARK    4  A    between atoms: C_5  and  C_6
REMARK    5  A    between atoms: C_6  and  N_7
REMARK    6  A    between atoms: C_8  and  C_10
REMARK    7  A    between atoms: C_16  and  C_18
REMARK    8  A    between atoms: C_20  and  O_27
REMARK    9  A    between atoms: C_21  and  O_25
REMARK                            x       y       z     vdW  Elec       q    Type
REMARK                         _______ _______ _______ _____ _____    ______ ____
ROOT
ATOM      1  C   UNL     1       0.753  -4.451   0.000  0.00  0.00    +0.000 A 
ATOM      2  C   UNL     1       0.268  -5.119   0.000  0.00  0.00    +0.000 A 
ATOM      3  S   UNL     1      -0.516  -4.864   0.000  0.00  0.00    +0.000 S 
ATOM      4  C   UNL     1      -0.516  -4.039   0.000  0.00  0.00    +0.000 A 
ATOM      5  N   UNL     1       0.268  -3.784   0.000  0.00  0.00    +0.000 NA
ATOM      6  N   UNL     1      -1.184  -3.554   0.000  0.00  0.00    +0.000 NA
ATOM      7  C   UNL     1      -1.937  -3.889   0.000  0.00  0.00    +0.000 C 
ATOM      8  O   UNL     1      -2.024  -4.710   0.000  0.00  0.00    +0.000 OA
ENDROOT
BRANCH   7   9
ATOM      9  C   UNL     1      -2.605  -3.404   0.000  0.00  0.00    +0.000 A 
ATOM     10  C   UNL     1      -3.358  -3.740   0.000  0.00  0.00    +0.000 A 
ATOM     11  C   UNL     1      -4.026  -3.255   0.000  0.00  0.00    +0.000 A 
ATOM     12  C   UNL     1      -3.940  -2.435   0.000  0.00  0.00    +0.000 A 
ATOM     13  C   UNL     1      -3.186  -2.099   0.000  0.00  0.00    +0.000 A 
ATOM     14  C   UNL     1      -2.519  -2.584   0.000  0.00  0.00    +0.000 A 
ATOM     15  O   UNL     1      -1.765  -2.248   0.000  0.00  0.00    +0.000 OA
BRANCH  11  16
ATOM     16  O   UNL     1      -4.780  -3.591   0.000  0.00  0.00    +0.000 OA
ATOM     17  C   UNL     1      -5.447  -3.106   0.000  0.00  0.00    +0.000 C 
ENDBRANCH  11  16
BRANCH  12  18
ATOM     18  O   UNL     1      -4.607  -1.950   0.000  0.00  0.00    +0.000 OA
ATOM     19  C   UNL     1      -5.361  -2.285   0.000  0.00  0.00    +0.000 C 
ENDBRANCH  12  18
ENDBRANCH   7   9
BRANCH   1  21
ATOM     20  N   UNL     1       1.991  -5.166   0.000  0.00  0.00    +0.000 NA
ATOM     21  C   UNL     1       1.578  -4.451   0.000  0.00  0.00    +0.000 C 
ATOM     22  O   UNL     1       1.991  -3.737   0.000  0.00  0.00    +0.000 OA
BRANCH  20  23
ATOM     23  C   UNL     1       2.816  -5.166   0.000  0.00  0.00    +0.000 C 
BRANCH  23  24
ATOM     24  C   UNL     1       3.228  -5.880   0.000  0.00  0.00    +0.000 C 
BRANCH  24  25
ATOM     25  N   UNL     1       4.053  -5.880   0.000  0.00  0.00    +0.000 NA
BRANCH  25  27
ATOM     26  C   UNL     1       5.291  -6.595   0.000  0.00  0.00    +0.000 C 
ATOM     27  C   UNL     1       4.466  -6.595   0.000  0.00  0.00    +0.000 C 
ATOM     28  C   UNL     1       4.053  -7.309   0.000  0.00  0.00    +0.000 C 
ENDBRANCH  25  27
BRANCH  25  29
ATOM     29  C   UNL     1       4.466  -5.166   0.000  0.00  0.00    +0.000 C 
ATOM     30  C   UNL     1       4.053  -4.451   0.000  0.00  0.00    +0.000 C 
ATOM     31  C   UNL     1       5.291  -5.166   0.000  0.00  0.00    +0.000 C 
ENDBRANCH  25  29
ENDBRANCH  24  25
ENDBRANCH  23  24
ENDBRANCH  20  23
ENDBRANCH   1  21
TORSDOF 9
