REMARK  Name = 
REMARK  17 active torsions:
REMARK  status: ('A' for Active; 'I' for Inactive)
REMARK    1  A    between atoms: C_2  and  C_3
REMARK    2  A    between atoms: C_5  and  C_6
REMARK    3  A    between atoms: C_5  and  N_9
REMARK    4  A    between atoms: C_10  and  C_12
REMARK    5  A    between atoms: C_14  and  O_34
REMARK    6  A    between atoms: C_17  and  C_19
REMARK    7  A    between atoms: C_19  and  C_20
REMARK    8  A    between atoms: C_19  and  N_24
REMARK    9  A    between atoms: C_25  and  O_27
REMARK   10  A    between atoms: O_27  and  C_28
REMARK   11  A    between atoms: O_34  and  C_35
REMARK   12  A    between atoms: C_37  and  C_55
REMARK   13  A    between atoms: C_43  and  O_46
REMARK   14  A    between atoms: O_46  and  C_47
REMARK   15  A    between atoms: C_47  and  C_48
REMARK   16  A    between atoms: C_48  and  N_49
REMARK   17  A    between atoms: N_60  and  C_61
REMARK                            x       y       z     vdW  Elec       q    Type
REMARK                         _______ _______ _______ _____ _____    ______ ____
ROOT
ATOM      1  C   UNL     1      -1.608   2.229   0.000  0.00  0.00    +0.000 C 
ATOM      2  C   UNL     1      -0.801   2.058   0.000  0.00  0.00    +0.000 C 
ATOM      3  C   UNL     1      -0.715   1.238   0.000  0.00  0.00    +0.000 C 
ATOM      4  C   UNL     1      -1.468   0.902   0.000  0.00  0.00    +0.000 C 
ATOM      5  N   UNL     1      -2.020   1.515   0.000  0.00  0.00    +0.000 N 
ATOM      6  C   UNL     1      -2.841   1.429   0.000  0.00  0.00    +0.000 C 
ATOM      7  O   UNL     1      -3.326   2.096   0.000  0.00  0.00    +0.000 OA
ENDROOT
BRANCH   1   9
ATOM      8  N   UNL     1      -1.458   3.651   0.000  0.00  0.00    +0.000 NA
ATOM      9  C   UNL     1      -1.943   2.983   0.000  0.00  0.00    +0.000 C 
ATOM     10  O   UNL     1      -2.764   3.069   0.000  0.00  0.00    +0.000 OA
BRANCH   8  13
ATOM     11  C   UNL     1      -2.619   4.419   0.000  0.00  0.00    +0.000 C 
ATOM     12  C   UNL     1      -2.194   5.126   0.000  0.00  0.00    +0.000 C 
ATOM     13  C   UNL     1      -1.794   4.404   0.000  0.00  0.00    +0.000 C 
BRANCH  13  14
ATOM     14  C   UNL     1      -0.971   4.462   0.000  0.00  0.00    +0.000 C 
ATOM     15  O   UNL     1      -0.609   5.203   0.000  0.00  0.00    +0.000 OA
ATOM     16  O   UNL     1      -0.509   3.778   0.000  0.00  0.00    +0.000 OA
ENDBRANCH  13  14
BRANCH  11  18
ATOM     17  C   UNL     1      -4.048   4.444   0.000  0.00  0.00    +0.000 C 
ATOM     18  C   UNL     1      -3.340   4.019   0.000  0.00  0.00    +0.000 C 
ENDBRANCH  11  18
ENDBRANCH   8  13
ENDBRANCH   1   9
BRANCH   3  19
ATOM     19  O   UNL     1       0.000   0.825   0.000  0.00  0.00    +0.000 OA
BRANCH  19  20
ATOM     20  C   UNL     1       0.000   0.000   0.000  0.00  0.00    +0.000 A 
ATOM     21  C   UNL     1      -0.715  -0.412   0.000  0.00  0.00    +0.000 A 
ATOM     22  C   UNL     1      -0.715  -1.238   0.000  0.00  0.00    +0.000 A 
ATOM     23  N   UNL     1       0.000  -1.650   0.000  0.00  0.00    +0.000 NA
ATOM     24  C   UNL     1       0.715  -1.238   0.000  0.00  0.00    +0.000 A 
ATOM     25  C   UNL     1       0.715  -0.412   0.000  0.00  0.00    +0.000 A 
ATOM     26  C   UNL     1       1.429   0.000   0.000  0.00  0.00    +0.000 A 
ATOM     27  C   UNL     1       2.143  -0.412   0.000  0.00  0.00    +0.000 A 
ATOM     28  C   UNL     1       2.143  -1.238   0.000  0.00  0.00    +0.000 A 
ATOM     29  C   UNL     1       1.429  -1.650   0.000  0.00  0.00    +0.000 A 
ATOM     30 CL   UNL     1       1.429  -2.475   0.000  0.00  0.00    +0.000 Cl
BRANCH  22  31
ATOM     31  C   UNL     1      -1.429  -1.650   0.000  0.00  0.00    +0.000 A 
ATOM     32  C   UNL     1      -2.183  -1.314   0.000  0.00  0.00    +0.000 A 
ATOM     33  S   UNL     1      -2.735  -1.927   0.000  0.00  0.00    +0.000 S 
ATOM     34  C   UNL     1      -2.322  -2.642   0.000  0.00  0.00    +0.000 A 
ATOM     35  N   UNL     1      -1.515  -2.470   0.000  0.00  0.00    +0.000 NA
ATOM     36  N   UNL     1      -2.658  -3.396   0.000  0.00  0.00    +0.000 NA
BRANCH  36  37
ATOM     37  C   UNL     1      -3.478  -3.482   0.000  0.00  0.00    +0.000 C 
ATOM     38  C   UNL     1      -3.963  -2.814   0.000  0.00  0.00    +0.000 C 
ATOM     39  C   UNL     1      -3.814  -4.236   0.000  0.00  0.00    +0.000 C 
ENDBRANCH  36  37
ENDBRANCH  22  31
BRANCH  28  40
ATOM     40  O   UNL     1       2.858  -1.650   0.000  0.00  0.00    +0.000 OA
BRANCH  40  41
ATOM     41  C   UNL     1       3.572  -1.238   0.000  0.00  0.00    +0.000 C 
BRANCH  41  42
ATOM     42  C   UNL     1       4.287  -1.650   0.000  0.00  0.00    +0.000 C 
BRANCH  42  43
ATOM     43  N   UNL     1       5.001  -1.238   0.000  0.00  0.00    +0.000 NA
ATOM     44  C   UNL     1       5.001  -0.412   0.000  0.00  0.00    +0.000 C 
ATOM     45  C   UNL     1       5.716   0.000   0.000  0.00  0.00    +0.000 C 
ATOM     46  O   UNL     1       6.430  -0.412   0.000  0.00  0.00    +0.000 OA
ATOM     47  C   UNL     1       6.430  -1.238   0.000  0.00  0.00    +0.000 C 
ATOM     48  C   UNL     1       5.716  -1.650   0.000  0.00  0.00    +0.000 C 
ENDBRANCH  42  43
ENDBRANCH  41  42
ENDBRANCH  40  41
ENDBRANCH  28  40
ENDBRANCH  19  20
ENDBRANCH   3  19
BRANCH   6  49
ATOM     49  C   UNL     1      -3.176   0.675   0.000  0.00  0.00    +0.000 C 
BRANCH  49  50
ATOM     50  C   UNL     1      -2.691   0.008   0.000  0.00  0.00    +0.000 C 
ATOM     51  C   UNL     1      -2.206  -0.660   0.000  0.00  0.00    +0.000 C 
ATOM     52  C   UNL     1      -2.024   0.493   0.000  0.00  0.00    +0.000 C 
ATOM     53  C   UNL     1      -3.359  -0.477   0.000  0.00  0.00    +0.000 C 
ENDBRANCH  49  50
BRANCH  49  54
ATOM     54  N   UNL     1      -3.997   0.589   0.000  0.00  0.00    +0.000 NA
ATOM     55  C   UNL     1      -4.332  -0.165   0.000  0.00  0.00    +0.000 C 
ATOM     56  O   UNL     1      -3.847  -0.832   0.000  0.00  0.00    +0.000 OA
BRANCH  55  57
ATOM     57  O   UNL     1      -5.153  -0.251   0.000  0.00  0.00    +0.000 OA
BRANCH  57  58
ATOM     58  C   UNL     1      -5.638   0.416   0.000  0.00  0.00    +0.000 C 
ATOM     59  C   UNL     1      -6.463   0.416   0.000  0.00  0.00    +0.000 C 
ATOM     60  C   UNL     1      -6.718   1.201   0.000  0.00  0.00    +0.000 C 
ATOM     61  C   UNL     1      -6.804   2.022   0.000  0.00  0.00    +0.000 C 
ATOM     62  C   UNL     1      -6.050   1.686   0.000  0.00  0.00    +0.000 C 
ATOM     63  C   UNL     1      -5.383   1.201   0.000  0.00  0.00    +0.000 C 
ENDBRANCH  57  58
ENDBRANCH  55  57
ENDBRANCH  49  54
ENDBRANCH   6  49
TORSDOF 17
