REMARK  Name = 
REMARK  12 active torsions:
REMARK  status: ('A' for Active; 'I' for Inactive)
REMARK    1  A    between atoms: C_5  and  C_14
REMARK    2  A    between atoms: C_5  and  C_15
REMARK    3  A    between atoms: C_14  and  O_28
REMARK    4  A    between atoms: C_15  and  O_29
REMARK    5  A    between atoms: C_18  and  O_30
REMARK    6  A    between atoms: C_19  and  O_31
REMARK    7  A    between atoms: C_20  and  C_22
REMARK    8  A    between atoms: C_20  and  O_28
REMARK    9  A    between atoms: C_21  and  C_23
REMARK   10  A    between atoms: C_21  and  O_29
REMARK   11  A    between atoms: C_22  and  O_30
REMARK   12  A    between atoms: C_23  and  O_31
REMARK                            x       y       z     vdW  Elec       q    Type
REMARK                         _______ _______ _______ _____ _____    ______ ____
ROOT
ATOM      1  C   UNL     1      12.861   4.950   0.000  0.00  0.00    +0.000 C 
ENDROOT
BRANCH   1   2
ATOM      2  C   UNL     1      13.575   5.362   0.000  0.00  0.00    +0.000 C 
BRANCH   2   3
ATOM      3  O   UNL     1      13.575   6.188   0.000  0.00  0.00    +0.000 OA
BRANCH   3   4
ATOM      4  C   UNL     1      14.289   6.600   0.000  0.00  0.00    +0.000 C 
ATOM      5  O   UNL     1      15.004   6.188   0.000  0.00  0.00    +0.000 OA
BRANCH   4   8
ATOM      6  C   UNL     1      15.114   7.425   0.000  0.00  0.00    +0.000 C 
ATOM      7  C   UNL     1      13.464   7.425   0.000  0.00  0.00    +0.000 C 
ATOM      8  C   UNL     1      14.289   7.425   0.000  0.00  0.00    +0.000 C 
BRANCH   8   9
ATOM      9  O   UNL     1      14.289   8.250   0.000  0.00  0.00    +0.000 OA
BRANCH   9  15
ATOM     10  C   UNL     1      15.718   9.900   0.000  0.00  0.00    +0.000 A 
ATOM     11  C   UNL     1      16.433   8.662   0.000  0.00  0.00    +0.000 A 
ATOM     12  C   UNL     1      15.004   9.488   0.000  0.00  0.00    +0.000 A 
ATOM     13  C   UNL     1      15.718   8.250   0.000  0.00  0.00    +0.000 A 
ATOM     14  C   UNL     1      16.433   9.488   0.000  0.00  0.00    +0.000 A 
ATOM     15  C   UNL     1      15.004   8.662   0.000  0.00  0.00    +0.000 A 
ATOM     16 CL   UNL     1      17.147   9.900   0.000  0.00  0.00    +0.000 Cl
ENDBRANCH   9  15
ENDBRANCH   8   9
ENDBRANCH   4   8
ENDBRANCH   3   4
ENDBRANCH   2   3
ENDBRANCH   1   2
BRANCH   1  17
ATOM     17  C   UNL     1      12.861   4.125   0.000  0.00  0.00    +0.000 C 
BRANCH  17  18
ATOM     18  O   UNL     1      12.146   3.712   0.000  0.00  0.00    +0.000 OA
BRANCH  18  19
ATOM     19  C   UNL     1      12.146   2.888   0.000  0.00  0.00    +0.000 C 
ATOM     20  O   UNL     1      12.861   2.475   0.000  0.00  0.00    +0.000 OA
BRANCH  19  23
ATOM     21  C   UNL     1      11.844   1.760   0.000  0.00  0.00    +0.000 C 
ATOM     22  C   UNL     1      11.019   3.189   0.000  0.00  0.00    +0.000 C 
ATOM     23  C   UNL     1      11.431   2.475   0.000  0.00  0.00    +0.000 C 
BRANCH  23  24
ATOM     24  O   UNL     1      10.717   2.062   0.000  0.00  0.00    +0.000 OA
BRANCH  24  30
ATOM     25  C   UNL     1      11.431   0.000   0.000  0.00  0.00    +0.000 A 
ATOM     26  C   UNL     1      10.003   0.000   0.000  0.00  0.00    +0.000 A 
ATOM     27  C   UNL     1      11.431   0.825   0.000  0.00  0.00    +0.000 A 
ATOM     28  C   UNL     1      10.003   0.825   0.000  0.00  0.00    +0.000 A 
ATOM     29  C   UNL     1      10.717  -0.412   0.000  0.00  0.00    +0.000 A 
ATOM     30  C   UNL     1      10.717   1.238   0.000  0.00  0.00    +0.000 A 
ATOM     31 CL   UNL     1      10.717  -1.238   0.000  0.00  0.00    +0.000 Cl
ENDBRANCH  24  30
ENDBRANCH  23  24
ENDBRANCH  19  23
ENDBRANCH  18  19
ENDBRANCH  17  18
ENDBRANCH   1  17
TORSDOF 12
