REMARK  Name = 
REMARK  3 active torsions:
REMARK  status: ('A' for Active; 'I' for Inactive)
REMARK    1  A    between atoms: C_4  and  C_5
REMARK    2  A    between atoms: C_6  and  C_7
REMARK    3  A    between atoms: C_16  and  C_17
REMARK                            x       y       z     vdW  Elec       q    Type
REMARK                         _______ _______ _______ _____ _____    ______ ____
ROOT
ATOM      1  O   UNL     1       0.621  -2.505   0.000  0.00  0.00    +0.000 OA
ATOM      2  C   UNL     1       0.209  -1.790   0.000  0.00  0.00    +0.000 A 
ATOM      3  C   UNL     1       0.621  -1.075   0.000  0.00  0.00    +0.000 A 
ATOM      4  C   UNL     1       0.209  -0.361   0.000  0.00  0.00    +0.000 A 
ATOM      5  C   UNL     1      -0.621  -0.361   0.000  0.00  0.00    +0.000 A 
ATOM      6  C   UNL     1      -1.033  -1.075   0.000  0.00  0.00    +0.000 A 
ATOM      7  O   UNL     1      -1.858  -1.075   0.000  0.00  0.00    +0.000 OA
ATOM      8  C   UNL     1      -0.621  -1.790   0.000  0.00  0.00    +0.000 A 
ENDROOT
BRANCH   8   9
ATOM      9  C   UNL     1      -1.033  -2.505   0.000  0.00  0.00    +0.000 C 
ATOM     10  C   UNL     1      -1.858  -2.505   0.000  0.00  0.00    +0.000 C 
ATOM     11  C   UNL     1      -0.621  -3.220   0.000  0.00  0.00    +0.000 C 
ENDBRANCH   8   9
BRANCH   4  12
ATOM     12  C   UNL     1       0.621   0.361   0.000  0.00  0.00    +0.000 C 
ATOM     13  C   UNL     1       0.209   1.075   0.000  0.00  0.00    +0.000 C 
BRANCH  13  14
ATOM     14  C   UNL     1       0.621   1.790   0.000  0.00  0.00    +0.000 A 
ATOM     15  C   UNL     1       1.446   1.790   0.000  0.00  0.00    +0.000 A 
ATOM     16  C   UNL     1       1.858   2.505   0.000  0.00  0.00    +0.000 A 
ATOM     17  C   UNL     1       1.446   3.220   0.000  0.00  0.00    +0.000 A 
ATOM     18  C   UNL     1       0.621   3.220   0.000  0.00  0.00    +0.000 A 
ATOM     19  C   UNL     1       0.209   2.505   0.000  0.00  0.00    +0.000 A 
ENDBRANCH  13  14
ENDBRANCH   4  12
TORSDOF 3
