REMARK  Name = 
REMARK  6 active torsions:
REMARK  status: ('A' for Active; 'I' for Inactive)
REMARK    1  A    between atoms: C_1  and  N_17
REMARK    2  A    between atoms: C_4  and  N_7
REMARK    3  A    between atoms: C_10  and  O_18
REMARK    4  A    between atoms: O_18  and  C_19
REMARK    5  A    between atoms: C_23  and  N_25
REMARK    6  A    between atoms: C_26  and  C_27
REMARK                            x       y       z     vdW  Elec       q    Type
REMARK                         _______ _______ _______ _____ _____    ______ ____
ROOT
ATOM      1  N   UNL     1      -0.666  -2.060   0.000  0.00  0.00    +0.000 NA
ATOM      2  C   UNL     1       0.048  -1.647   0.000  0.00  0.00    +0.000 A 
ATOM      3  N   UNL     1       0.048  -0.822   0.000  0.00  0.00    +0.000 NA
ATOM      4  C   UNL     1       0.761  -0.411   0.000  0.00  0.00    +0.000 A 
ATOM      5  C   UNL     1       1.476  -0.824   0.000  0.00  0.00    +0.000 A 
ATOM      6  C   UNL     1       1.477  -1.645   0.000  0.00  0.00    +0.000 A 
ATOM      7  N   UNL     1       0.766  -2.062   0.000  0.00  0.00    +0.000 NA
ATOM      8  N   UNL     1       2.251  -1.897   0.000  0.00  0.00    +0.000 NA
ATOM      9  C   UNL     1       2.734  -1.236   0.000  0.00  0.00    +0.000 A 
ATOM     10  C   UNL     1       2.258  -0.576   0.000  0.00  0.00    +0.000 A 
ENDROOT
BRANCH   1  14
ATOM     11  C   UNL     1      -2.807  -0.822   0.000  0.00  0.00    +0.000 A 
ATOM     12  C   UNL     1      -2.093  -0.410   0.000  0.00  0.00    +0.000 A 
ATOM     13  C   UNL     1      -1.381  -0.822   0.000  0.00  0.00    +0.000 A 
ATOM     14  C   UNL     1      -1.381  -1.647   0.000  0.00  0.00    +0.000 A 
ATOM     15  C   UNL     1      -2.091  -2.059   0.000  0.00  0.00    +0.000 A 
ATOM     16  C   UNL     1      -2.807  -1.651   0.000  0.00  0.00    +0.000 A 
ATOM     17  F   UNL     1      -2.093   0.415   0.000  0.00  0.00    +0.000 F 
BRANCH  11  18
ATOM     18  N   UNL     1      -3.522  -0.410   0.000  0.00  0.00    +0.000 N 
ATOM     19  C   UNL     1      -4.237  -0.822   0.000  0.00  0.00    +0.000 C 
ATOM     20  C   UNL     1      -4.951  -0.410   0.000  0.00  0.00    +0.000 C 
ATOM     21  N   UNL     1      -4.951   0.415   0.000  0.00  0.00    +0.000 NA
ATOM     22  C   UNL     1      -4.237   0.828   0.000  0.00  0.00    +0.000 C 
ATOM     23  C   UNL     1      -3.522   0.415   0.000  0.00  0.00    +0.000 C 
ATOM     24  C   UNL     1      -5.665   0.828   0.000  0.00  0.00    +0.000 C 
ENDBRANCH  11  18
ENDBRANCH   1  14
BRANCH   4  25
ATOM     25  O   UNL     1       0.761   0.413   0.000  0.00  0.00    +0.000 OA
BRANCH  25  26
ATOM     26  C   UNL     1       1.476   0.826   0.000  0.00  0.00    +0.000 A 
ATOM     27  C   UNL     1       1.476   1.651   0.000  0.00  0.00    +0.000 A 
ATOM     28  C   UNL     1       2.188   2.062   0.000  0.00  0.00    +0.000 A 
ATOM     29  C   UNL     1       2.903   1.649   0.000  0.00  0.00    +0.000 A 
ATOM     30  C   UNL     1       2.905   0.828   0.000  0.00  0.00    +0.000 A 
ATOM     31  C   UNL     1       2.193   0.411   0.000  0.00  0.00    +0.000 A 
BRANCH  30  32
ATOM     32  N   UNL     1       3.702   0.615   0.000  0.00  0.00    +0.000 NA
ATOM     33  C   UNL     1       4.285   1.198   0.000  0.00  0.00    +0.000 C 
ATOM     34  O   UNL     1       4.072   1.995   0.000  0.00  0.00    +0.000 OA
BRANCH  33  35
ATOM     35  C   UNL     1       5.082   0.984   0.000  0.00  0.00    +0.000 C 
ATOM     36  C   UNL     1       5.665   1.568   0.000  0.00  0.00    +0.000 C 
ENDBRANCH  33  35
ENDBRANCH  30  32
ENDBRANCH  25  26
ENDBRANCH   4  25
TORSDOF 6
