REMARK  Name = 
REMARK  4 active torsions:
REMARK  status: ('A' for Active; 'I' for Inactive)
REMARK    1  A    between atoms: C_6  and  C_7
REMARK    2  A    between atoms: C_7  and  C_8
REMARK    3  A    between atoms: C_8  and  N_9
REMARK    4  A    between atoms: N_18  and  C_19
REMARK                            x       y       z     vdW  Elec       q    Type
REMARK                         _______ _______ _______ _____ _____    ______ ____
ROOT
ATOM      1  N   UNL     1      -1.429  -1.650   0.000  0.00  0.00    +0.000 N 
ATOM      2  N   UNL     1      -1.429  -2.475   0.000  0.00  0.00    +0.000 NA
ATOM      3  N   UNL     1      -0.715  -2.888   0.000  0.00  0.00    +0.000 NA
ATOM      4  C   UNL     1       0.000  -2.475   0.000  0.00  0.00    +0.000 A 
ATOM      5  C   UNL     1       0.715  -2.888   0.000  0.00  0.00    +0.000 A 
ATOM      6  C   UNL     1       1.429  -2.475   0.000  0.00  0.00    +0.000 A 
ATOM      7  C   UNL     1       1.429  -1.650   0.000  0.00  0.00    +0.000 A 
ATOM      8  O   UNL     1       2.143  -1.238   0.000  0.00  0.00    +0.000 OA
ATOM      9  C   UNL     1       2.858  -1.650   0.000  0.00  0.00    +0.000 C 
ATOM     10  N   UNL     1       2.858  -2.475   0.000  0.00  0.00    +0.000 N 
ATOM     11  C   UNL     1       2.143  -2.888   0.000  0.00  0.00    +0.000 C 
ATOM     12  O   UNL     1       2.143  -3.712   0.000  0.00  0.00    +0.000 OA
ATOM     13  C   UNL     1       0.715  -1.238   0.000  0.00  0.00    +0.000 A 
ATOM     14  C   UNL     1       0.000  -1.650   0.000  0.00  0.00    +0.000 A 
ATOM     15  C   UNL     1      -0.715  -1.238   0.000  0.00  0.00    +0.000 A 
ATOM     16  O   UNL     1      -0.715  -0.412   0.000  0.00  0.00    +0.000 OA
ENDROOT
BRANCH  10  17
ATOM     17  C   UNL     1       3.572  -2.888   0.000  0.00  0.00    +0.000 C 
ATOM     18  C   UNL     1       4.397  -2.888   0.000  0.00  0.00    +0.000 C 
ATOM     19  C   UNL     1       3.985  -3.602   0.000  0.00  0.00    +0.000 C 
ENDBRANCH  10  17
BRANCH   1  20
ATOM     20  C   UNL     1      -2.143  -1.238   0.000  0.00  0.00    +0.000 C 
BRANCH  20  21
ATOM     21  C   UNL     1      -2.143  -0.412   0.000  0.00  0.00    +0.000 C 
BRANCH  21  27
ATOM     22  F   UNL     1      -5.001  -0.412   0.000  0.00  0.00    +0.000 F 
ATOM     23  C   UNL     1      -4.287   0.000   0.000  0.00  0.00    +0.000 A 
ATOM     24  C   UNL     1      -4.287   0.825   0.000  0.00  0.00    +0.000 A 
ATOM     25  C   UNL     1      -3.572   1.238   0.000  0.00  0.00    +0.000 A 
ATOM     26  C   UNL     1      -2.858   0.825   0.000  0.00  0.00    +0.000 A 
ATOM     27  C   UNL     1      -2.858   0.000   0.000  0.00  0.00    +0.000 A 
ATOM     28  C   UNL     1      -3.572  -0.412   0.000  0.00  0.00    +0.000 A 
ENDBRANCH  21  27
ENDBRANCH  20  21
ENDBRANCH   1  20
TORSDOF 4
