REMARK  Name = 
REMARK  13 active torsions:
REMARK  status: ('A' for Active; 'I' for Inactive)
REMARK    1  A    between atoms: C_2  and  C_3
REMARK    2  A    between atoms: C_3  and  C_4
REMARK    3  A    between atoms: C_4  and  C_5
REMARK    4  A    between atoms: C_5  and  C_6
REMARK    5  A    between atoms: C_6  and  C_7
REMARK    6  A    between atoms: C_7  and  O_8
REMARK    7  A    between atoms: O_8  and  C_9
REMARK    8  A    between atoms: C_12  and  C_13
REMARK    9  A    between atoms: C_13  and  C_14
REMARK   10  A    between atoms: C_14  and  C_15
REMARK   11  A    between atoms: C_15  and  C_17
REMARK   12  A    between atoms: C_15  and  C_19
REMARK   13  A    between atoms: C_22  and  C_23
REMARK                            x       y       z     vdW  Elec       q    Type
REMARK                         _______ _______ _______ _____ _____    ______ ____
ROOT
ATOM      1  C   UNL     1       7.859  -5.362   0.000  0.00  0.00    +0.000 A 
ATOM      2  C   UNL     1       8.574  -4.950   0.000  0.00  0.00    +0.000 A 
ATOM      3  C   UNL     1       9.288  -5.362   0.000  0.00  0.00    +0.000 A 
ATOM      4  C   UNL     1       9.288  -6.188   0.000  0.00  0.00    +0.000 A 
ATOM      5  C   UNL     1       8.574  -6.600   0.000  0.00  0.00    +0.000 A 
ATOM      6  C   UNL     1       7.859  -6.188   0.000  0.00  0.00    +0.000 A 
ENDROOT
BRANCH   6   7
ATOM      7  C   UNL     1       7.145  -6.600   0.000  0.00  0.00    +0.000 C 
ATOM      8  F   UNL     1       6.430  -7.013   0.000  0.00  0.00    +0.000 F 
ATOM      9  F   UNL     1       6.732  -5.886   0.000  0.00  0.00    +0.000 F 
ATOM     10  F   UNL     1       7.557  -7.314   0.000  0.00  0.00    +0.000 F 
ENDBRANCH   6   7
BRANCH   1  11
ATOM     11  O   UNL     1       7.145  -4.950   0.000  0.00  0.00    +0.000 OA
BRANCH  11  12
ATOM     12  C   UNL     1       6.430  -5.362   0.000  0.00  0.00    +0.000 C 
BRANCH  12  13
ATOM     13  C   UNL     1       5.716  -4.950   0.000  0.00  0.00    +0.000 C 
BRANCH  13  14
ATOM     14  C   UNL     1       5.001  -5.362   0.000  0.00  0.00    +0.000 C 
BRANCH  14  15
ATOM     15  C   UNL     1       4.287  -4.950   0.000  0.00  0.00    +0.000 C 
BRANCH  15  16
ATOM     16  C   UNL     1       3.572  -5.362   0.000  0.00  0.00    +0.000 C 
BRANCH  16  18
ATOM     17  C   UNL     1       2.143  -5.362   0.000  0.00  0.00    +0.000 C 
ATOM     18  C   UNL     1       2.858  -4.950   0.000  0.00  0.00    +0.000 C 
ENDBRANCH  16  18
ENDBRANCH  15  16
ENDBRANCH  14  15
ENDBRANCH  13  14
ENDBRANCH  12  13
ENDBRANCH  11  12
ENDBRANCH   1  11
BRANCH   4  19
ATOM     19  C   UNL     1      10.003  -6.600   0.000  0.00  0.00    +0.000 C 
BRANCH  19  20
ATOM     20  C   UNL     1      10.717  -6.188   0.000  0.00  0.00    +0.000 C 
BRANCH  20  21
ATOM     21  C   UNL     1      11.431  -6.600   0.000  0.00  0.00    +0.000 C 
ATOM     22  N   UNL     1      11.019  -7.314   0.000  0.00  0.00    +0.000 NA
BRANCH  21  23
ATOM     23  C   UNL     1      11.844  -5.886   0.000  0.00  0.00    +0.000 C 
ATOM     24  O   UNL     1      12.669  -5.886   0.000  0.00  0.00    +0.000 OA
ENDBRANCH  21  23
BRANCH  21  25
ATOM     25  C   UNL     1      12.146  -7.013   0.000  0.00  0.00    +0.000 C 
ATOM     26  O   UNL     1      12.861  -6.600   0.000  0.00  0.00    +0.000 OA
ENDBRANCH  21  25
ENDBRANCH  20  21
ENDBRANCH  19  20
ENDBRANCH   4  19
TORSDOF 13
