REMARK  Name = 
REMARK  6 active torsions:
REMARK  status: ('A' for Active; 'I' for Inactive)
REMARK    1  A    between atoms: O_2  and  C_3
REMARK    2  A    between atoms: C_8  and  C_13
REMARK    3  A    between atoms: C_13  and  C_15
REMARK    4  A    between atoms: C_15  and  O_17
REMARK    5  A    between atoms: O_17  and  C_18
REMARK    6  A    between atoms: C_21  and  C_24
REMARK                            x       y       z     vdW  Elec       q    Type
REMARK                         _______ _______ _______ _____ _____    ______ ____
ROOT
ATOM      1  C   UNL     1       4.287  -1.650   0.000  0.00  0.00    +0.000 C 
ATOM      2  C   UNL     1       4.287  -2.475   0.000  0.00  0.00    +0.000 C 
ENDROOT
BRANCH   1   8
ATOM      3  C   UNL     1       0.715  -0.412   0.000  0.00  0.00    +0.000 A 
ATOM      4  C   UNL     1       1.429   0.000   0.000  0.00  0.00    +0.000 A 
ATOM      5  C   UNL     1       2.143  -0.412   0.000  0.00  0.00    +0.000 A 
ATOM      6  C   UNL     1       2.858   0.000   0.000  0.00  0.00    +0.000 A 
ATOM      7  C   UNL     1       3.572  -0.412   0.000  0.00  0.00    +0.000 A 
ATOM      8  C   UNL     1       3.572  -1.238   0.000  0.00  0.00    +0.000 A 
ATOM      9  C   UNL     1       2.858  -1.650   0.000  0.00  0.00    +0.000 A 
ATOM     10  C   UNL     1       2.143  -1.238   0.000  0.00  0.00    +0.000 A 
ATOM     11  C   UNL     1       1.429  -1.650   0.000  0.00  0.00    +0.000 A 
ATOM     12  C   UNL     1       0.715  -1.238   0.000  0.00  0.00    +0.000 A 
BRANCH   3  14
ATOM     13  C   UNL     1      -0.715  -0.412   0.000  0.00  0.00    +0.000 C 
ATOM     14  O   UNL     1       0.000   0.000   0.000  0.00  0.00    +0.000 OA
ENDBRANCH   3  14
ENDBRANCH   1   8
BRANCH   1  15
ATOM     15  C   UNL     1       5.001  -1.238   0.000  0.00  0.00    +0.000 C 
ATOM     16  O   UNL     1       5.716  -1.650   0.000  0.00  0.00    +0.000 OA
BRANCH  15  17
ATOM     17  O   UNL     1       5.001  -0.412   0.000  0.00  0.00    +0.000 OA
BRANCH  17  18
ATOM     18  C   UNL     1       5.716   0.000   0.000  0.00  0.00    +0.000 A 
ATOM     19  C   UNL     1       5.716   0.825   0.000  0.00  0.00    +0.000 A 
ATOM     20  C   UNL     1       6.430   1.238   0.000  0.00  0.00    +0.000 A 
ATOM     21  C   UNL     1       7.145   0.825   0.000  0.00  0.00    +0.000 A 
ATOM     22  C   UNL     1       7.145   0.000   0.000  0.00  0.00    +0.000 A 
ATOM     23  C   UNL     1       6.430  -0.412   0.000  0.00  0.00    +0.000 A 
BRANCH  21  24
ATOM     24  C   UNL     1       7.859   1.238   0.000  0.00  0.00    +0.000 C 
ATOM     25  N   UNL     1       7.859   2.062   0.000  0.00  0.00    +0.000 NA
ATOM     26  S   UNL     1       8.574   0.825   0.000  0.00  0.00    +0.000 S 
ENDBRANCH  21  24
ENDBRANCH  17  18
ENDBRANCH  15  17
ENDBRANCH   1  15
TORSDOF 6
