REMARK  Name = 
REMARK  5 active torsions:
REMARK  status: ('A' for Active; 'I' for Inactive)
REMARK    1  A    between atoms: N_2  and  C_3
REMARK    2  A    between atoms: C_3  and  C_4
REMARK    3  A    between atoms: C_4  and  C_5
REMARK    4  A    between atoms: C_7  and  O_14
REMARK    5  A    between atoms: C_9  and  O_11
REMARK                            x       y       z     vdW  Elec       q    Type
REMARK                         _______ _______ _______ _____ _____    ______ ____
ROOT
ATOM      1  C   UNL     1       0.715   1.238   0.000  0.00  0.00    +0.000 A 
ATOM      2  C   UNL     1       1.429   0.825   0.000  0.00  0.00    +0.000 A 
ATOM      3  C   UNL     1       1.429   0.000   0.000  0.00  0.00    +0.000 A 
ATOM      4  C   UNL     1       0.715  -0.412   0.000  0.00  0.00    +0.000 A 
ATOM      5  C   UNL     1       0.000   0.000   0.000  0.00  0.00    +0.000 A 
ATOM      6  C   UNL     1       0.000   0.825   0.000  0.00  0.00    +0.000 A 
ATOM      7  O   UNL     1       0.715  -1.238   0.000  0.00  0.00    +0.000 OA
ENDROOT
BRANCH   1   8
ATOM      8  C   UNL     1       0.715   2.062   0.000  0.00  0.00    +0.000 C 
ATOM      9  O   UNL     1       0.000   2.475   0.000  0.00  0.00    +0.000 OA
BRANCH   8  10
ATOM     10  C   UNL     1       1.429   2.475   0.000  0.00  0.00    +0.000 C 
BRANCH  10  12
ATOM     11  C   UNL     1       2.143   3.712   0.000  0.00  0.00    +0.000 C 
ATOM     12  N   UNL     1       1.429   3.300   0.000  0.00  0.00    +0.000 NA
ENDBRANCH  10  12
ENDBRANCH   8  10
ENDBRANCH   1   8
BRANCH   5  13
ATOM     13  O   UNL     1      -0.715  -0.412   0.000  0.00  0.00    +0.000 OA
ATOM     14  C   UNL     1      -0.715  -1.238   0.000  0.00  0.00    +0.000 C 
ENDBRANCH   5  13
BRANCH   3  15
ATOM     15  O   UNL     1       2.143  -0.412   0.000  0.00  0.00    +0.000 OA
ATOM     16  C   UNL     1       2.143  -1.238   0.000  0.00  0.00    +0.000 C 
ENDBRANCH   3  15
TORSDOF 5
