REMARK  Name = 
REMARK  7 active torsions:
REMARK  status: ('A' for Active; 'I' for Inactive)
REMARK    1  A    between atoms: C_7  and  C_14
REMARK    2  A    between atoms: C_7  and  O_15
REMARK    3  A    between atoms: O_15  and  C_20
REMARK    4  A    between atoms: C_20  and  C_23
REMARK    5  A    between atoms: C_23  and  C_26
REMARK    6  A    between atoms: C_26  and  C_28
REMARK    7  A    between atoms: C_28  and  C_29
REMARK                            x       y       z     vdW  Elec       q    Type
REMARK                         _______ _______ _______ _____ _____    ______ ____
ROOT
ATOM      1  C   UNL     1      -0.820  -0.466   0.000  0.00  0.00    +0.000 C 
ATOM      2  C   UNL     1      -1.537  -0.859   0.000  0.00  0.00    +0.000 C 
ATOM      3  C   UNL     1      -0.820   0.359   0.000  0.00  0.00    +0.000 C 
ATOM      4  C   UNL     1      -0.035  -0.721   0.000  0.00  0.00    +0.000 C 
ATOM      5  C   UNL     1      -2.230  -0.411   0.000  0.00  0.00    +0.000 C 
ATOM      6  C   UNL     1      -1.537  -1.655   0.000  0.00  0.00    +0.000 C 
ATOM      7  C   UNL     1      -0.035   0.614   0.000  0.00  0.00    +0.000 C 
ATOM      8  C   UNL     1      -1.513   0.777   0.000  0.00  0.00    +0.000 C 
ATOM      9  C   UNL     1      -0.820   1.269   0.000  0.00  0.00    +0.000 C 
ATOM     10  C   UNL     1       0.450  -0.053   0.000  0.00  0.00    +0.000 C 
ATOM     11  C   UNL     1      -2.923  -0.859   0.000  0.00  0.00    +0.000 C 
ATOM     12  C   UNL     1      -2.216   0.330   0.000  0.00  0.00    +0.000 C 
ATOM     13  C   UNL     1      -2.216  -2.095   0.000  0.00  0.00    +0.000 C 
ATOM     14  C   UNL     1      -2.923  -1.655   0.000  0.00  0.00    +0.000 C 
ATOM     15  C   UNL     1      -3.620  -0.411   0.000  0.00  0.00    +0.000 C 
ATOM     16  C   UNL     1      -3.616  -2.095   0.000  0.00  0.00    +0.000 C 
ATOM     17  C   UNL     1      -4.334  -0.859   0.000  0.00  0.00    +0.000 C 
ATOM     18  C   UNL     1      -4.334  -1.655   0.000  0.00  0.00    +0.000 C 
ATOM     19  O   UNL     1      -5.027  -2.095   0.000  0.00  0.00    +0.000 OA
ENDROOT
BRANCH   7  20
ATOM     20  C   UNL     1      -0.006   1.611   0.000  0.00  0.00    +0.000 C 
ATOM     21  C   UNL     1       0.738   1.974   0.000  0.00  0.00    +0.000 C 
ATOM     22  O   UNL     1      -0.627   2.095   0.000  0.00  0.00    +0.000 OA
ENDBRANCH   7  20
BRANCH   7  23
ATOM     23  O   UNL     1       0.799   1.071   0.000  0.00  0.00    +0.000 OA
BRANCH  23  24
ATOM     24  C   UNL     1       1.523   0.623   0.000  0.00  0.00    +0.000 C 
ATOM     25  O   UNL     1       1.523  -0.118   0.000  0.00  0.00    +0.000 OA
BRANCH  24  26
ATOM     26  C   UNL     1       2.226   1.084   0.000  0.00  0.00    +0.000 C 
BRANCH  26  27
ATOM     27  C   UNL     1       2.957   0.623   0.000  0.00  0.00    +0.000 C 
BRANCH  27  28
ATOM     28  C   UNL     1       3.640   1.043   0.000  0.00  0.00    +0.000 C 
BRANCH  28  29
ATOM     29  C   UNL     1       4.296   0.589   0.000  0.00  0.00    +0.000 C 
ATOM     30  C   UNL     1       5.027   1.071   0.000  0.00  0.00    +0.000 C 
ENDBRANCH  28  29
ENDBRANCH  27  28
ENDBRANCH  26  27
ENDBRANCH  24  26
ENDBRANCH  23  24
ENDBRANCH   7  23
TORSDOF 7
