REMARK  Name = 
REMARK  2 active torsions:
REMARK  status: ('A' for Active; 'I' for Inactive)
REMARK    1  A    between atoms: C_1  and  O_2
REMARK    2  A    between atoms: O_2  and  S_5
REMARK                            x       y       z     vdW  Elec       q    Type
REMARK                         _______ _______ _______ _____ _____    ______ ____
ROOT
ATOM      1  C   UNL     1      -0.357  -0.151   0.000  0.00  0.00    +0.000 A 
ATOM      2  C   UNL     1       0.357  -0.564   0.000  0.00  0.00    +0.000 A 
ATOM      3  C   UNL     1      -1.072  -0.564   0.000  0.00  0.00    +0.000 A 
ATOM      4  C   UNL     1       0.357  -1.389   0.000  0.00  0.00    +0.000 A 
ATOM      5  C   UNL     1      -1.072  -1.389   0.000  0.00  0.00    +0.000 A 
ATOM      6  C   UNL     1      -0.357  -1.801   0.000  0.00  0.00    +0.000 A 
ENDROOT
BRANCH   1   7
ATOM      7  O   UNL     1      -0.357   0.674   0.000  0.00  0.00    +0.000 OA
BRANCH   7   8
ATOM      8  S   UNL     1       0.357   1.087   0.000  0.00  0.00    +0.000 S 
ATOM      9  O   UNL     1       0.770   0.372   0.000  0.00  0.00    +0.000 OA
ATOM     10  O   UNL     1      -0.055   1.801   0.000  0.00  0.00    +0.000 OA
ATOM     11  O   UNL     1       1.072   1.499   0.000  0.00  0.00    +0.000 OA
ENDBRANCH   7   8
ENDBRANCH   1   7
TORSDOF 2
