REMARK  Name = 
REMARK  10 active torsions:
REMARK  status: ('A' for Active; 'I' for Inactive)
REMARK    1  A    between atoms: C_5  and  C_6
REMARK    2  A    between atoms: C_6  and  C_7
REMARK    3  A    between atoms: C_10  and  O_11
REMARK    4  A    between atoms: O_11  and  C_12
REMARK    5  A    between atoms: C_12  and  C_13
REMARK    6  A    between atoms: C_13  and  N_14
REMARK    7  A    between atoms: N_14  and  C_15
REMARK    8  A    between atoms: C_17  and  O_18
REMARK    9  A    between atoms: O_18  and  C_19
REMARK   10  A    between atoms: C_22  and  O_23
REMARK                            x       y       z     vdW  Elec       q    Type
REMARK                         _______ _______ _______ _____ _____    ______ ____
ROOT
ATOM      1  C   UNL     1      -1.176  -0.621   0.000  0.00  0.00    +0.000 C 
ENDROOT
BRANCH   1   2
ATOM      2  N   UNL     1      -2.001  -0.621   0.000  0.00  0.00    +0.000 N 
ATOM      3  C   UNL     1      -2.419  -1.334   0.000  0.00  0.00    +0.000 C 
BRANCH   2   4
ATOM      4  C   UNL     1      -2.419   0.092   0.000  0.00  0.00    +0.000 A 
ATOM      5  C   UNL     1      -2.001   0.804   0.000  0.00  0.00    +0.000 A 
ATOM      6  C   UNL     1      -2.419   1.518   0.000  0.00  0.00    +0.000 A 
ATOM      7  N   UNL     1      -3.244   1.518   0.000  0.00  0.00    +0.000 NA
ATOM      8  C   UNL     1      -3.651   0.804   0.000  0.00  0.00    +0.000 A 
ATOM      9  N   UNL     1      -3.244   0.092   0.000  0.00  0.00    +0.000 NA
BRANCH   6  10
ATOM     10  O   UNL     1      -2.001   2.230   0.000  0.00  0.00    +0.000 OA
BRANCH  10  11
ATOM     11  C   UNL     1      -2.419   2.954   0.000  0.00  0.00    +0.000 A 
ATOM     12  C   UNL     1      -2.001   3.666   0.000  0.00  0.00    +0.000 A 
ATOM     13  C   UNL     1      -2.419   4.379   0.000  0.00  0.00    +0.000 A 
ATOM     14  C   UNL     1      -3.244   4.379   0.000  0.00  0.00    +0.000 A 
ATOM     15  C   UNL     1      -3.651   3.666   0.000  0.00  0.00    +0.000 A 
ATOM     16  C   UNL     1      -3.244   2.954   0.000  0.00  0.00    +0.000 A 
BRANCH  14  17
ATOM     17  O   UNL     1      -3.651   5.092   0.000  0.00  0.00    +0.000 OA
ATOM     18  C   UNL     1      -4.476   5.092   0.000  0.00  0.00    +0.000 C 
ENDBRANCH  14  17
ENDBRANCH  10  11
ENDBRANCH   6  10
ENDBRANCH   2   4
ENDBRANCH   1   2
BRANCH   1  19
ATOM     19  C   UNL     1      -0.769  -1.334   0.000  0.00  0.00    +0.000 C 
BRANCH  19  20
ATOM     20  O   UNL     1       0.056  -1.334   0.000  0.00  0.00    +0.000 OA
BRANCH  20  24
ATOM     21  C   UNL     1       1.298  -3.483   0.000  0.00  0.00    +0.000 A 
ATOM     22  C   UNL     1       1.706  -2.770   0.000  0.00  0.00    +0.000 A 
ATOM     23  C   UNL     1       1.298  -2.047   0.000  0.00  0.00    +0.000 A 
ATOM     24  C   UNL     1       0.473  -2.047   0.000  0.00  0.00    +0.000 A 
ATOM     25  C   UNL     1       0.056  -2.770   0.000  0.00  0.00    +0.000 A 
ATOM     26  C   UNL     1       0.473  -3.483   0.000  0.00  0.00    +0.000 A 
BRANCH  21  27
ATOM     27  C   UNL     1       1.706  -4.196   0.000  0.00  0.00    +0.000 C 
BRANCH  27  32
ATOM     28  O   UNL     1       4.476  -5.092   0.000  0.00  0.00    +0.000 OA
ATOM     29  C   UNL     1       3.804  -4.603   0.000  0.00  0.00    +0.000 C 
ATOM     30  N   UNL     1       3.804  -3.778   0.000  0.00  0.00    +0.000 NA
ATOM     31  S   UNL     1       3.020  -4.858   0.000  0.00  0.00    +0.000 S 
ATOM     32  C   UNL     1       2.531  -4.196   0.000  0.00  0.00    +0.000 C 
ATOM     33  C   UNL     1       3.020  -3.524   0.000  0.00  0.00    +0.000 C 
ATOM     34  O   UNL     1       2.765  -2.740   0.000  0.00  0.00    +0.000 OA
ENDBRANCH  27  32
ENDBRANCH  21  27
ENDBRANCH  20  24
ENDBRANCH  19  20
ENDBRANCH   1  19
TORSDOF 10
