REMARK  Name = 
REMARK  1 active torsions:
REMARK  status: ('A' for Active; 'I' for Inactive)
REMARK    1  A    between atoms: C_12  and  C_16
REMARK                            x       y       z     vdW  Elec       q    Type
REMARK                         _______ _______ _______ _____ _____    ______ ____
ROOT
ATOM      1  C   UNL     1       2.623   0.602   0.000  0.00  0.00    +0.000 C 
ATOM      2  C   UNL     1       0.107   0.200   0.000  0.00  0.00    +0.000 C 
ATOM      3  C   UNL     1       2.652   2.784   0.000  0.00  0.00    +0.000 C 
ATOM      4  C   UNL     1       1.840   2.639   0.000  0.00  0.00    +0.000 C 
ATOM      5  C   UNL     1      -0.587   1.761   0.000  0.00  0.00    +0.000 C 
ATOM      6  C   UNL     1       0.096   2.224   0.000  0.00  0.00    +0.000 C 
ATOM      7  C   UNL     1       4.247   0.892   0.000  0.00  0.00    +0.000 C 
ATOM      8  C   UNL     1       3.435   0.747   0.000  0.00  0.00    +0.000 C 
ATOM      9  C   UNL     1       3.996   2.299   0.000  0.00  0.00    +0.000 C 
ATOM     10  C   UNL     1       0.999   0.311   0.000  0.00  0.00    +0.000 C 
ATOM     11  C   UNL     1       3.184   2.154   0.000  0.00  0.00    +0.000 C 
ATOM     12  C   UNL     1       4.528   1.668   0.000  0.00  0.00    +0.000 C 
ATOM     13  C   UNL     1       1.560   1.863   0.000  0.00  0.00    +0.000 C 
ATOM     14  C   UNL     1      -0.357   0.969   0.000  0.00  0.00    +0.000 C 
ATOM     15  C   UNL     1       0.748   1.718   0.000  0.00  0.00    +0.000 C 
ATOM     16  C   UNL     1       1.811   0.457   0.000  0.00  0.00    +0.000 C 
ATOM     17  C   UNL     1       2.091   1.232   0.000  0.00  0.00    +0.000 C 
ATOM     18  C   UNL     1       2.904   1.378   0.000  0.00  0.00    +0.000 C 
ATOM     19  C   UNL     1       0.467   0.942   0.000  0.00  0.00    +0.000 C 
ATOM     20  O   UNL     1       5.340   1.813   0.000  0.00  0.00    +0.000 OA
ATOM     21  O   UNL     1       2.343  -0.174   0.000  0.00  0.00    +0.000 OA
ENDROOT
BRANCH  14  23
ATOM     22  C   UNL     1      -1.681   0.430   0.000  0.00  0.00    +0.000 C 
ATOM     23  C   UNL     1      -0.864   0.318   0.000  0.00  0.00    +0.000 C 
ATOM     24  O   UNL     1      -0.553  -0.447   0.000  0.00  0.00    +0.000 OA
ENDBRANCH  14  23
TORSDOF 1
