REMARK  Name = 
REMARK  10 active torsions:
REMARK  status: ('A' for Active; 'I' for Inactive)
REMARK    1  A    between atoms: C_4  and  N_27
REMARK    2  A    between atoms: C_6  and  C_7
REMARK    3  A    between atoms: N_9  and  C_10
REMARK    4  A    between atoms: C_12  and  C_16
REMARK    5  A    between atoms: N_18  and  C_19
REMARK    6  A    between atoms: C_19  and  C_20
REMARK    7  A    between atoms: C_20  and  N_21
REMARK    8  A    between atoms: C_28  and  C_30
REMARK    9  A    between atoms: C_33  and  C_36
REMARK   10  A    between atoms: C_37  and  C_38
REMARK                            x       y       z     vdW  Elec       q    Type
REMARK                         _______ _______ _______ _____ _____    ______ ____
ROOT
ATOM      1  C   UNL     1      -6.230   2.983   0.000  0.00  0.00    +0.000 C 
ATOM      2  N   UNL     1      -5.894   2.229   0.000  0.00  0.00    +0.000 N 
ATOM      3  C   UNL     1      -5.088   2.058   0.000  0.00  0.00    +0.000 A 
ATOM      4  C   UNL     1      -5.001   1.238   0.000  0.00  0.00    +0.000 A 
ATOM      5  C   UNL     1      -5.755   0.902   0.000  0.00  0.00    +0.000 A 
ATOM      6  C   UNL     1      -6.307   1.515   0.000  0.00  0.00    +0.000 A 
ENDROOT
BRANCH   6   7
ATOM      7  C   UNL     1      -7.128   1.429   0.000  0.00  0.00    +0.000 C 
ATOM      8  O   UNL     1      -7.463   0.675   0.000  0.00  0.00    +0.000 OA
ATOM      9  N   UNL     1      -7.612   2.096   0.000  0.00  0.00    +0.000 NA
BRANCH   9  10
ATOM     10  C   UNL     1      -8.433   2.010   0.000  0.00  0.00    +0.000 A 
ATOM     11  C   UNL     1      -8.845   1.296   0.000  0.00  0.00    +0.000 A 
ATOM     12  C   UNL     1      -9.652   1.467   0.000  0.00  0.00    +0.000 A 
ATOM     13  N   UNL     1      -9.739   2.288   0.000  0.00  0.00    +0.000 N 
ATOM     14  C   UNL     1      -8.985   2.623   0.000  0.00  0.00    +0.000 A 
ATOM     15  C   UNL     1     -10.453   2.700   0.000  0.00  0.00    +0.000 C 
BRANCH  12  16
ATOM     16  C   UNL     1     -10.265   0.915   0.000  0.00  0.00    +0.000 C 
ATOM     17  O   UNL     1     -10.094   0.108   0.000  0.00  0.00    +0.000 OA
ATOM     18  N   UNL     1     -11.050   1.170   0.000  0.00  0.00    +0.000 NA
BRANCH  18  19
ATOM     19  C   UNL     1     -11.663   0.618   0.000  0.00  0.00    +0.000 C 
BRANCH  19  20
ATOM     20  C   UNL     1     -12.448   0.873   0.000  0.00  0.00    +0.000 C 
BRANCH  20  21
ATOM     21  N   UNL     1     -13.061   0.321   0.000  0.00  0.00    +0.000 NA
ATOM     22  C   UNL     1     -12.889  -0.486   0.000  0.00  0.00    +0.000 C 
ATOM     23  C   UNL     1     -13.502  -1.038   0.000  0.00  0.00    +0.000 C 
ATOM     24  O   UNL     1     -14.287  -0.783   0.000  0.00  0.00    +0.000 OA
ATOM     25  C   UNL     1     -14.459   0.024   0.000  0.00  0.00    +0.000 C 
ATOM     26  C   UNL     1     -13.845   0.576   0.000  0.00  0.00    +0.000 C 
ENDBRANCH  20  21
ENDBRANCH  19  20
ENDBRANCH  18  19
ENDBRANCH  12  16
ENDBRANCH   9  10
ENDBRANCH   6   7
BRANCH   4  27
ATOM     27  N   UNL     1      -4.287   0.825   0.000  0.00  0.00    +0.000 NA
ATOM     28  C   UNL     1      -3.572   1.238   0.000  0.00  0.00    +0.000 C 
ATOM     29  O   UNL     1      -3.572   2.062   0.000  0.00  0.00    +0.000 OA
BRANCH  28  30
ATOM     30  C   UNL     1      -2.858   0.825   0.000  0.00  0.00    +0.000 A 
ATOM     31  C   UNL     1      -2.143   1.238   0.000  0.00  0.00    +0.000 A 
ATOM     32  C   UNL     1      -1.429   0.825   0.000  0.00  0.00    +0.000 A 
ATOM     33  C   UNL     1      -1.429   0.000   0.000  0.00  0.00    +0.000 A 
ATOM     34  C   UNL     1      -2.143  -0.412   0.000  0.00  0.00    +0.000 A 
ATOM     35  C   UNL     1      -2.858   0.000   0.000  0.00  0.00    +0.000 A 
BRANCH  33  36
ATOM     36  C   UNL     1      -0.715  -0.412   0.000  0.00  0.00    +0.000 C 
ATOM     37  C   UNL     1       0.000   0.000   0.000  0.00  0.00    +0.000 C 
BRANCH  37  38
ATOM     38  C   UNL     1       0.715  -0.412   0.000  0.00  0.00    +0.000 A 
ATOM     39  C   UNL     1       1.429   0.000   0.000  0.00  0.00    +0.000 A 
ATOM     40  C   UNL     1       2.143  -0.412   0.000  0.00  0.00    +0.000 A 
ATOM     41  C   UNL     1       2.858   0.000   0.000  0.00  0.00    +0.000 A 
ATOM     42  C   UNL     1       3.572  -0.412   0.000  0.00  0.00    +0.000 A 
ATOM     43  C   UNL     1       3.572  -1.238   0.000  0.00  0.00    +0.000 A 
ATOM     44  C   UNL     1       2.858  -1.650   0.000  0.00  0.00    +0.000 A 
ATOM     45  C   UNL     1       2.143  -1.238   0.000  0.00  0.00    +0.000 A 
ATOM     46  N   UNL     1       1.429  -1.650   0.000  0.00  0.00    +0.000 NA
ATOM     47  C   UNL     1       0.715  -1.238   0.000  0.00  0.00    +0.000 A 
ENDBRANCH  37  38
ENDBRANCH  33  36
ENDBRANCH  28  30
ENDBRANCH   4  27
TORSDOF 10
