REMARK  Name = 
REMARK  4 active torsions:
REMARK  status: ('A' for Active; 'I' for Inactive)
REMARK    1  A    between atoms: C_15  and  C_18
REMARK    2  A    between atoms: C_15  and  N_20
REMARK    3  A    between atoms: C_16  and  C_19
REMARK    4  A    between atoms: C_17  and  C_19
REMARK                            x       y       z     vdW  Elec       q    Type
REMARK                         _______ _______ _______ _____ _____    ______ ____
ROOT
ATOM      1  C   UNL     1       0.057  -1.480   0.000  0.00  0.00    +0.000 C 
ATOM      2  C   UNL     1       0.882  -1.480   0.000  0.00  0.00    +0.000 C 
ATOM      3  C   UNL     1      -0.198  -0.696   0.000  0.00  0.00    +0.000 C 
ATOM      4  C   UNL     1       0.469  -0.211   0.000  0.00  0.00    +0.000 C 
ATOM      5  O   UNL     1       1.137  -0.696   0.000  0.00  0.00    +0.000 OA
ENDROOT
BRANCH   4  11
ATOM      6  C   UNL     1      -1.187   1.628   0.000  0.00  0.00    +0.000 A 
ATOM      7  C   UNL     1      -1.442   0.844   0.000  0.00  0.00    +0.000 A 
ATOM      8  C   UNL     1      -0.380   1.800   0.000  0.00  0.00    +0.000 A 
ATOM      9  C   UNL     1      -0.890   0.231   0.000  0.00  0.00    +0.000 A 
ATOM     10  C   UNL     1       0.172   1.187   0.000  0.00  0.00    +0.000 A 
ATOM     11  C   UNL     1      -0.083   0.402   0.000  0.00  0.00    +0.000 A 
ENDBRANCH   4  11
BRANCH   4  17
ATOM     12  C   UNL     1       2.125   1.628   0.000  0.00  0.00    +0.000 A 
ATOM     13  C   UNL     1       1.318   1.800   0.000  0.00  0.00    +0.000 A 
ATOM     14  C   UNL     1       2.380   0.844   0.000  0.00  0.00    +0.000 A 
ATOM     15  C   UNL     1       0.766   1.187   0.000  0.00  0.00    +0.000 A 
ATOM     16  C   UNL     1       1.828   0.231   0.000  0.00  0.00    +0.000 A 
ATOM     17  C   UNL     1       1.021   0.402   0.000  0.00  0.00    +0.000 A 
ENDBRANCH   4  17
BRANCH   3  18
ATOM     18  C   UNL     1      -0.983  -0.441   0.000  0.00  0.00    +0.000 C 
BRANCH  18  21
ATOM     19  C   UNL     1      -2.380  -0.738   0.000  0.00  0.00    +0.000 C 
ATOM     20  C   UNL     1      -1.424  -1.800   0.000  0.00  0.00    +0.000 C 
ATOM     21  N   UNL     1      -1.596  -0.993   0.000  0.00  0.00    +0.000 NA
ENDBRANCH  18  21
ENDBRANCH   3  18
TORSDOF 4
