REMARK  Name = 
REMARK  3 active torsions:
REMARK  status: ('A' for Active; 'I' for Inactive)
REMARK    1  A    between atoms: N_4  and  C_5
REMARK    2  A    between atoms: C_5  and  C_6
REMARK    3  A    between atoms: C_9  and  C_10
REMARK                            x       y       z     vdW  Elec       q    Type
REMARK                         _______ _______ _______ _____ _____    ______ ____
ROOT
ATOM      1  C   UNL     1      -1.786  -0.206   0.000  0.00  0.00    +0.000 C 
ATOM      2  C   UNL     1      -1.072   0.206   0.000  0.00  0.00    +0.000 C 
ATOM      3  O   UNL     1      -1.072   1.031   0.000  0.00  0.00    +0.000 OA
ATOM      4  N   UNL     1      -0.357  -0.206   0.000  0.00  0.00    +0.000 NA
ENDROOT
BRANCH   4   5
ATOM      5  C   UNL     1       0.357   0.206   0.000  0.00  0.00    +0.000 C 
BRANCH   5   6
ATOM      6  C   UNL     1       1.072  -0.206   0.000  0.00  0.00    +0.000 C 
ATOM      7  O   UNL     1       1.786   0.206   0.000  0.00  0.00    +0.000 OA
ATOM      8  O   UNL     1       1.072  -1.031   0.000  0.00  0.00    +0.000 OA
ENDBRANCH   5   6
ENDBRANCH   4   5
TORSDOF 2
REMARK  Name = 
REMARK  3 active torsions:
REMARK  status: ('A' for Active; 'I' for Inactive)
REMARK    1  A    between atoms: N_4  and  C_5
REMARK    2  A    between atoms: C_5  and  C_6
REMARK    3  A    between atoms: C_9  and  C_10
REMARK                            x       y       z     vdW  Elec       q    Type
REMARK                         _______ _______ _______ _____ _____    ______ ____
ROOT
ATOM      1  C   UNL     1       4.909   0.306   0.000  0.00  0.00    +0.000 C 
ATOM      2 CL   UNL     1       5.322   1.021   0.000  0.00  0.00    +0.000 Cl
ATOM      3 CL   UNL     1       4.195   0.719   0.000  0.00  0.00    +0.000 Cl
ATOM      4 CL   UNL     1       5.624  -0.106   0.000  0.00  0.00    +0.000 Cl
ENDROOT
BRANCH   1   5
ATOM      5  C   UNL     1       4.497  -0.408   0.000  0.00  0.00    +0.000 C 
ATOM      6  O   UNL     1       4.909  -1.123   0.000  0.00  0.00    +0.000 OA
ATOM      7  O   UNL     1       3.672  -0.408   0.000  0.00  0.00    +0.000 OA
ENDBRANCH   1   5
TORSDOF 1
