REMARK  Name = 
REMARK  6 active torsions:
REMARK  status: ('A' for Active; 'I' for Inactive)
REMARK    1  A    between atoms: C_2  and  C_3
REMARK    2  A    between atoms: C_3  and  C_4
REMARK    3  A    between atoms: C_4  and  N_5
REMARK    4  A    between atoms: C_8  and  C_22
REMARK    5  A    between atoms: C_13  and  O_29
REMARK    6  A    between atoms: C_22  and  C_23
REMARK                            x       y       z     vdW  Elec       q    Type
REMARK                         _______ _______ _______ _____ _____    ______ ____
ROOT
ATOM      1  N   UNL     1      -2.739   1.179   0.000  0.00  0.00    +0.000 N 
ATOM      2  C   UNL     1      -2.026   1.594   0.000  0.00  0.00    +0.000 C 
ATOM      3  C   UNL     1      -4.305  -0.992   0.000  0.00  0.00    +0.000 A 
ATOM      4  C   UNL     1      -3.895  -1.706   0.000  0.00  0.00    +0.000 A 
ATOM      5  C   UNL     1      -3.069  -1.708   0.000  0.00  0.00    +0.000 A 
ATOM      6  C   UNL     1      -2.656  -0.989   0.000  0.00  0.00    +0.000 A 
ATOM      7  C   UNL     1      -3.067  -0.279   0.000  0.00  0.00    +0.000 A 
ATOM      8  C   UNL     1      -3.890  -0.278   0.000  0.00  0.00    +0.000 A 
ATOM      9  S   UNL     1      -4.409   0.368   0.000  0.00  0.00    +0.000 S 
ATOM     10  C   UNL     1      -2.551   0.370   0.000  0.00  0.00    +0.000 C 
ATOM     11  C   UNL     1      -4.230   1.175   0.000  0.00  0.00    +0.000 C 
ATOM     12  C   UNL     1      -3.486   1.532   0.000  0.00  0.00    +0.000 C 
ATOM     13  O   UNL     1      -2.029   2.421   0.000  0.00  0.00    +0.000 OA
ENDROOT
BRANCH   5  14
ATOM     14  O   UNL     1      -2.657  -2.421   0.000  0.00  0.00    +0.000 OA
ATOM     15  C   UNL     1      -1.833  -2.421   0.000  0.00  0.00    +0.000 C 
ENDBRANCH   5  14
BRANCH   2  16
ATOM     16  C   UNL     1      -1.310   1.185   0.000  0.00  0.00    +0.000 C 
BRANCH  16  17
ATOM     17  C   UNL     1      -0.597   1.600   0.000  0.00  0.00    +0.000 C 
BRANCH  17  18
ATOM     18  N   UNL     1       0.119   1.191   0.000  0.00  0.00    +0.000 NA
ATOM     19  C   UNL     1       0.120   0.365   0.000  0.00  0.00    +0.000 C 
ATOM     20  C   UNL     1       0.832  -0.044   0.000  0.00  0.00    +0.000 C 
ATOM     21  C   UNL     1       1.547   0.368   0.000  0.00  0.00    +0.000 C 
ATOM     22  C   UNL     1       1.545   1.194   0.000  0.00  0.00    +0.000 C 
ATOM     23  C   UNL     1       0.829   1.607   0.000  0.00  0.00    +0.000 C 
BRANCH  21  24
ATOM     24  C   UNL     1       2.265  -0.036   0.000  0.00  0.00    +0.000 C 
BRANCH  24  25
ATOM     25  C   UNL     1       2.978   0.379   0.000  0.00  0.00    +0.000 A 
ATOM     26  C   UNL     1       2.974   1.205   0.000  0.00  0.00    +0.000 A 
ATOM     27  C   UNL     1       3.696  -0.028   0.000  0.00  0.00    +0.000 A 
ATOM     28  C   UNL     1       4.409   0.392   0.000  0.00  0.00    +0.000 A 
ATOM     29  C   UNL     1       4.398   1.222   0.000  0.00  0.00    +0.000 A 
ATOM     30  C   UNL     1       3.680   1.624   0.000  0.00  0.00    +0.000 A 
ENDBRANCH  24  25
ENDBRANCH  21  24
ENDBRANCH  17  18
ENDBRANCH  16  17
ENDBRANCH   2  16
TORSDOF 6
