REMARK  Name = 
REMARK  5 active torsions:
REMARK  status: ('A' for Active; 'I' for Inactive)
REMARK    1  A    between atoms: CA_5  and  N_15
REMARK    2  A    between atoms: CA_11  and  C_12
REMARK    3  A    between atoms: C_16  and  C_17
REMARK    4  A    between atoms: C_17  and  C_18
REMARK    5  A    between atoms: C_18  and  C_21
REMARK                            x       y       z     vdW  Elec       q    Type
REMARK                         _______ _______ _______ _____ _____    ______ ____
ROOT
ATOM      1  SD  UNL     1       0.832   2.809   0.000  0.00  0.00    +0.000 S 
ATOM      2  CE  UNL     1       1.481   2.299   0.000  0.00  0.00    +0.000 C 
ATOM      3  N   UNL     1       1.482   1.473   0.000  0.00  0.00    +0.000 N 
ATOM      4  C   UNL     1       0.841   0.956   0.000  0.00  0.00    +0.000 C 
ATOM      5  CA  UNL     1       0.035   1.139   0.000  0.00  0.00    +0.000 C 
ATOM      6  CB  UNL     1      -0.309   1.871   0.000  0.00  0.00    +0.000 C 
ATOM      7  CG  UNL     1       0.015   2.630   0.000  0.00  0.00    +0.000 C 
ATOM      8  C   UNL     1       2.192   2.709   0.000  0.00  0.00    +0.000 C 
ATOM      9  C   UNL     1       2.908   2.299   0.000  0.00  0.00    +0.000 C 
ATOM     10  C   UNL     1       2.910   1.476   0.000  0.00  0.00    +0.000 C 
ATOM     11  CA  UNL     1       2.197   1.063   0.000  0.00  0.00    +0.000 C 
ATOM     12  O   UNL     1       1.023   0.153   0.000  0.00  0.00    +0.000 OA
ENDROOT
BRANCH  11  13
ATOM     13  C   UNL     1       2.196   0.239   0.000  0.00  0.00    +0.000 C 
ATOM     14  O   UNL     1       2.914  -0.175   0.000  0.00  0.00    +0.000 OA
ATOM     15  OXT UNL     1       1.485  -0.178   0.000  0.00  0.00    +0.000 OA
ENDBRANCH  11  13
BRANCH   5  16
ATOM     16  N   UNL     1      -0.475   0.490   0.000  0.00  0.00    +0.000 NA
ATOM     17  C   UNL     1      -1.303   0.473   0.000  0.00  0.00    +0.000 C 
ATOM     18  O   UNL     1      -1.733   1.184   0.000  0.00  0.00    +0.000 OA
BRANCH  17  19
ATOM     19  C   UNL     1      -1.699  -0.243   0.000  0.00  0.00    +0.000 C 
ATOM     20  S   UNL     1      -2.530  -0.258   0.000  0.00  0.00    +0.000 S 
BRANCH  19  21
ATOM     21  C   UNL     1      -1.275  -0.945   0.000  0.00  0.00    +0.000 C 
BRANCH  21  22
ATOM     22  C   UNL     1      -1.678  -1.670   0.000  0.00  0.00    +0.000 A 
ATOM     23  C   UNL     1      -1.253  -2.374   0.000  0.00  0.00    +0.000 A 
ATOM     24  C   UNL     1      -1.652  -3.098   0.000  0.00  0.00    +0.000 A 
ATOM     25  C   UNL     1      -2.482  -3.117   0.000  0.00  0.00    +0.000 A 
ATOM     26  C   UNL     1      -2.914  -2.402   0.000  0.00  0.00    +0.000 A 
ATOM     27  C   UNL     1      -2.511  -1.676   0.000  0.00  0.00    +0.000 A 
ENDBRANCH  21  22
ENDBRANCH  19  21
ENDBRANCH  17  19
ENDBRANCH   5  16
TORSDOF 5
