REMARK  Name = 
REMARK  5 active torsions:
REMARK  status: ('A' for Active; 'I' for Inactive)
REMARK    1  A    between atoms: C_3  and  C_13
REMARK    2  A    between atoms: C_13  and  O_14
REMARK    3  A    between atoms: O_14  and  C_15
REMARK    4  A    between atoms: C_18  and  C_21
REMARK    5  A    between atoms: C_21  and  C_22
REMARK                            x       y       z     vdW  Elec       q    Type
REMARK                         _______ _______ _______ _____ _____    ______ ____
ROOT
ATOM      1  O   UNL     1      -0.715  -0.412   0.000  0.00  0.00    +0.000 OA
ENDROOT
BRANCH   1   2
ATOM      2  C   UNL     1      -1.429   0.000   0.000  0.00  0.00    +0.000 A 
ATOM      3  C   UNL     1      -2.143  -0.412   0.000  0.00  0.00    +0.000 A 
ATOM      4  C   UNL     1      -2.858   0.000   0.000  0.00  0.00    +0.000 A 
ATOM      5  C   UNL     1      -2.858   0.825   0.000  0.00  0.00    +0.000 A 
ATOM      6  C   UNL     1      -2.143   1.238   0.000  0.00  0.00    +0.000 A 
ATOM      7  C   UNL     1      -1.429   0.825   0.000  0.00  0.00    +0.000 A 
BRANCH   5   8
ATOM      8  C   UNL     1      -3.572   1.238   0.000  0.00  0.00    +0.000 C 
BRANCH   8   9
ATOM      9  C   UNL     1      -4.287   0.825   0.000  0.00  0.00    +0.000 C 
ATOM     10  C   UNL     1      -4.373   0.004   0.000  0.00  0.00    +0.000 C 
ATOM     11  O   UNL     1      -3.760  -0.547   0.000  0.00  0.00    +0.000 OA
ATOM     12  N   UNL     1      -5.180  -0.167   0.000  0.00  0.00    +0.000 NA
ATOM     13  C   UNL     1      -5.593   0.547   0.000  0.00  0.00    +0.000 C 
ATOM     14  O   UNL     1      -6.413   0.634   0.000  0.00  0.00    +0.000 OA
ATOM     15  S   UNL     1      -5.040   1.161   0.000  0.00  0.00    +0.000 S 
ENDBRANCH   8   9
ENDBRANCH   5   8
ENDBRANCH   1   2
BRANCH   1  16
ATOM     16  C   UNL     1       0.000   0.000   0.000  0.00  0.00    +0.000 C 
BRANCH  16  19
ATOM     17  C   UNL     1       0.000  -1.650   0.000  0.00  0.00    +0.000 C 
ATOM     18  N   UNL     1       0.715  -1.238   0.000  0.00  0.00    +0.000 N 
ATOM     19  C   UNL     1       0.715  -0.412   0.000  0.00  0.00    +0.000 A 
ATOM     20  N   UNL     1       1.429   0.000   0.000  0.00  0.00    +0.000 NA
ATOM     21  C   UNL     1       2.143  -0.412   0.000  0.00  0.00    +0.000 A 
ATOM     22  C   UNL     1       2.858   0.000   0.000  0.00  0.00    +0.000 A 
ATOM     23  C   UNL     1       3.572  -0.412   0.000  0.00  0.00    +0.000 A 
ATOM     24  C   UNL     1       3.572  -1.238   0.000  0.00  0.00    +0.000 A 
ATOM     25  C   UNL     1       2.858  -1.650   0.000  0.00  0.00    +0.000 A 
ATOM     26  C   UNL     1       2.143  -1.238   0.000  0.00  0.00    +0.000 A 
ATOM     27  C   UNL     1       1.429  -1.650   0.000  0.00  0.00    +0.000 A 
ATOM     28  O   UNL     1       1.429  -2.475   0.000  0.00  0.00    +0.000 OA
ENDBRANCH  16  19
ENDBRANCH   1  16
TORSDOF 5
