REMARK  Name = 
REMARK  14 active torsions:
REMARK  status: ('A' for Active; 'I' for Inactive)
REMARK    1  A    between atoms: C_2  and  C_4
REMARK    2  A    between atoms: C_2  and  C_22
REMARK    3  A    between atoms: C_4  and  C_5
REMARK    4  A    between atoms: C_5  and  C_6
REMARK    5  A    between atoms: C_6  and  C_7
REMARK    6  A    between atoms: C_7  and  C_8
REMARK    7  A    between atoms: C_8  and  C_9
REMARK    8  A    between atoms: C_9  and  C_10
REMARK    9  A    between atoms: C_10  and  C_11
REMARK   10  A    between atoms: C_11  and  C_12
REMARK   11  A    between atoms: C_12  and  C_13
REMARK   12  A    between atoms: C_13  and  C_14
REMARK   13  A    between atoms: C_14  and  C_15
REMARK   14  A    between atoms: C_15  and  C_18
REMARK                            x       y       z     vdW  Elec       q    Type
REMARK                         _______ _______ _______ _____ _____    ______ ____
ROOT
ATOM      1  C   UNL     1       5.856   2.556   0.000  0.00  0.00    +0.000 C 
ATOM      2  O   UNL     1       5.856   3.381   0.000  0.00  0.00    +0.000 OA
ENDROOT
BRANCH   1   3
ATOM      3  C   UNL     1       5.141   2.143   0.000  0.00  0.00    +0.000 C 
BRANCH   3   4
ATOM      4  C   UNL     1       4.427   2.556   0.000  0.00  0.00    +0.000 C 
BRANCH   4   5
ATOM      5  C   UNL     1       3.712   2.143   0.000  0.00  0.00    +0.000 C 
BRANCH   5   6
ATOM      6  C   UNL     1       2.998   2.556   0.000  0.00  0.00    +0.000 C 
BRANCH   6   7
ATOM      7  C   UNL     1       2.284   2.143   0.000  0.00  0.00    +0.000 C 
BRANCH   7   9
ATOM      8  C   UNL     1       1.982   3.270   0.000  0.00  0.00    +0.000 C 
ATOM      9  C   UNL     1       1.569   2.556   0.000  0.00  0.00    +0.000 C 
ATOM     10  C   UNL     1       1.157   1.841   0.000  0.00  0.00    +0.000 C 
BRANCH   9  11
ATOM     11  C   UNL     1       0.855   2.968   0.000  0.00  0.00    +0.000 C 
ATOM     12  O   UNL     1       0.140   2.556   0.000  0.00  0.00    +0.000 OA
ATOM     13  O   UNL     1       0.855   3.793   0.000  0.00  0.00    +0.000 OA
ENDBRANCH   9  11
ENDBRANCH   7   9
ENDBRANCH   6   7
ENDBRANCH   5   6
ENDBRANCH   4   5
ENDBRANCH   3   4
ENDBRANCH   1   3
BRANCH   1  14
ATOM     14  C   UNL     1       6.570   2.143   0.000  0.00  0.00    +0.000 C 
BRANCH  14  15
ATOM     15  C   UNL     1       7.285   2.556   0.000  0.00  0.00    +0.000 C 
BRANCH  15  16
ATOM     16  C   UNL     1       7.999   2.143   0.000  0.00  0.00    +0.000 C 
BRANCH  16  17
ATOM     17  C   UNL     1       8.714   2.556   0.000  0.00  0.00    +0.000 C 
BRANCH  17  18
ATOM     18  C   UNL     1       9.428   2.143   0.000  0.00  0.00    +0.000 C 
BRANCH  18  19
ATOM     19  C   UNL     1      10.143   2.556   0.000  0.00  0.00    +0.000 C 
ATOM     20  C   UNL     1       9.730   3.270   0.000  0.00  0.00    +0.000 C 
ATOM     21  C   UNL     1      10.555   1.841   0.000  0.00  0.00    +0.000 C 
BRANCH  19  22
ATOM     22  C   UNL     1      10.857   2.968   0.000  0.00  0.00    +0.000 C 
ATOM     23  O   UNL     1      11.572   2.556   0.000  0.00  0.00    +0.000 OA
ATOM     24  O   UNL     1      10.857   3.793   0.000  0.00  0.00    +0.000 OA
ENDBRANCH  19  22
ENDBRANCH  18  19
ENDBRANCH  17  18
ENDBRANCH  16  17
ENDBRANCH  15  16
ENDBRANCH  14  15
ENDBRANCH   1  14
TORSDOF 14
