REMARK  Name = 
REMARK  3 active torsions:
REMARK  status: ('A' for Active; 'I' for Inactive)
REMARK    1  A    between atoms: C_7  and  C_9
REMARK    2  A    between atoms: C_7  and  C_11
REMARK    3  A    between atoms: C_14  and  C_16
REMARK                            x       y       z     vdW  Elec       q    Type
REMARK                         _______ _______ _______ _____ _____    ______ ____
ROOT
ATOM      1  C   UNL     1       1.072  -0.412   0.000  0.00  0.00    +0.000 C 
ATOM      2  C   UNL     1       0.357  -0.825   0.000  0.00  0.00    +0.000 C 
ATOM      3  O   UNL     1       0.357  -1.650   0.000  0.00  0.00    +0.000 OA
ATOM      4  C   UNL     1      -0.357  -0.412   0.000  0.00  0.00    +0.000 C 
ATOM      5  O   UNL     1      -1.072  -0.825   0.000  0.00  0.00    +0.000 OA
ATOM      6  O   UNL     1       0.357   0.825   0.000  0.00  0.00    +0.000 OA
ATOM      7  C   UNL     1      -0.357   0.412   0.000  0.00  0.00    +0.000 C 
ATOM      8  C   UNL     1       1.072   0.412   0.000  0.00  0.00    +0.000 C 
ATOM      9  O   UNL     1       1.072   1.237   0.000  0.00  0.00    +0.000 OA
ENDROOT
BRANCH   8  11
ATOM     10  O   UNL     1       1.786   1.650   0.000  0.00  0.00    +0.000 OA
ATOM     11  C   UNL     1       1.786   0.825   0.000  0.00  0.00    +0.000 C 
ATOM     12  O   UNL     1       2.501   0.412   0.000  0.00  0.00    +0.000 OA
ENDBRANCH   8  11
BRANCH   7  13
ATOM     13  C   UNL     1      -1.072   0.825   0.000  0.00  0.00    +0.000 C 
ATOM     14  O   UNL     1      -1.072   1.650   0.000  0.00  0.00    +0.000 OA
BRANCH  13  15
ATOM     15  C   UNL     1      -1.786   0.412   0.000  0.00  0.00    +0.000 C 
ATOM     16  O   UNL     1      -2.501   0.825   0.000  0.00  0.00    +0.000 OA
ENDBRANCH  13  15
ENDBRANCH   7  13
TORSDOF 3
