REMARK  Name = 
REMARK  4 active torsions:
REMARK  status: ('A' for Active; 'I' for Inactive)
REMARK    1  A    between atoms: N_8  and  C_17
REMARK    2  A    between atoms: C_17  and  C_18
REMARK    3  A    between atoms: C_18  and  C_19
REMARK    4  A    between atoms: C_19  and  N_20
REMARK                            x       y       z     vdW  Elec       q    Type
REMARK                         _______ _______ _______ _____ _____    ______ ____
ROOT
ATOM      1  C   UNL     1       0.922   1.116   0.000  0.00  0.00    +0.000 C 
ENDROOT
BRANCH   1   9
ATOM      2  C   UNL     1       3.242   2.785   0.000  0.00  0.00    +0.000 A 
ATOM      3  C   UNL     1       3.058   1.981   0.000  0.00  0.00    +0.000 A 
ATOM      4  C   UNL     1       2.270   1.738   0.000  0.00  0.00    +0.000 A 
ATOM      5  C   UNL     1       2.637   3.347   0.000  0.00  0.00    +0.000 A 
ATOM      6  C   UNL     1       1.665   2.299   0.000  0.00  0.00    +0.000 A 
ATOM      7  C   UNL     1       1.849   3.103   0.000  0.00  0.00    +0.000 A 
ATOM      8  C   UNL     1       1.334   3.748   0.000  0.00  0.00    +0.000 C 
ATOM      9  N   UNL     1       0.922   1.941   0.000  0.00  0.00    +0.000 N 
ATOM     10  C   UNL     1       0.509   3.748   0.000  0.00  0.00    +0.000 C 
ATOM     11  C   UNL     1      -0.005   3.103   0.000  0.00  0.00    +0.000 A 
ATOM     12  C   UNL     1       0.178   2.299   0.000  0.00  0.00    +0.000 A 
ATOM     13  C   UNL     1      -0.426   1.738   0.000  0.00  0.00    +0.000 A 
ATOM     14  C   UNL     1      -1.215   1.981   0.000  0.00  0.00    +0.000 A 
ATOM     15  C   UNL     1      -1.398   2.785   0.000  0.00  0.00    +0.000 A 
ATOM     16  C   UNL     1      -0.793   3.347   0.000  0.00  0.00    +0.000 A 
ATOM     17 CL   UNL     1      -1.819   1.420   0.000  0.00  0.00    +0.000 Cl
ENDBRANCH   1   9
BRANCH   1  18
ATOM     18  C   UNL     1       0.207   0.704   0.000  0.00  0.00    +0.000 C 
BRANCH  18  19
ATOM     19  C   UNL     1       0.207  -0.121   0.000  0.00  0.00    +0.000 C 
BRANCH  19  20
ATOM     20  N   UNL     1      -0.507  -0.534   0.000  0.00  0.00    +0.000 NA
ATOM     21  C   UNL     1      -1.725  -3.577   0.000  0.00  0.00    +0.000 C 
ATOM     22  C   UNL     1      -2.532  -3.748   0.000  0.00  0.00    +0.000 C 
ATOM     23  C   UNL     1      -3.084  -3.135   0.000  0.00  0.00    +0.000 C 
ATOM     24  C   UNL     1      -2.829  -2.351   0.000  0.00  0.00    +0.000 C 
ATOM     25  N   UNL     1      -2.022  -2.179   0.000  0.00  0.00    +0.000 NA
ATOM     26  C   UNL     1      -1.470  -2.792   0.000  0.00  0.00    +0.000 C 
ATOM     27  N   UNL     1      -3.242  -1.636   0.000  0.00  0.00    +0.000 NA
ATOM     28  C   UNL     1      -2.690  -1.023   0.000  0.00  0.00    +0.000 C 
ATOM     29  C   UNL     1      -1.936  -1.359   0.000  0.00  0.00    +0.000 C 
ATOM     30  C   UNL     1      -0.507  -1.359   0.000  0.00  0.00    +0.000 C 
ATOM     31  C   UNL     1      -1.222  -1.771   0.000  0.00  0.00    +0.000 C 
ATOM     32  C   UNL     1      -1.936  -0.534   0.000  0.00  0.00    +0.000 C 
ATOM     33  C   UNL     1      -1.222  -0.121   0.000  0.00  0.00    +0.000 C 
ATOM     34  O   UNL     1      -2.861  -0.216   0.000  0.00  0.00    +0.000 OA
ENDBRANCH  19  20
ENDBRANCH  18  19
ENDBRANCH   1  18
TORSDOF 4
