REMARK  Name = 
REMARK  4 active torsions:
REMARK  status: ('A' for Active; 'I' for Inactive)
REMARK    1  A    between atoms: N_3  and  C_4
REMARK    2  A    between atoms: C_4  and  C_5
REMARK    3  A    between atoms: C_8  and  O_11
REMARK    4  A    between atoms: C_16  and  N_19
REMARK                            x       y       z     vdW  Elec       q    Type
REMARK                         _______ _______ _______ _____ _____    ______ ____
ROOT
ATOM      1  N   UNL     1      -1.476   0.794   0.000  0.00  0.00    +0.000 NA
ATOM      2  C   UNL     1      -0.761   0.382   0.000  0.00  0.00    +0.000 C 
ATOM      3  N   UNL     1      -0.047   0.794   0.000  0.00  0.00    +0.000 NA
ATOM      4  O   UNL     1      -0.761  -0.443   0.000  0.00  0.00    +0.000 OA
ATOM      5  C   UNL     1      -2.190   0.382   0.000  0.00  0.00    +0.000 A 
ATOM      6  S   UNL     1      -2.277  -0.439   0.000  0.00  0.00    +0.000 S 
ATOM      7  C   UNL     1      -3.084  -0.610   0.000  0.00  0.00    +0.000 A 
ATOM      8  C   UNL     1      -3.496   0.104   0.000  0.00  0.00    +0.000 A 
ATOM      9  N   UNL     1      -2.944   0.717   0.000  0.00  0.00    +0.000 NA
ENDROOT
BRANCH   7  10
ATOM     10  N   UNL     1      -3.419  -1.364   0.000  0.00  0.00    +0.000 N 
ATOM     11  O   UNL     1      -2.934  -2.031   0.000  0.00  0.00    +0.000 OA
ATOM     12  O   UNL     1      -4.240  -1.450   0.000  0.00  0.00    +0.000 OA
ENDBRANCH   7  10
BRANCH   3  13
ATOM     13  C   UNL     1       0.667   0.382   0.000  0.00  0.00    +0.000 C 
BRANCH  13  14
ATOM     14  C   UNL     1       1.382   0.794   0.000  0.00  0.00    +0.000 A 
ATOM     15  C   UNL     1       1.382   1.619   0.000  0.00  0.00    +0.000 A 
ATOM     16  C   UNL     1       2.096   2.031   0.000  0.00  0.00    +0.000 A 
ATOM     17  C   UNL     1       2.811   1.619   0.000  0.00  0.00    +0.000 A 
ATOM     18  C   UNL     1       2.811   0.794   0.000  0.00  0.00    +0.000 A 
ATOM     19  C   UNL     1       2.096   0.382   0.000  0.00  0.00    +0.000 A 
BRANCH  17  20
ATOM     20  O   UNL     1       3.525   2.031   0.000  0.00  0.00    +0.000 OA
ATOM     21  C   UNL     1       4.240   1.619   0.000  0.00  0.00    +0.000 C 
ENDBRANCH  17  20
ENDBRANCH  13  14
ENDBRANCH   3  13
TORSDOF 4
