REMARK  Name = 
REMARK  7 active torsions:
REMARK  status: ('A' for Active; 'I' for Inactive)
REMARK    1  A    between atoms: C_4  and  C_7
REMARK    2  A    between atoms: C_7  and  C_22
REMARK    3  A    between atoms: N_10  and  C_14
REMARK    4  A    between atoms: C_14  and  C_15
REMARK    5  A    between atoms: C_15  and  C_16
REMARK    6  A    between atoms: C_16  and  CA_17
REMARK    7  A    between atoms: CA_17  and  C_18
REMARK                            x       y       z     vdW  Elec       q    Type
REMARK                         _______ _______ _______ _____ _____    ______ ____
ROOT
ATOM      1  C   UNL     1       1.070  -0.672   0.000  0.00  0.00    +0.000 C 
ATOM      2  C   UNL     1       1.877  -0.844   0.000  0.00  0.00    +0.000 C 
ATOM      3  O   UNL     1       2.490  -0.291   0.000  0.00  0.00    +0.000 OA
ATOM      4  N   UNL     1       1.963  -1.664   0.000  0.00  0.00    +0.000 N 
ATOM      5  C   UNL     1       1.209  -2.000   0.000  0.00  0.00    +0.000 C 
ATOM      6  O   UNL     1       1.038  -2.807   0.000  0.00  0.00    +0.000 OA
ATOM      7  N   UNL     1       0.657  -1.386   0.000  0.00  0.00    +0.000 NA
ENDROOT
BRANCH   1  11
ATOM      8  C   UNL     1      -1.191   0.335   0.000  0.00  0.00    +0.000 A 
ATOM      9  C   UNL     1      -0.524   0.820   0.000  0.00  0.00    +0.000 A 
ATOM     10  C   UNL     1       0.230   0.484   0.000  0.00  0.00    +0.000 A 
ATOM     11  C   UNL     1       0.316  -0.336   0.000  0.00  0.00    +0.000 A 
ATOM     12  C   UNL     1      -0.351  -0.821   0.000  0.00  0.00    +0.000 A 
ATOM     13  C   UNL     1      -1.105  -0.486   0.000  0.00  0.00    +0.000 A 
ENDBRANCH   1  11
BRANCH   1  14
ATOM     14  C   UNL     1       1.325   0.113   0.000  0.00  0.00    +0.000 A 
ATOM     15  C   UNL     1       0.773   0.726   0.000  0.00  0.00    +0.000 A 
ATOM     16  C   UNL     1       1.028   1.510   0.000  0.00  0.00    +0.000 A 
ATOM     17  C   UNL     1       1.835   1.682   0.000  0.00  0.00    +0.000 A 
ATOM     18  C   UNL     1       2.387   1.069   0.000  0.00  0.00    +0.000 A 
ATOM     19  C   UNL     1       2.132   0.284   0.000  0.00  0.00    +0.000 A 
ENDBRANCH   1  14
BRANCH   4  20
ATOM     20  C   UNL     1       2.678  -2.076   0.000  0.00  0.00    +0.000 C 
BRANCH  20  21
ATOM     21  C   UNL     1       3.392  -1.664   0.000  0.00  0.00    +0.000 C 
BRANCH  21  22
ATOM     22  C   UNL     1       4.106  -2.076   0.000  0.00  0.00    +0.000 C 
BRANCH  22  23
ATOM     23  CA  UNL     1       4.821  -1.664   0.000  0.00  0.00    +0.000 C 
ATOM     24  N   UNL     1       4.821  -0.839   0.000  0.00  0.00    +0.000 NA
BRANCH  23  25
ATOM     25  C   UNL     1       5.535  -2.076   0.000  0.00  0.00    +0.000 C 
ATOM     26  O   UNL     1       6.250  -1.664   0.000  0.00  0.00    +0.000 OA
ATOM     27  OXT UNL     1       5.535  -2.901   0.000  0.00  0.00    +0.000 OA
ENDBRANCH  23  25
ENDBRANCH  22  23
ENDBRANCH  21  22
ENDBRANCH  20  21
ENDBRANCH   4  20
TORSDOF 7
