REMARK  Name = 
REMARK  0 active torsions:
REMARK  status: ('A' for Active; 'I' for Inactive)
REMARK                            x       y       z     vdW  Elec       q    Type
REMARK                         _______ _______ _______ _____ _____    ______ ____
ROOT
ATOM      1  C   UNL     1      -0.524   0.511   0.000  0.00  0.00    +0.000 C 
ATOM      2  C   UNL     1      -0.524  -0.313   0.000  0.00  0.00    +0.000 C 
ATOM      3  C   UNL     1      -1.349   0.511   0.000  0.00  0.00    +0.000 C 
ATOM      4  C   UNL     1       0.190   0.924   0.000  0.00  0.00    +0.000 C 
ATOM      5  C   UNL     1      -1.349  -0.313   0.000  0.00  0.00    +0.000 C 
ATOM      6  C   UNL     1       0.190  -0.726   0.000  0.00  0.00    +0.000 C 
ATOM      7  C   UNL     1      -1.349   1.337   0.000  0.00  0.00    +0.000 C 
ATOM      8  C   UNL     1      -2.174   0.511   0.000  0.00  0.00    +0.000 C 
ATOM      9  C   UNL     1       0.905   0.511   0.000  0.00  0.00    +0.000 C 
ATOM     10  C   UNL     1       0.905  -0.313   0.000  0.00  0.00    +0.000 C 
ATOM     11  C   UNL     1       0.190  -1.551   0.000  0.00  0.00    +0.000 C 
ATOM     12  C   UNL     1       1.689   0.766   0.000  0.00  0.00    +0.000 C 
ATOM     13  C   UNL     1       1.689  -0.568   0.000  0.00  0.00    +0.000 C 
ATOM     14  C   UNL     1       2.174   0.099   0.000  0.00  0.00    +0.000 C 
ATOM     15  C   UNL     1       1.944   1.551   0.000  0.00  0.00    +0.000 C 
ENDROOT
TORSDOF 0
