REMARK  Name = 
REMARK  1 active torsions:
REMARK  status: ('A' for Active; 'I' for Inactive)
REMARK    1  A    between atoms: C_12  and  C_15
REMARK                            x       y       z     vdW  Elec       q    Type
REMARK                         _______ _______ _______ _____ _____    ______ ____
ROOT
ATOM      1  C   UNL     1       3.371   0.375   0.000  0.00  0.00    +0.000 C 
ATOM      2  N   UNL     1       2.555   0.253   0.000  0.00  0.00    +0.000 NA
ATOM      3  C   UNL     1       2.041   0.897   0.000  0.00  0.00    +0.000 C 
ATOM      4  N   UNL     1       1.236   0.714   0.000  0.00  0.00    +0.000 NA
ATOM      5  C   UNL     1       0.592   1.228   0.000  0.00  0.00    +0.000 A 
ATOM      6  C   UNL     1       0.592   2.053   0.000  0.00  0.00    +0.000 A 
ATOM      7  C   UNL     1      -0.123   2.466   0.000  0.00  0.00    +0.000 A 
ATOM      8  C   UNL     1      -0.837   2.053   0.000  0.00  0.00    +0.000 A 
ATOM      9 CL   UNL     1      -1.552   2.466   0.000  0.00  0.00    +0.000 Cl
ATOM     10  C   UNL     1      -0.837   1.228   0.000  0.00  0.00    +0.000 A 
ATOM     11  C   UNL     1      -0.123   0.816   0.000  0.00  0.00    +0.000 A 
ATOM     12  C   UNL     1       1.236   2.568   0.000  0.00  0.00    +0.000 C 
ATOM     13  N   UNL     1       2.041   2.384   0.000  0.00  0.00    +0.000 NA
ATOM     14  C   UNL     1       2.399   1.641   0.000  0.00  0.00    +0.000 C 
ENDROOT
BRANCH  12  15
ATOM     15  C   UNL     1       1.053   3.372   0.000  0.00  0.00    +0.000 A 
ATOM     16  C   UNL     1       0.294   3.696   0.000  0.00  0.00    +0.000 A 
ATOM     17  C   UNL     1       0.368   4.518   0.000  0.00  0.00    +0.000 A 
ATOM     18  C   UNL     1       1.173   4.702   0.000  0.00  0.00    +0.000 A 
ATOM     19  N   UNL     1       1.596   3.993   0.000  0.00  0.00    +0.000 NA
ENDBRANCH  12  15
TORSDOF 1
