REMARK  Name = 
REMARK  3 active torsions:
REMARK  status: ('A' for Active; 'I' for Inactive)
REMARK    1  A    between atoms: C_2  and  C_3
REMARK    2  A    between atoms: C_3  and  C_4
REMARK    3  A    between atoms: C_4  and  S_6
REMARK                            x       y       z     vdW  Elec       q    Type
REMARK                         _______ _______ _______ _____ _____    ______ ____
ROOT
ATOM      1  C   UNK     1       0.357  -0.206   0.000  0.00  0.00    +0.000 C 
ATOM      2  N   UNK     1       0.357  -1.031   0.000  0.00  0.00    +0.000 NA
ENDROOT
BRANCH   1   4
ATOM      3  O   UNK     1       1.786  -0.206   0.000  0.00  0.00    +0.000 OA
ATOM      4  C   UNK     1       1.072   0.206   0.000  0.00  0.00    +0.000 C 
ATOM      5  O   UNK     1       1.072   1.031   0.000  0.00  0.00    +0.000 OA
ENDBRANCH   1   4
BRANCH   1   6
ATOM      6  C   UNK     1      -0.357   0.206   0.000  0.00  0.00    +0.000 C 
BRANCH   6   8
ATOM      7  O   UNK     1      -1.786   0.206   0.000  0.00  0.00    +0.000 OA
ATOM      8  S   UNK     1      -1.072  -0.206   0.000  0.00  0.00    +0.000 S 
ATOM      9  O   UNK     1      -0.659  -0.921   0.000  0.00  0.00    +0.000 OA
ATOM     10  O   UNK     1      -1.484  -0.921   0.000  0.00  0.00    +0.000 OA
ENDBRANCH   6   8
ENDBRANCH   1   6
TORSDOF 3
