REMARK  Name = 
REMARK  2 active torsions:
REMARK  status: ('A' for Active; 'I' for Inactive)
REMARK    1  A    between atoms: C_1  and  S_4
REMARK    2  A    between atoms: C_10  and  N_11
REMARK                            x       y       z     vdW  Elec       q    Type
REMARK                         _______ _______ _______ _____ _____    ______ ____
ROOT
ATOM      1  C   UNL     1       1.031  -0.302   0.000  0.00  0.00    +0.000 A 
ATOM      2  C   UNL     1       0.619  -1.016   0.000  0.00  0.00    +0.000 A 
ATOM      3  C   UNL     1       0.619   0.412   0.000  0.00  0.00    +0.000 A 
ATOM      4  C   UNL     1      -0.206  -1.016   0.000  0.00  0.00    +0.000 A 
ATOM      5  C   UNL     1      -0.206   0.412   0.000  0.00  0.00    +0.000 A 
ATOM      6  C   UNL     1      -0.619  -0.302   0.000  0.00  0.00    +0.000 A 
ENDROOT
BRANCH   1   7
ATOM      7  S   UNL     1       1.856  -0.302   0.000  0.00  0.00    +0.000 S 
ATOM      8 CL   UNL     1       2.681  -0.302   0.000  0.00  0.00    +0.000 Cl
ATOM      9  O   UNL     1       1.856   0.523   0.000  0.00  0.00    +0.000 OA
ATOM     10  O   UNL     1       1.856  -1.127   0.000  0.00  0.00    +0.000 OA
ENDBRANCH   1   7
BRANCH   6  11
ATOM     11  N   UNL     1      -1.444  -0.302   0.000  0.00  0.00    +0.000 NA
ATOM     12  C   UNL     1      -1.856   0.412   0.000  0.00  0.00    +0.000 C 
ATOM     13  C   UNL     1      -2.681   0.412   0.000  0.00  0.00    +0.000 C 
ATOM     14  O   UNL     1      -1.444   1.127   0.000  0.00  0.00    +0.000 OA
ENDBRANCH   6  11
TORSDOF 2
