REMARK  Name = 
REMARK  13 active torsions:
REMARK  status: ('A' for Active; 'I' for Inactive)
REMARK    1  A    between atoms: C_4  and  C_7
REMARK    2  A    between atoms: C_7  and  S_8
REMARK    3  A    between atoms: S_8  and  C_9
REMARK    4  A    between atoms: C_9  and  C_10
REMARK    5  A    between atoms: C_10  and  C_11
REMARK    6  A    between atoms: C_11  and  C_12
REMARK    7  A    between atoms: C_11  and  S_19
REMARK    8  A    between atoms: C_12  and  C_13
REMARK    9  A    between atoms: C_13  and  C_14
REMARK   10  A    between atoms: C_14  and  C_15
REMARK   11  A    between atoms: C_15  and  C_16
REMARK   12  A    between atoms: S_19  and  C_20
REMARK   13  A    between atoms: C_20  and  C_21
REMARK                            x       y       z     vdW  Elec       q    Type
REMARK                         _______ _______ _______ _____ _____    ______ ____
ROOT
ATOM      1  C   UNL     1       1.429  -2.475   0.000  0.00  0.00    +0.000 C 
ENDROOT
BRANCH   1   2
ATOM      2  C   UNL     1       0.715  -2.888   0.000  0.00  0.00    +0.000 C 
BRANCH   2   3
ATOM      3  C   UNL     1       0.000  -2.475   0.000  0.00  0.00    +0.000 C 
BRANCH   3   4
ATOM      4  S   UNL     1      -0.715  -2.888   0.000  0.00  0.00    +0.000 S 
BRANCH   4   5
ATOM      5  C   UNL     1      -1.429  -2.475   0.000  0.00  0.00    +0.000 C 
BRANCH   5   9
ATOM      6  C   UNL     1      -3.572  -3.712   0.000  0.00  0.00    +0.000 A 
ATOM      7  C   UNL     1      -3.572  -2.888   0.000  0.00  0.00    +0.000 A 
ATOM      8  C   UNL     1      -2.858  -2.475   0.000  0.00  0.00    +0.000 A 
ATOM      9  C   UNL     1      -2.143  -2.888   0.000  0.00  0.00    +0.000 A 
ATOM     10  C   UNL     1      -2.143  -3.712   0.000  0.00  0.00    +0.000 A 
ATOM     11  C   UNL     1      -2.858  -4.125   0.000  0.00  0.00    +0.000 A 
ENDBRANCH   5   9
ENDBRANCH   4   5
ENDBRANCH   3   4
ENDBRANCH   2   3
ENDBRANCH   1   2
BRANCH   1  12
ATOM     12  C   UNL     1       2.143  -2.888   0.000  0.00  0.00    +0.000 C 
BRANCH  12  13
ATOM     13  C   UNL     1       2.858  -2.475   0.000  0.00  0.00    +0.000 C 
BRANCH  13  14
ATOM     14  C   UNL     1       3.572  -2.888   0.000  0.00  0.00    +0.000 C 
BRANCH  14  15
ATOM     15  C   UNL     1       4.287  -2.475   0.000  0.00  0.00    +0.000 C 
BRANCH  15  16
ATOM     16  C   UNL     1       5.001  -2.888   0.000  0.00  0.00    +0.000 C 
ATOM     17  O   UNL     1       5.716  -2.475   0.000  0.00  0.00    +0.000 OA
ATOM     18  O   UNL     1       5.001  -3.712   0.000  0.00  0.00    +0.000 OA
ENDBRANCH  15  16
ENDBRANCH  14  15
ENDBRANCH  13  14
ENDBRANCH  12  13
ENDBRANCH   1  12
BRANCH   1  19
ATOM     19  S   UNL     1       1.429  -1.650   0.000  0.00  0.00    +0.000 S 
BRANCH  19  20
ATOM     20  C   UNL     1       0.715  -1.238   0.000  0.00  0.00    +0.000 C 
BRANCH  20  21
ATOM     21  C   UNL     1       0.715  -0.412   0.000  0.00  0.00    +0.000 A 
ATOM     22  C   UNL     1       0.000   0.000   0.000  0.00  0.00    +0.000 A 
ATOM     23  C   UNL     1       0.000   0.825   0.000  0.00  0.00    +0.000 A 
ATOM     24  C   UNL     1       0.715   1.238   0.000  0.00  0.00    +0.000 A 
ATOM     25  C   UNL     1       1.429   0.825   0.000  0.00  0.00    +0.000 A 
ATOM     26  C   UNL     1       1.429   0.000   0.000  0.00  0.00    +0.000 A 
ENDBRANCH  20  21
ENDBRANCH  19  20
ENDBRANCH   1  19
TORSDOF 13
