REMARK  Name = 
REMARK  7 active torsions:
REMARK  status: ('A' for Active; 'I' for Inactive)
REMARK    1  A    between atoms: C_1  and  C_8
REMARK    2  A    between atoms: C_4  and  C_11
REMARK    3  A    between atoms: C_7  and  C_8
REMARK    4  A    between atoms: C_7  and  O_10
REMARK    5  A    between atoms: O_10  and  C_16
REMARK    6  A    between atoms: C_11  and  C_12
REMARK    7  A    between atoms: C_16  and  C_17
REMARK                            x       y       z     vdW  Elec       q    Type
REMARK                         _______ _______ _______ _____ _____    ______ ____
ROOT
ATOM      1  C   UNL     1      -0.357  -0.825   0.000  0.00  0.00    +0.000 C 
ATOM      2  C   UNL     1      -0.357  -1.650   0.000  0.00  0.00    +0.000 C 
ENDROOT
BRANCH   1   3
ATOM      3  C   UNL     1      -1.072  -0.412   0.000  0.00  0.00    +0.000 A 
ATOM      4  C   UNL     1      -1.786  -0.825   0.000  0.00  0.00    +0.000 A 
ATOM      5  C   UNL     1      -2.501  -0.412   0.000  0.00  0.00    +0.000 A 
ATOM      6  C   UNL     1      -2.501   0.412   0.000  0.00  0.00    +0.000 A 
ATOM      7  C   UNL     1      -1.786   0.825   0.000  0.00  0.00    +0.000 A 
ATOM      8  C   UNL     1      -1.072   0.412   0.000  0.00  0.00    +0.000 A 
BRANCH   6   9
ATOM      9  C   UNL     1      -3.215   0.825   0.000  0.00  0.00    +0.000 C 
BRANCH   9  10
ATOM     10  C   UNL     1      -3.215   1.650   0.000  0.00  0.00    +0.000 C 
ATOM     11  C   UNL     1      -3.930   2.062   0.000  0.00  0.00    +0.000 C 
ATOM     12  C   UNL     1      -2.501   2.062   0.000  0.00  0.00    +0.000 C 
ENDBRANCH   9  10
ENDBRANCH   6   9
ENDBRANCH   1   3
BRANCH   1  13
ATOM     13  C   UNL     1       0.357  -0.412   0.000  0.00  0.00    +0.000 C 
ATOM     14  O   UNL     1       0.357   0.412   0.000  0.00  0.00    +0.000 OA
BRANCH  13  15
ATOM     15  O   UNL     1       1.072  -0.825   0.000  0.00  0.00    +0.000 OA
BRANCH  15  16
ATOM     16  C   UNL     1       1.786  -0.412   0.000  0.00  0.00    +0.000 C 
BRANCH  16  17
ATOM     17  C   UNL     1       2.501  -0.825   0.000  0.00  0.00    +0.000 A 
ATOM     18  C   UNL     1       3.215  -0.412   0.000  0.00  0.00    +0.000 A 
ATOM     19  C   UNL     1       3.930  -0.825   0.000  0.00  0.00    +0.000 A 
ATOM     20  C   UNL     1       3.930  -1.650   0.000  0.00  0.00    +0.000 A 
ATOM     21  C   UNL     1       3.215  -2.062   0.000  0.00  0.00    +0.000 A 
ATOM     22  N   UNL     1       2.501  -1.650   0.000  0.00  0.00    +0.000 NA
ENDBRANCH  16  17
ENDBRANCH  15  16
ENDBRANCH  13  15
ENDBRANCH   1  13
TORSDOF 7
