REMARK  Name = 
REMARK  2 active torsions:
REMARK  status: ('A' for Active; 'I' for Inactive)
REMARK    1  A    between atoms: C_14  and  O_26
REMARK    2  A    between atoms: C_17  and  N_20
REMARK                            x       y       z     vdW  Elec       q    Type
REMARK                         _______ _______ _______ _____ _____    ______ ____
ROOT
ATOM      1  C   UNL     1      -3.691  -0.514   0.000  0.00  0.00    +0.000 C 
ATOM      2  C   UNL     1      -3.059   0.017   0.000  0.00  0.00    +0.000 C 
ATOM      3  C   UNL     1      -2.646   0.731   0.000  0.00  0.00    +0.000 C 
ATOM      4  C   UNL     1      -1.821   0.731   0.000  0.00  0.00    +0.000 C 
ATOM      5  N   UNL     1      -1.409   0.017   0.000  0.00  0.00    +0.000 N 
ATOM      6  C   UNL     1      -1.821  -0.698   0.000  0.00  0.00    +0.000 C 
ATOM      7  C   UNL     1      -2.646  -0.698   0.000  0.00  0.00    +0.000 C 
ATOM      8  C   UNL     1      -0.584   0.017   0.000  0.00  0.00    +0.000 C 
ATOM      9  O   UNL     1      -0.171   0.731   0.000  0.00  0.00    +0.000 OA
ATOM     10  N   UNL     1      -0.171  -0.698   0.000  0.00  0.00    +0.000 NA
ATOM     11  C   UNL     1       0.654  -0.698   0.000  0.00  0.00    +0.000 A 
ATOM     12  N   UNL     1       1.139  -0.030   0.000  0.00  0.00    +0.000 NA
ATOM     13  C   UNL     1       1.923  -0.285   0.000  0.00  0.00    +0.000 A 
ATOM     14  C   UNL     1       2.638   0.127   0.000  0.00  0.00    +0.000 A 
ATOM     15  C   UNL     1       3.352  -0.285   0.000  0.00  0.00    +0.000 A 
ATOM     16  C   UNL     1       3.352  -1.110   0.000  0.00  0.00    +0.000 A 
ATOM     17  C   UNL     1       2.638  -1.523   0.000  0.00  0.00    +0.000 A 
ATOM     18  C   UNL     1       1.923  -1.110   0.000  0.00  0.00    +0.000 A 
ATOM     19  S   UNL     1       1.139  -1.365   0.000  0.00  0.00    +0.000 S 
ATOM     20  O   UNL     1      -3.691   0.547   0.000  0.00  0.00    +0.000 OA
ENDROOT
BRANCH  17  21
ATOM     21  N   UNL     1       2.638  -2.348   0.000  0.00  0.00    +0.000 N 
ATOM     22  C   UNL     1       3.352  -2.760   0.000  0.00  0.00    +0.000 C 
ATOM     23  C   UNL     1       3.352  -3.585   0.000  0.00  0.00    +0.000 C 
ATOM     24  O   UNL     1       2.638  -3.998   0.000  0.00  0.00    +0.000 OA
ATOM     25  C   UNL     1       1.923  -3.585   0.000  0.00  0.00    +0.000 C 
ATOM     26  C   UNL     1       1.923  -2.760   0.000  0.00  0.00    +0.000 C 
ENDBRANCH  17  21
BRANCH  14  27
ATOM     27  O   UNL     1       2.638   0.952   0.000  0.00  0.00    +0.000 OA
ATOM     28  C   UNL     1       3.352   1.365   0.000  0.00  0.00    +0.000 C 
ENDBRANCH  14  27
TORSDOF 2
