REMARK  Name = 
REMARK  8 active torsions:
REMARK  status: ('A' for Active; 'I' for Inactive)
REMARK    1  A    between atoms: C_2  and  C_5
REMARK    2  A    between atoms: C_5  and  O_6
REMARK    3  A    between atoms: C_5  and  C_31
REMARK    4  A    between atoms: O_6  and  C_7
REMARK    5  A    between atoms: N_12  and  C_13
REMARK    6  A    between atoms: C_13  and  C_14
REMARK    7  A    between atoms: C_17  and  C_25
REMARK    8  A    between atoms: C_19  and  N_20
REMARK                            x       y       z     vdW  Elec       q    Type
REMARK                         _______ _______ _______ _____ _____    ______ ____
ROOT
ATOM      1  C   UNL     1      -1.536   2.413   0.000  0.00  0.00    +0.000 C 
ATOM      2  O   UNL     1      -1.536   3.238   0.000  0.00  0.00    +0.000 OA
ATOM      3  N   UNL     1      -0.821   2.001   0.000  0.00  0.00    +0.000 N 
ATOM      4  C   UNL     1      -0.107   2.413   0.000  0.00  0.00    +0.000 C 
ATOM      5  C   UNL     1       0.608   2.001   0.000  0.00  0.00    +0.000 C 
ATOM      6  N   UNL     1       0.608   1.176   0.000  0.00  0.00    +0.000 NA
ATOM      7  C   UNL     1      -0.107   0.763   0.000  0.00  0.00    +0.000 C 
ATOM      8  C   UNL     1      -0.821   1.176   0.000  0.00  0.00    +0.000 C 
ENDROOT
BRANCH   1   9
ATOM      9  O   UNL     1      -2.250   2.001   0.000  0.00  0.00    +0.000 OA
BRANCH   9  10
ATOM     10  C   UNL     1      -2.965   2.413   0.000  0.00  0.00    +0.000 C 
BRANCH  10  11
ATOM     11  C   UNL     1      -2.965   3.238   0.000  0.00  0.00    +0.000 C 
ATOM     12  F   UNL     1      -2.965   4.063   0.000  0.00  0.00    +0.000 F 
ATOM     13  F   UNL     1      -2.140   3.238   0.000  0.00  0.00    +0.000 F 
ATOM     14  F   UNL     1      -3.790   3.238   0.000  0.00  0.00    +0.000 F 
ENDBRANCH  10  11
BRANCH  10  16
ATOM     15  F   UNL     1      -4.394   1.588   0.000  0.00  0.00    +0.000 F 
ATOM     16  C   UNL     1      -3.679   2.001   0.000  0.00  0.00    +0.000 C 
ATOM     17  F   UNL     1      -3.267   1.286   0.000  0.00  0.00    +0.000 F 
ATOM     18  F   UNL     1      -4.092   2.715   0.000  0.00  0.00    +0.000 F 
ENDBRANCH  10  16
ENDBRANCH   9  10
ENDBRANCH   1   9
BRANCH   6  19
ATOM     19  C   UNL     1       1.322   0.763   0.000  0.00  0.00    +0.000 C 
BRANCH  19  20
ATOM     20  C   UNL     1       2.037   1.176   0.000  0.00  0.00    +0.000 A 
ATOM     21  C   UNL     1       2.037   2.001   0.000  0.00  0.00    +0.000 A 
ATOM     22  C   UNL     1       2.751   2.413   0.000  0.00  0.00    +0.000 A 
ATOM     23  C   UNL     1       3.466   2.001   0.000  0.00  0.00    +0.000 A 
ATOM     24  C   UNL     1       3.466   1.176   0.000  0.00  0.00    +0.000 A 
ATOM     25  C   UNL     1       2.751   0.763   0.000  0.00  0.00    +0.000 A 
BRANCH  25  26
ATOM     26  N   UNL     1       2.751  -0.062   0.000  0.00  0.00    +0.000 N 
ATOM     27  C   UNL     1       3.419  -0.546   0.000  0.00  0.00    +0.000 C 
ATOM     28  C   UNL     1       3.164  -1.331   0.000  0.00  0.00    +0.000 C 
ATOM     29  C   UNL     1       2.339  -1.331   0.000  0.00  0.00    +0.000 C 
ATOM     30  C   UNL     1       2.084  -0.546   0.000  0.00  0.00    +0.000 C 
ENDBRANCH  25  26
BRANCH  23  31
ATOM     31  C   UNL     1       4.180   2.413   0.000  0.00  0.00    +0.000 C 
ATOM     32  F   UNL     1       4.895   2.826   0.000  0.00  0.00    +0.000 F 
ATOM     33  F   UNL     1       4.593   1.699   0.000  0.00  0.00    +0.000 F 
ATOM     34  F   UNL     1       3.768   3.128   0.000  0.00  0.00    +0.000 F 
ENDBRANCH  23  31
ENDBRANCH  19  20
ENDBRANCH   6  19
TORSDOF 8
