REMARK  Name = 
REMARK  3 active torsions:
REMARK  status: ('A' for Active; 'I' for Inactive)
REMARK    1  A    between atoms: C_2  and  C_3
REMARK    2  A    between atoms: C_3  and  N_4
REMARK    3  A    between atoms: C_8  and  C_11
REMARK                            x       y       z     vdW  Elec       q    Type
REMARK                         _______ _______ _______ _____ _____    ______ ____
ROOT
ATOM      1  N   UNL     1       3.995   3.226   0.000  0.00  0.00    +0.000 N 
ATOM      2  C   UNL     1       3.404   2.349   0.000  0.00  0.00    +0.000 C 
ATOM      3  C   UNL     1       4.065   1.994   0.000  0.00  0.00    +0.000 C 
ATOM      4  C   UNL     1       4.492   2.955   0.000  0.00  0.00    +0.000 C 
ATOM      5  C   UNL     1       4.850   2.044   0.000  0.00  0.00    +0.000 C 
ATOM      6  C   UNL     1       4.978   2.862   0.000  0.00  0.00    +0.000 C 
ATOM      7  O   UNL     1       5.690   3.279   0.000  0.00  0.00    +0.000 OA
ATOM      8  C   UNL     1       3.824   3.757   0.000  0.00  0.00    +0.000 C 
ATOM      9  C   UNL     1       3.292   3.506   0.000  0.00  0.00    +0.000 C 
ATOM     10  C   UNL     1       2.352   3.689   0.000  0.00  0.00    +0.000 C 
ATOM     11  C   UNL     1       2.259   3.033   0.000  0.00  0.00    +0.000 C 
ATOM     12  C   UNL     1       2.541   2.203   0.000  0.00  0.00    +0.000 C 
ATOM     13  N   UNL     1       1.904   1.588   0.000  0.00  0.00    +0.000 N 
ATOM     14  C   UNL     1       1.191   2.002   0.000  0.00  0.00    +0.000 A 
ATOM     15  C   UNL     1       1.386   2.804   0.000  0.00  0.00    +0.000 A 
ATOM     16  C   UNL     1       0.789   3.373   0.000  0.00  0.00    +0.000 A 
ATOM     17  C   UNL     1      -0.003   3.141   0.000  0.00  0.00    +0.000 A 
ATOM     18  C   UNL     1      -0.198   2.340   0.000  0.00  0.00    +0.000 A 
ATOM     19  C   UNL     1       0.399   1.770   0.000  0.00  0.00    +0.000 A 
ATOM     20  C   UNL     1       2.004   0.769   0.000  0.00  0.00    +0.000 C 
ATOM     21  C   UNL     1       2.854   3.999   0.000  0.00  0.00    +0.000 C 
ATOM     22  O   UNL     1       2.543   4.763   0.000  0.00  0.00    +0.000 OA
ENDROOT
BRANCH   5  23
ATOM     23  C   UNL     1       4.939   1.224   0.000  0.00  0.00    +0.000 C 
ATOM     24  C   UNL     1       5.694   0.891   0.000  0.00  0.00    +0.000 C 
ENDBRANCH   5  23
BRANCH   1  25
ATOM     25  C   UNL     1       4.291   3.996   0.000  0.00  0.00    +0.000 C 
BRANCH  25  27
ATOM     26  C   UNL     1       5.402   4.895   0.000  0.00  0.00    +0.000 C 
ATOM     27  C   UNL     1       5.106   4.125   0.000  0.00  0.00    +0.000 C 
ENDBRANCH  25  27
ENDBRANCH   1  25
TORSDOF 3
