REMARK  Name = 
REMARK  7 active torsions:
REMARK  status: ('A' for Active; 'I' for Inactive)
REMARK    1  A    between atoms: O_2  and  C_3
REMARK    2  A    between atoms: C_9  and  N_18
REMARK    3  A    between atoms: N_18  and  C_19
REMARK    4  A    between atoms: C_21  and  C_32
REMARK    5  A    between atoms: C_23  and  C_25
REMARK    6  A    between atoms: C_25  and  N_26
REMARK    7  A    between atoms: C_32  and  N_33
REMARK                            x       y       z     vdW  Elec       q    Type
REMARK                         _______ _______ _______ _____ _____    ______ ____
ROOT
ATOM      1  C   UNL     1       2.858  -1.650   0.000  0.00  0.00    +0.000 A 
ATOM      2  C   UNL     1       3.572  -1.238   0.000  0.00  0.00    +0.000 A 
ATOM      3  C   UNL     1       4.287  -1.650   0.000  0.00  0.00    +0.000 A 
ATOM      4  C   UNL     1       4.287  -2.475   0.000  0.00  0.00    +0.000 A 
ATOM      5  C   UNL     1       3.572  -2.888   0.000  0.00  0.00    +0.000 A 
ATOM      6  C   UNL     1       2.858  -2.475   0.000  0.00  0.00    +0.000 A 
ATOM      7  O   UNL     1       5.001  -2.888   0.000  0.00  0.00    +0.000 OA
ENDROOT
BRANCH   1   8
ATOM      8  N   UNL     1       2.143  -1.238   0.000  0.00  0.00    +0.000 NA
BRANCH   8  15
ATOM      9  C   UNL     1       4.287   0.000   0.000  0.00  0.00    +0.000 A 
ATOM     10  C   UNL     1       4.287   0.825   0.000  0.00  0.00    +0.000 A 
ATOM     11  C   UNL     1       3.572   1.238   0.000  0.00  0.00    +0.000 A 
ATOM     12  C   UNL     1       2.858   0.825   0.000  0.00  0.00    +0.000 A 
ATOM     13  C   UNL     1       2.858   0.000   0.000  0.00  0.00    +0.000 A 
ATOM     14  N   UNL     1       3.572  -0.412   0.000  0.00  0.00    +0.000 NA
ATOM     15  C   UNL     1       2.143  -0.412   0.000  0.00  0.00    +0.000 A 
ATOM     16  C   UNL     1       1.429   0.000   0.000  0.00  0.00    +0.000 A 
ATOM     17  C   UNL     1       0.715  -0.412   0.000  0.00  0.00    +0.000 A 
ATOM     18  C   UNL     1       0.000   0.000   0.000  0.00  0.00    +0.000 A 
ATOM     19  C   UNL     1       0.000   0.825   0.000  0.00  0.00    +0.000 A 
ATOM     20  C   UNL     1       0.715   1.238   0.000  0.00  0.00    +0.000 A 
ATOM     21  C   UNL     1       1.429   0.825   0.000  0.00  0.00    +0.000 A 
ATOM     22  N   UNL     1       2.143   1.238   0.000  0.00  0.00    +0.000 NA
ATOM     23 CL   UNL     1      -0.715   1.238   0.000  0.00  0.00    +0.000 Cl
BRANCH   9  25
ATOM     24  C   UNL     1       5.716   0.000   0.000  0.00  0.00    +0.000 C 
ATOM     25  O   UNL     1       5.001  -0.412   0.000  0.00  0.00    +0.000 OA
ENDBRANCH   9  25
ENDBRANCH   8  15
ENDBRANCH   1   8
BRANCH   3  26
ATOM     26  C   UNL     1       5.001  -1.238   0.000  0.00  0.00    +0.000 C 
BRANCH  26  27
ATOM     27  N   UNL     1       5.716  -1.650   0.000  0.00  0.00    +0.000 NA
ATOM     28  C   UNL     1       6.469  -1.314   0.000  0.00  0.00    +0.000 C 
ATOM     29  C   UNL     1       7.021  -1.927   0.000  0.00  0.00    +0.000 C 
ATOM     30  C   UNL     1       6.609  -2.642   0.000  0.00  0.00    +0.000 C 
ATOM     31  C   UNL     1       5.802  -2.470   0.000  0.00  0.00    +0.000 C 
ENDBRANCH  26  27
ENDBRANCH   3  26
BRANCH   5  32
ATOM     32  C   UNL     1       3.572  -3.712   0.000  0.00  0.00    +0.000 C 
BRANCH  32  33
ATOM     33  N   UNL     1       2.858  -4.125   0.000  0.00  0.00    +0.000 NA
ATOM     34  C   UNL     1       2.772  -4.946   0.000  0.00  0.00    +0.000 C 
ATOM     35  C   UNL     1       1.965  -5.117   0.000  0.00  0.00    +0.000 C 
ATOM     36  C   UNL     1       1.552  -4.402   0.000  0.00  0.00    +0.000 C 
ATOM     37  C   UNL     1       2.104  -3.789   0.000  0.00  0.00    +0.000 C 
ENDBRANCH  32  33
ENDBRANCH   5  32
TORSDOF 7
