REMARK  Name = 
REMARK  3 active torsions:
REMARK  status: ('A' for Active; 'I' for Inactive)
REMARK    1  A    between atoms: C_13  and  C_17
REMARK    2  A    between atoms: C_14  and  C_18
REMARK    3  A    between atoms: C_17  and  C_18
REMARK                            x       y       z     vdW  Elec       q    Type
REMARK                         _______ _______ _______ _____ _____    ______ ____
ROOT
ATOM      1  C   UNL     1       1.217  -1.324   0.000  0.00  0.00    +0.000 C 
ATOM      2  C   UNL     1       0.463  -0.988   0.000  0.00  0.00    +0.000 C 
ATOM      3  C   UNL     1       0.377  -0.168   0.000  0.00  0.00    +0.000 C 
ENDROOT
BRANCH   3   8
ATOM      4  C   UNL     1       1.798  -0.018   0.000  0.00  0.00    +0.000 A 
ATOM      5  C   UNL     1       0.958   1.138   0.000  0.00  0.00    +0.000 A 
ATOM      6  C   UNL     1       2.465   0.467   0.000  0.00  0.00    +0.000 A 
ATOM      7  C   UNL     1       1.625   1.623   0.000  0.00  0.00    +0.000 A 
ATOM      8  C   UNL     1       1.044   0.317   0.000  0.00  0.00    +0.000 A 
ATOM      9  C   UNL     1       2.379   1.287   0.000  0.00  0.00    +0.000 A 
ATOM     10  O   UNL     1       3.046   1.772   0.000  0.00  0.00    +0.000 OA
ENDBRANCH   3   8
BRANCH   3  13
ATOM     11  C   UNL     1      -1.217   1.324   0.000  0.00  0.00    +0.000 C 
ATOM     12  C   UNL     1      -0.463   0.988   0.000  0.00  0.00    +0.000 C 
ATOM     13  C   UNL     1      -0.377   0.168   0.000  0.00  0.00    +0.000 C 
BRANCH  13  18
ATOM     14  C   UNL     1      -1.798   0.018   0.000  0.00  0.00    +0.000 A 
ATOM     15  C   UNL     1      -0.958  -1.138   0.000  0.00  0.00    +0.000 A 
ATOM     16  C   UNL     1      -2.465  -0.467   0.000  0.00  0.00    +0.000 A 
ATOM     17  C   UNL     1      -1.625  -1.623   0.000  0.00  0.00    +0.000 A 
ATOM     18  C   UNL     1      -1.044  -0.317   0.000  0.00  0.00    +0.000 A 
ATOM     19  C   UNL     1      -2.379  -1.287   0.000  0.00  0.00    +0.000 A 
ATOM     20  O   UNL     1      -3.046  -1.772   0.000  0.00  0.00    +0.000 OA
ENDBRANCH  13  18
ENDBRANCH   3  13
TORSDOF 3
