REMARK  Name = 
REMARK  4 active torsions:
REMARK  status: ('A' for Active; 'I' for Inactive)
REMARK    1  A    between atoms: C_3  and  C_19
REMARK    2  A    between atoms: C_7  and  C_11
REMARK    3  A    between atoms: C_11  and  C_12
REMARK    4  A    between atoms: C_19  and  C_20
REMARK                            x       y       z     vdW  Elec       q    Type
REMARK                         _______ _______ _______ _____ _____    ______ ____
ROOT
ATOM      1  C   UNL     1       1.644   1.064   0.000  0.00  0.00    +0.000 C 
ATOM      2  C   UNL     1       1.773   0.249   0.000  0.00  0.00    +0.000 C 
ATOM      3  C   UNL     1       2.558   0.504   0.000  0.00  0.00    +0.000 C 
ATOM      4  C   UNL     1       3.043  -0.164   0.000  0.00  0.00    +0.000 C 
ATOM      5  O   UNL     1       3.868  -0.164   0.000  0.00  0.00    +0.000 OA
ATOM      6  N   UNL     1       2.558  -0.831   0.000  0.00  0.00    +0.000 NA
ATOM      7  C   UNL     1       1.773  -0.576   0.000  0.00  0.00    +0.000 C 
ATOM      8  C   UNL     1       0.948  -0.576   0.000  0.00  0.00    +0.000 C 
ATOM      9  O   UNL     1       0.365  -1.159   0.000  0.00  0.00    +0.000 OA
ATOM     10  O   UNL     1       0.948   0.249   0.000  0.00  0.00    +0.000 OA
ENDROOT
BRANCH   7  11
ATOM     11  C   UNL     1       1.644  -1.391   0.000  0.00  0.00    +0.000 C 
ATOM     12  O   UNL     1       0.874  -1.687   0.000  0.00  0.00    +0.000 OA
BRANCH  11  13
ATOM     13  C   UNL     1       2.285  -1.910   0.000  0.00  0.00    +0.000 C 
ATOM     14  C   UNL     1       3.056  -1.615   0.000  0.00  0.00    +0.000 C 
ATOM     15  C   UNL     1       3.697  -2.134   0.000  0.00  0.00    +0.000 C 
ATOM     16  C   UNL     1       3.568  -2.949   0.000  0.00  0.00    +0.000 C 
ATOM     17  C   UNL     1       2.797  -3.244   0.000  0.00  0.00    +0.000 C 
ATOM     18  C   UNL     1       2.156  -2.725   0.000  0.00  0.00    +0.000 C 
ENDBRANCH  11  13
ENDBRANCH   7  11
BRANCH   3  19
ATOM     19  C   UNL     1       2.813   1.288   0.000  0.00  0.00    +0.000 C 
BRANCH  19  20
ATOM     20  C   UNL     1       3.620   1.460   0.000  0.00  0.00    +0.000 C 
ATOM     21 CL   UNL     1       3.875   2.244   0.000  0.00  0.00    +0.000 Cl
ENDBRANCH  19  20
ENDBRANCH   3  19
TORSDOF 4
