REMARK  Name = 
REMARK  6 active torsions:
REMARK  status: ('A' for Active; 'I' for Inactive)
REMARK    1  A    between atoms: P_1  and  C_13
REMARK    2  A    between atoms: N_10  and  CA_11
REMARK    3  A    between atoms: CA_11  and  CB_12
REMARK    4  A    between atoms: CA_11  and  C_15
REMARK    5  A    between atoms: CB_12  and  CG_16
REMARK    6  A    between atoms: C_13  and  C_14
REMARK                            x       y       z     vdW  Elec       q    Type
REMARK                         _______ _______ _______ _____ _____    ______ ____
ROOT
ATOM      1  O   UNL     1       0.360  -0.410   0.000  0.00  0.00    +0.000 OA
ATOM      2  N   UNL     1      -0.360   0.829   0.000  0.00  0.00    +0.000 N 
ATOM      3  C   ACE A   0       0.360   0.416   0.000  0.00  0.00    +0.000 C 
ATOM      4  H   UNL     1      -0.360   1.343   0.000  0.00  0.00    +0.000 HD
ENDROOT
BRANCH   2   5
ATOM      5  CA  UNL     1      -1.074   0.416   0.000  0.00  0.00    +0.000 C 
BRANCH   5   8
ATOM      6  O   UNL     1      -2.508   0.416   0.000  0.00  0.00    +0.000 OA
ATOM      7  OXT UNL     1      -1.788   1.655   0.000  0.00  0.00    +0.000 OA
ATOM      8  C   UNL     1      -1.788   0.829   0.000  0.00  0.00    +0.000 C 
ENDBRANCH   5   8
BRANCH   5   9
ATOM      9  CB  UNL     1      -1.074  -0.410   0.000  0.00  0.00    +0.000 C 
BRANCH   9  12
ATOM     10  OD1 UNL     1      -1.788  -1.655   0.000  0.00  0.00    +0.000 OA
ATOM     11  OD2 UNL     1      -2.508  -0.410   0.000  0.00  0.00    +0.000 OA
ATOM     12  CG  UNL     1      -1.788  -0.823   0.000  0.00  0.00    +0.000 C 
ENDBRANCH   9  12
ENDBRANCH   5   9
ENDBRANCH   2   5
BRANCH   3  13
ATOM     13  C   UNL     1       1.074   0.829   0.000  0.00  0.00    +0.000 C 
BRANCH  13  14
ATOM     14  P   UNL     1       1.788   0.416   0.000  0.00  0.00    +0.000 P 
ATOM     15  O   UNL     1       2.508   0.003   0.000  0.00  0.00    +0.000 OA
ATOM     16  O   UNL     1       2.201   1.130   0.000  0.00  0.00    +0.000 OA
ATOM     17  O   UNL     1       1.375  -0.304   0.000  0.00  0.00    +0.000 OA
ENDBRANCH  13  14
ENDBRANCH   3  13
TORSDOF 6
