REMARK  Name = 
REMARK  11 active torsions:
REMARK  status: ('A' for Active; 'I' for Inactive)
REMARK    1  A    between atoms: O_1  and  C_2
REMARK    2  A    between atoms: O_1  and  C_13
REMARK    3  A    between atoms: C_2  and  C_3
REMARK    4  A    between atoms: C_3  and  C_4
REMARK    5  A    between atoms: C_4  and  C_5
REMARK    6  A    between atoms: C_5  and  C_6
REMARK    7  A    between atoms: C_8  and  C_13
REMARK    8  A    between atoms: C_19  and  C_42
REMARK    9  A    between atoms: C_25  and  C_38
REMARK   10  A    between atoms: C_42  and  C_43
REMARK   11  A    between atoms: C_43  and  C_44
REMARK                            x       y       z     vdW  Elec       q    Type
REMARK                         _______ _______ _______ _____ _____    ______ ____
ROOT
ATOM      1  C   UNL     1      -0.211  -2.064   0.000  0.00  0.00    +0.000 A 
ATOM      2  C   UNL     1       0.447  -1.564   0.000  0.00  0.00    +0.000 A 
ATOM      3  C   UNL     1       0.177  -0.783   0.000  0.00  0.00    +0.000 A 
ATOM      4  N   UNL     1      -0.652  -0.800   0.000  0.00  0.00    +0.000 NA
ATOM      5  C   UNL     1      -0.888  -1.592   0.000  0.00  0.00    +0.000 A 
ATOM      6  C   UNL     1       1.221  -1.563   0.000  0.00  0.00    +0.000 C 
ATOM      7  N   UNL     1      -0.945   0.642   0.000  0.00  0.00    +0.000 NA
ATOM      8  C   UNL     1       0.066   0.657   0.000  0.00  0.00    +0.000 C 
ATOM      9  C   UNL     1       0.283   1.345   0.000  0.00  0.00    +0.000 C 
ATOM     10  C   UNL     1      -0.308   1.941   0.000  0.00  0.00    +0.000 C 
ATOM     11  C   UNL     1      -0.942   1.468   0.000  0.00  0.00    +0.000 C 
ATOM     12  C   UNL     1      -2.843  -2.067   0.000  0.00  0.00    +0.000 C 
ATOM     13  C   UNL     1      -2.282  -1.593   0.000  0.00  0.00    +0.000 C 
ATOM     14  N   UNL     1      -2.513  -0.860   0.000  0.00  0.00    +0.000 NA
ATOM     15  C   UNL     1      -3.342  -0.844   0.000  0.00  0.00    +0.000 C 
ATOM     16  C   UNL     1      -3.609  -1.626   0.000  0.00  0.00    +0.000 C 
ATOM     17  C   UNL     1      -3.364   0.575   0.000  0.00  0.00    +0.000 A 
ATOM     18  N   UNL     1      -2.374   0.562   0.000  0.00  0.00    +0.000 NA
ATOM     19  C   UNL     1      -2.360   1.461   0.000  0.00  0.00    +0.000 A 
ATOM     20  C   UNL     1      -3.074   1.882   0.000  0.00  0.00    +0.000 A 
ATOM     21  C   UNL     1      -3.561   1.253   0.000  0.00  0.00    +0.000 A 
ATOM     22  C   UNL     1      -1.653   1.879   0.000  0.00  0.00    +0.000 C 
ATOM     23  C   UNL     1      -1.650   2.705   0.000  0.00  0.00    +0.000 C 
ATOM     24  C   UNL     1      -3.077   2.710   0.000  0.00  0.00    +0.000 C 
ATOM     25  O   UNL     1      -3.668   3.300   0.000  0.00  0.00    +0.000 OA
ATOM     26  C   UNL     1      -4.408   1.255   0.000  0.00  0.00    +0.000 C 
ATOM     27  C   UNL     1      -3.720  -0.113   0.000  0.00  0.00    +0.000 C 
ATOM     28  C   UNL     1      -2.844  -2.786   0.000  0.00  0.00    +0.000 C 
ATOM     29  C   UNL     1      -1.490  -1.898   0.000  0.00  0.00    +0.000 C 
ATOM     30  C   UNL     1       1.125   1.347   0.000  0.00  0.00    +0.000 C 
ATOM     31  C   UNL     1       0.502  -0.060   0.000  0.00  0.00    +0.000 C 
ENDROOT
BRANCH   1  32
ATOM     32  C   UNL     1      -0.216  -2.887   0.000  0.00  0.00    +0.000 C 
ATOM     33  C   UNL     1      -0.813  -3.284   0.000  0.00  0.00    +0.000 C 
BRANCH  32  34
ATOM     34  O   UNL     1       0.498  -3.300   0.000  0.00  0.00    +0.000 OA
BRANCH  34  35
ATOM     35  C   UNL     1       1.212  -2.887   0.000  0.00  0.00    +0.000 C 
BRANCH  35  36
ATOM     36  C   UNL     1       1.926  -3.300   0.000  0.00  0.00    +0.000 C 
BRANCH  36  37
ATOM     37  C   UNL     1       2.640  -2.887   0.000  0.00  0.00    +0.000 C 
BRANCH  37  38
ATOM     38  C   UNL     1       3.354  -3.300   0.000  0.00  0.00    +0.000 C 
BRANCH  38  39
ATOM     39  C   UNL     1       4.068  -2.887   0.000  0.00  0.00    +0.000 C 
ATOM     40  C   UNL     1       4.782  -3.300   0.000  0.00  0.00    +0.000 C 
ENDBRANCH  38  39
ENDBRANCH  37  38
ENDBRANCH  36  37
ENDBRANCH  35  36
ENDBRANCH  34  35
ENDBRANCH  32  34
ENDBRANCH   1  32
BRANCH  16  41
ATOM     41  C   UNL     1      -4.316  -1.629   0.000  0.00  0.00    +0.000 C 
ATOM     42  C   UNL     1      -4.782  -1.191   0.000  0.00  0.00    +0.000 C 
ENDBRANCH  16  41
BRANCH  10  43
ATOM     43  C   UNL     1      -0.316   2.770   0.000  0.00  0.00    +0.000 C 
BRANCH  43  44
ATOM     44  C   UNL     1       0.398   3.188   0.000  0.00  0.00    +0.000 C 
BRANCH  44  45
ATOM     45  C   UNL     1       1.112   2.774   0.000  0.00  0.00    +0.000 C 
ATOM     46  O   UNL     1       1.108   1.948   0.000  0.00  0.00    +0.000 OA
ATOM     47  O   UNL     1       1.826   3.192   0.000  0.00  0.00    +0.000 OA
ENDBRANCH  44  45
ENDBRANCH  43  44
ENDBRANCH  10  43
TORSDOF 11
