REMARK  Name = 
REMARK  3 active torsions:
REMARK  status: ('A' for Active; 'I' for Inactive)
REMARK    1  A    between atoms: S_1  and  S_2
REMARK    2  A    between atoms: S_1  and  C_3
REMARK    3  A    between atoms: S_2  and  C_4
REMARK                            x       y       z     vdW  Elec       q    Type
REMARK                         _______ _______ _______ _____ _____    ______ ____
ROOT
ATOM      1  S   UNL     1      -0.356  -0.207   0.000  0.00  0.00    +0.000 S 
ENDROOT
BRANCH   1   2
ATOM      2  C   UNL     1      -1.070   0.207   0.000  0.00  0.00    +0.000 A 
ATOM      3  N   UNL     1      -1.070   1.031   0.000  0.00  0.00    +0.000 N 
ATOM      4  C   UNL     1      -1.784  -0.207   0.000  0.00  0.00    +0.000 A 
ATOM      5  O   UNL     1      -0.356   1.442   0.000  0.00  0.00    +0.000 OA
ATOM      6  C   UNL     1      -1.784   1.442   0.000  0.00  0.00    +0.000 A 
ATOM      7  C   UNL     1      -2.500   0.207   0.000  0.00  0.00    +0.000 A 
ATOM      8  C   UNL     1      -2.500   1.031   0.000  0.00  0.00    +0.000 A 
ENDBRANCH   1   2
BRANCH   1   9
ATOM      9  S   UNL     1       0.358   0.207   0.000  0.00  0.00    +0.000 S 
BRANCH   9  10
ATOM     10  C   UNL     1       1.072  -0.207   0.000  0.00  0.00    +0.000 A 
ATOM     11  N   UNL     1       1.072  -1.031   0.000  0.00  0.00    +0.000 N 
ATOM     12  C   UNL     1       1.784   0.207   0.000  0.00  0.00    +0.000 A 
ATOM     13  O   UNL     1       0.358  -1.442   0.000  0.00  0.00    +0.000 OA
ATOM     14  C   UNL     1       1.784  -1.442   0.000  0.00  0.00    +0.000 A 
ATOM     15  C   UNL     1       2.500  -0.207   0.000  0.00  0.00    +0.000 A 
ATOM     16  C   UNL     1       2.500  -1.031   0.000  0.00  0.00    +0.000 A 
ENDBRANCH   9  10
ENDBRANCH   1   9
TORSDOF 3
