REMARK  Name = 
REMARK  13 active torsions:
REMARK  status: ('A' for Active; 'I' for Inactive)
REMARK    1  A    between atoms: C_2  and  C_3
REMARK    2  A    between atoms: C_3  and  C_4
REMARK    3  A    between atoms: C_5  and  C_6
REMARK    4  A    between atoms: C_7  and  C_8
REMARK    5  A    between atoms: C_8  and  C_9
REMARK    6  A    between atoms: C_9  and  C_10
REMARK    7  A    between atoms: C_11  and  C_12
REMARK    8  A    between atoms: C_13  and  C_14
REMARK    9  A    between atoms: C_15  and  C_16
REMARK   10  A    between atoms: C_16  and  C_17
REMARK   11  A    between atoms: C_17  and  C_18
REMARK   12  A    between atoms: C_18  and  C_19
REMARK   13  A    between atoms: C_19  and  C_20
REMARK                            x       y       z     vdW  Elec       q    Type
REMARK                         _______ _______ _______ _____ _____    ______ ____
ROOT
ATOM      1  C   UNL     1       3.189   5.141   0.000  0.00  0.00    +0.000 C 
ATOM      2  C   UNL     1       3.189   4.316   0.000  0.00  0.00    +0.000 C 
ENDROOT
BRANCH   2   3
ATOM      3  C   UNL     1       2.475   3.904   0.000  0.00  0.00    +0.000 C 
ATOM      4  C   UNL     1       2.475   3.079   0.000  0.00  0.00    +0.000 C 
BRANCH   4   5
ATOM      5  C   UNL     1       1.760   2.666   0.000  0.00  0.00    +0.000 C 
ATOM      6  C   UNL     1       1.760   1.841   0.000  0.00  0.00    +0.000 C 
BRANCH   6   7
ATOM      7  C   UNL     1       2.475   1.429   0.000  0.00  0.00    +0.000 C 
ATOM      8  O   UNL     1       2.475   0.604   0.000  0.00  0.00    +0.000 OA
BRANCH   7   9
ATOM      9  C   UNL     1       3.189   1.841   0.000  0.00  0.00    +0.000 C 
BRANCH   9  10
ATOM     10  C   UNL     1       3.904   1.429   0.000  0.00  0.00    +0.000 C 
BRANCH  10  11
ATOM     11  C   UNL     1       4.618   1.841   0.000  0.00  0.00    +0.000 C 
BRANCH  11  12
ATOM     12  C   UNL     1       5.333   1.429   0.000  0.00  0.00    +0.000 C 
ATOM     13  O   UNL     1       6.047   1.841   0.000  0.00  0.00    +0.000 OA
ATOM     14  O   UNL     1       5.333   0.604   0.000  0.00  0.00    +0.000 OA
ENDBRANCH  11  12
ENDBRANCH  10  11
ENDBRANCH   9  10
ENDBRANCH   7   9
ENDBRANCH   6   7
ENDBRANCH   4   5
ENDBRANCH   2   3
BRANCH   1  15
ATOM     15  C   UNL     1       3.904   5.554   0.000  0.00  0.00    +0.000 C 
ATOM     16  O   UNL     1       4.618   5.141   0.000  0.00  0.00    +0.000 OA
BRANCH  15  17
ATOM     17  C   UNL     1       3.904   6.379   0.000  0.00  0.00    +0.000 C 
BRANCH  17  19
ATOM     18  C   UNL     1       5.333   6.379   0.000  0.00  0.00    +0.000 C 
ATOM     19  C   UNL     1       4.618   6.791   0.000  0.00  0.00    +0.000 C 
BRANCH  18  21
ATOM     20  C   UNL     1       6.047   5.141   0.000  0.00  0.00    +0.000 C 
ATOM     21  C   UNL     1       5.333   5.554   0.000  0.00  0.00    +0.000 C 
BRANCH  20  22
ATOM     22  C   UNL     1       6.047   4.316   0.000  0.00  0.00    +0.000 C 
ATOM     23  O   UNL     1       5.333   3.904   0.000  0.00  0.00    +0.000 OA
BRANCH  22  25
ATOM     24  C   UNL     1       6.762   3.079   0.000  0.00  0.00    +0.000 C 
ATOM     25  C   UNL     1       6.762   3.904   0.000  0.00  0.00    +0.000 C 
ENDBRANCH  22  25
ENDBRANCH  20  22
ENDBRANCH  18  21
ENDBRANCH  17  19
ENDBRANCH  15  17
ENDBRANCH   1  15
TORSDOF 13
