REMARK  Name = 
REMARK  18 active torsions:
REMARK  status: ('A' for Active; 'I' for Inactive)
REMARK    1  A    between atoms: P_1  and  C_42
REMARK    2  A    between atoms: P_2  and  C_47
REMARK    3  A    between atoms: N_19  and  C_23
REMARK    4  A    between atoms: N_20  and  C_25
REMARK    5  A    between atoms: N_21  and  C_26
REMARK    6  A    between atoms: C_23  and  C_24
REMARK    7  A    between atoms: C_23  and  C_27
REMARK    8  A    between atoms: C_24  and  C_29
REMARK    9  A    between atoms: C_25  and  C_28
REMARK   10  A    between atoms: C_25  and  C_36
REMARK   11  A    between atoms: C_26  and  C_30
REMARK   12  A    between atoms: C_26  and  C_31
REMARK   13  A    between atoms: C_28  and  C_32
REMARK   14  A    between atoms: C_31  and  C_35
REMARK   15  A    between atoms: C_35  and  C_48
REMARK   16  A    between atoms: C_37  and  C_42
REMARK   17  A    between atoms: C_43  and  C_47
REMARK   18  A    between atoms: C_46  and  C_49
REMARK                            x       y       z     vdW  Elec       q    Type
REMARK                         _______ _______ _______ _____ _____    ______ ____
ROOT
ATOM      1  C   UNL     1       1.565   1.031   0.000  0.00  0.00    +0.000 C 
ENDROOT
BRANCH   1   4
ATOM      2  O   UNL     1       0.850  -0.206   0.000  0.00  0.00    +0.000 OA
ATOM      3  N   UNL     1       2.279  -0.206   0.000  0.00  0.00    +0.000 N 
ATOM      4  C   UNL     1       1.565   0.206   0.000  0.00  0.00    +0.000 C 
ATOM      5  H   UNL     1       2.722   0.050   0.000  0.00  0.00    +0.000 HD
BRANCH   3   6
ATOM      6  C   UNL     1       2.279  -1.031   0.000  0.00  0.00    +0.000 C 
BRANCH   6   9
ATOM      7  O   UNL     1       2.994  -2.269   0.000  0.00  0.00    +0.000 OA
ATOM      8  N   UNL     1       3.708  -1.031   0.000  0.00  0.00    +0.000 N 
ATOM      9  C   UNL     1       2.994  -1.444   0.000  0.00  0.00    +0.000 C 
ATOM     10  H   UNL     1       3.708  -0.520   0.000  0.00  0.00    +0.000 HD
ATOM     11  H   UNL     1       4.151  -1.287   0.000  0.00  0.00    +0.000 HD
ENDBRANCH   6   9
BRANCH   6  12
ATOM     12  C   UNL     1       1.565  -1.444   0.000  0.00  0.00    +0.000 C 
BRANCH  12  13
ATOM     13  C   UNL     1       1.565  -2.269   0.000  0.00  0.00    +0.000 A 
ATOM     14  C   UNL     1       0.850  -2.681   0.000  0.00  0.00    +0.000 A 
ATOM     15  C   UNL     1       2.279  -2.681   0.000  0.00  0.00    +0.000 A 
ATOM     16  C   UNL     1       1.565  -3.919   0.000  0.00  0.00    +0.000 A 
ATOM     17  C   UNL     1       0.850  -3.506   0.000  0.00  0.00    +0.000 A 
ATOM     18  C   UNL     1       2.279  -3.506   0.000  0.00  0.00    +0.000 A 
BRANCH  16  21
ATOM     19  F   UNL     1       2.390  -4.744   0.000  0.00  0.00    +0.000 F 
ATOM     20  F   UNL     1       0.740  -4.744   0.000  0.00  0.00    +0.000 F 
ATOM     21  C   UNL     1       1.565  -4.744   0.000  0.00  0.00    +0.000 C 
BRANCH  21  22
ATOM     22  P   UNL     1       1.565  -5.569   0.000  0.00  0.00    +0.000 P 
ATOM     23  O   UNL     1       1.565  -6.394   0.000  0.00  0.00    +0.000 OA
ATOM     24  O   UNL     1       0.740  -5.569   0.000  0.00  0.00    +0.000 OA
ATOM     25  O   UNL     1       2.390  -5.569   0.000  0.00  0.00    +0.000 OA
ENDBRANCH  21  22
ENDBRANCH  16  21
ENDBRANCH  12  13
ENDBRANCH   6  12
ENDBRANCH   3   6
ENDBRANCH   1   4
BRANCH   1  27
ATOM     26  O   UNL     1       0.136   0.206   0.000  0.00  0.00    +0.000 OA
ATOM     27  N   UNL     1       0.850   1.444   0.000  0.00  0.00    +0.000 N 
ATOM     28  C   UNL     1       0.136   1.031   0.000  0.00  0.00    +0.000 C 
ATOM     29  H   UNL     1       0.850   1.955   0.000  0.00  0.00    +0.000 HD
BRANCH  28  30
ATOM     30  C   UNL     1      -0.579   1.444   0.000  0.00  0.00    +0.000 C 
BRANCH  30  32
ATOM     31  O   UNL     1      -2.008   2.269   0.000  0.00  0.00    +0.000 OA
ATOM     32  N   UNL     1      -1.293   1.031   0.000  0.00  0.00    +0.000 N 
ATOM     33  C   UNL     1      -2.008   1.444   0.000  0.00  0.00    +0.000 C 
ATOM     34  H   UNL     1      -1.293   0.520   0.000  0.00  0.00    +0.000 HD
BRANCH  33  35
ATOM     35  C   UNL     1      -2.722   1.031   0.000  0.00  0.00    +0.000 A 
ATOM     36  C   UNL     1      -2.722   0.206   0.000  0.00  0.00    +0.000 A 
ATOM     37  C   UNL     1      -3.437   1.444   0.000  0.00  0.00    +0.000 A 
ATOM     38  C   UNL     1      -3.437  -0.206   0.000  0.00  0.00    +0.000 A 
ATOM     39  C   UNL     1      -4.151   1.031   0.000  0.00  0.00    +0.000 A 
ATOM     40  C   UNL     1      -4.151   0.206   0.000  0.00  0.00    +0.000 A 
ENDBRANCH  33  35
ENDBRANCH  30  32
BRANCH  30  41
ATOM     41  C   UNL     1      -0.579   2.269   0.000  0.00  0.00    +0.000 C 
BRANCH  41  42
ATOM     42  C   UNL     1      -1.293   2.681   0.000  0.00  0.00    +0.000 C 
BRANCH  42  45
ATOM     43  O   UNL     1      -2.008   3.919   0.000  0.00  0.00    +0.000 OA
ATOM     44  O   UNL     1      -0.579   3.919   0.000  0.00  0.00    +0.000 OA
ATOM     45  C   UNL     1      -1.293   3.506   0.000  0.00  0.00    +0.000 C 
ENDBRANCH  42  45
ENDBRANCH  41  42
ENDBRANCH  30  41
ENDBRANCH  28  30
ENDBRANCH   1  27
BRANCH   1  46
ATOM     46  C   UNL     1       2.279   1.444   0.000  0.00  0.00    +0.000 C 
BRANCH  46  47
ATOM     47  C   UNL     1       2.279   2.269   0.000  0.00  0.00    +0.000 A 
ATOM     48  C   UNL     1       1.565   2.681   0.000  0.00  0.00    +0.000 A 
ATOM     49  C   UNL     1       2.994   2.681   0.000  0.00  0.00    +0.000 A 
ATOM     50  C   UNL     1       2.279   3.919   0.000  0.00  0.00    +0.000 A 
ATOM     51  C   UNL     1       1.565   3.506   0.000  0.00  0.00    +0.000 A 
ATOM     52  C   UNL     1       2.994   3.506   0.000  0.00  0.00    +0.000 A 
BRANCH  50  55
ATOM     53  F   UNL     1       1.454   4.744   0.000  0.00  0.00    +0.000 F 
ATOM     54  F   UNL     1       3.104   4.744   0.000  0.00  0.00    +0.000 F 
ATOM     55  C   UNL     1       2.279   4.744   0.000  0.00  0.00    +0.000 C 
BRANCH  55  56
ATOM     56  P   UNL     1       2.279   5.569   0.000  0.00  0.00    +0.000 P 
ATOM     57  O   UNL     1       2.279   6.394   0.000  0.00  0.00    +0.000 OA
ATOM     58  O   UNL     1       3.104   5.569   0.000  0.00  0.00    +0.000 OA
ATOM     59  O   UNL     1       1.454   5.569   0.000  0.00  0.00    +0.000 OA
ENDBRANCH  55  56
ENDBRANCH  50  55
ENDBRANCH  46  47
ENDBRANCH   1  46
TORSDOF 18
