REMARK  Name = 
REMARK  1 active torsions:
REMARK  status: ('A' for Active; 'I' for Inactive)
REMARK    1  A    between atoms: OS_1  and  N_27
REMARK                            x       y       z     vdW  Elec       q    Type
REMARK                         _______ _______ _______ _____ _____    ______ ____
ROOT
ATOM      1 OS   UNL     1       0.009   0.253   0.000  0.00  0.00    +0.000 Os
ATOM      2  N   UNL     1       0.794   0.508   0.000  0.00  0.00    +0.000 N 
ATOM      3  C   UNL     1       1.129   1.261   0.000  0.00  0.00    +0.000 C 
ATOM      4  C   UNL     1       1.950   1.348   0.000  0.00  0.00    +0.000 C 
ATOM      5  C   UNL     1       2.435   0.680   0.000  0.00  0.00    +0.000 C 
ATOM      6  C   UNL     1       2.099  -0.073   0.000  0.00  0.00    +0.000 C 
ATOM      7  C   UNL     1       1.279  -0.160   0.000  0.00  0.00    +0.000 C 
ATOM      8  C   UNL     1       0.794  -0.827   0.000  0.00  0.00    +0.000 C 
ATOM      9  C   UNL     1       0.965  -1.634   0.000  0.00  0.00    +0.000 C 
ATOM     10  C   UNL     1       0.254  -2.250   0.000  0.00  0.00    +0.000 C 
ATOM     11  C   UNL     1      -0.496  -1.833   0.000  0.00  0.00    +0.000 C 
ATOM     12  C   UNL     1      -0.604  -1.124   0.000  0.00  0.00    +0.000 C 
ATOM     13  N   UNL     1      -0.182  -0.279   0.000  0.00  0.00    +0.000 N 
ATOM     14  N   UNL     1       0.009  -0.572   0.000  0.00  0.00    +0.000 N 
ATOM     15  C   UNL     1       0.622  -1.124   0.000  0.00  0.00    +0.000 C 
ATOM     16  C   UNL     1       0.451  -1.931   0.000  0.00  0.00    +0.000 C 
ATOM     17  C   UNL     1      -0.334  -2.186   0.000  0.00  0.00    +0.000 C 
ATOM     18  C   UNL     1      -0.947  -1.634   0.000  0.00  0.00    +0.000 C 
ATOM     19  C   UNL     1      -0.776  -0.827   0.000  0.00  0.00    +0.000 C 
ATOM     20  C   UNL     1      -1.260  -0.160   0.000  0.00  0.00    +0.000 C 
ATOM     21  C   UNL     1      -2.081  -0.073   0.000  0.00  0.00    +0.000 C 
ATOM     22  C   UNL     1      -2.417   0.680   0.000  0.00  0.00    +0.000 C 
ATOM     23  C   UNL     1      -1.932   1.348   0.000  0.00  0.00    +0.000 C 
ATOM     24  C   UNL     1      -1.111   1.261   0.000  0.00  0.00    +0.000 C 
ATOM     25  N   UNL     1      -0.776   0.508   0.000  0.00  0.00    +0.000 N 
ENDROOT
BRANCH   1  27
ATOM     26  C   UNL     1       0.676   1.563   0.000  0.00  0.00    +0.000 A 
ATOM     27  N   UNL     1       0.009   1.078   0.000  0.00  0.00    +0.000 N 
ATOM     28  C   UNL     1       0.421   2.347   0.000  0.00  0.00    +0.000 A 
ATOM     29  C   UNL     1      -0.658   1.563   0.000  0.00  0.00    +0.000 A 
ATOM     30  N   UNL     1      -0.404   2.347   0.000  0.00  0.00    +0.000 NA
ENDBRANCH   1  27
TORSDOF 1
