REMARK  Name = 
REMARK  16 active torsions:
REMARK  status: ('A' for Active; 'I' for Inactive)
REMARK    1  A    between atoms: C_1  and  C_30
REMARK    2  A    between atoms: C_5  and  C_7
REMARK    3  A    between atoms: C_7  and  C_8
REMARK    4  A    between atoms: C_8  and  N_9
REMARK    5  A    between atoms: N_9  and  C_10
REMARK    6  A    between atoms: C_10  and  C_11
REMARK    7  A    between atoms: C_11  and  C_12
REMARK    8  A    between atoms: C_12  and  C_13
REMARK    9  A    between atoms: C_13  and  C_14
REMARK   10  A    between atoms: C_14  and  C_15
REMARK   11  A    between atoms: C_15  and  O_16
REMARK   12  A    between atoms: O_16  and  C_18
REMARK   13  A    between atoms: C_18  and  C_19
REMARK   14  A    between atoms: C_19  and  O_20
REMARK   15  A    between atoms: O_20  and  C_21
REMARK   16  A    between atoms: C_21  and  C_22
REMARK                            x       y       z     vdW  Elec       q    Type
REMARK                         _______ _______ _______ _____ _____    ______ ____
ROOT
ATOM      1  C   UNL     1      -2.838   1.226   0.000  0.00  0.00    +0.000 C 
ENDROOT
BRANCH   1   2
ATOM      2  C   UNL     1      -2.136   1.631   0.000  0.00  0.00    +0.000 C 
BRANCH   2   3
ATOM      3  C   UNL     1      -1.436   1.227   0.000  0.00  0.00    +0.000 C 
BRANCH   3   4
ATOM      4  N   UNL     1      -0.732   1.633   0.000  0.00  0.00    +0.000 NA
BRANCH   4   5
ATOM      5  C   UNL     1      -0.035   1.231   0.000  0.00  0.00    +0.000 C 
BRANCH   5   6
ATOM      6  C   UNL     1       0.675   1.641   0.000  0.00  0.00    +0.000 C 
ATOM      7  O   UNL     1       0.675   2.466   0.000  0.00  0.00    +0.000 OA
BRANCH   6  12
ATOM      8  C   UNL     1       2.829   1.222   0.000  0.00  0.00    +0.000 A 
ATOM      9  C   UNL     1       2.829   0.397   0.000  0.00  0.00    +0.000 A 
ATOM     10  C   UNL     1       2.115  -0.016   0.000  0.00  0.00    +0.000 A 
ATOM     11  C   UNL     1       1.400   0.397   0.000  0.00  0.00    +0.000 A 
ATOM     12  C   UNL     1       1.400   1.222   0.000  0.00  0.00    +0.000 A 
ATOM     13  C   UNL     1       2.115   1.635   0.000  0.00  0.00    +0.000 A 
ATOM     14  O   UNL     1       3.544  -0.016   0.000  0.00  0.00    +0.000 OA
BRANCH   8  15
ATOM     15  C   UNL     1       3.544   1.635   0.000  0.00  0.00    +0.000 C 
ATOM     16  O   UNL     1       4.249   1.228   0.000  0.00  0.00    +0.000 OA
ENDBRANCH   8  15
ENDBRANCH   6  12
ENDBRANCH   5   6
ENDBRANCH   4   5
ENDBRANCH   3   4
ENDBRANCH   2   3
ENDBRANCH   1   2
BRANCH   1  17
ATOM     17  C   UNL     1      -3.539   1.631   0.000  0.00  0.00    +0.000 C 
BRANCH  17  18
ATOM     18  C   UNL     1      -4.244   1.221   0.000  0.00  0.00    +0.000 C 
BRANCH  18  19
ATOM     19  C   UNL     1      -4.249   0.411   0.000  0.00  0.00    +0.000 C 
BRANCH  19  20
ATOM     20  O   UNL     1      -3.550   0.002   0.000  0.00  0.00    +0.000 OA
BRANCH  20  21
ATOM     21  C   UNL     1      -2.846   0.403   0.000  0.00  0.00    +0.000 C 
BRANCH  21  22
ATOM     22  C   UNL     1      -2.147  -0.006   0.000  0.00  0.00    +0.000 C 
BRANCH  22  23
ATOM     23  O   UNL     1      -1.444   0.395   0.000  0.00  0.00    +0.000 OA
BRANCH  23  24
ATOM     24  C   UNL     1      -0.744  -0.014   0.000  0.00  0.00    +0.000 C 
BRANCH  24  25
ATOM     25  C   UNL     1      -0.749  -0.824   0.000  0.00  0.00    +0.000 A 
ATOM     26  C   UNL     1      -0.050  -1.232   0.000  0.00  0.00    +0.000 A 
ATOM     27  C   UNL     1      -0.055  -2.057   0.000  0.00  0.00    +0.000 A 
ATOM     28  C   UNL     1      -0.771  -2.466   0.000  0.00  0.00    +0.000 A 
ATOM     29  C   UNL     1      -1.470  -2.057   0.000  0.00  0.00    +0.000 A 
ATOM     30  C   UNL     1      -1.466  -1.232   0.000  0.00  0.00    +0.000 A 
ATOM     31 CL   UNL     1      -2.191  -0.808   0.000  0.00  0.00    +0.000 Cl
ATOM     32 CL   UNL     1       0.670  -0.822   0.000  0.00  0.00    +0.000 Cl
ENDBRANCH  24  25
ENDBRANCH  23  24
ENDBRANCH  22  23
ENDBRANCH  21  22
ENDBRANCH  20  21
ENDBRANCH  19  20
ENDBRANCH  18  19
ENDBRANCH  17  18
ENDBRANCH   1  17
TORSDOF 16
