REMARK  Name = 
REMARK  2 active torsions:
REMARK  status: ('A' for Active; 'I' for Inactive)
REMARK    1  A    between atoms: C_2  and  C_5
REMARK    2  A    between atoms: C_8  and  C_11
REMARK                            x       y       z     vdW  Elec       q    Type
REMARK                         _______ _______ _______ _____ _____    ______ ____
ROOT
ATOM      1  C   UNL     1       0.357   0.151   0.000  0.00  0.00    +0.000 C 
ATOM      2  C   UNL     1       0.357   0.976   0.000  0.00  0.00    +0.000 C 
ATOM      3  C   UNL     1       1.072   1.388   0.000  0.00  0.00    +0.000 C 
ATOM      4  O   UNL     1       1.072   2.213   0.000  0.00  0.00    +0.000 OA
ATOM      5  C   UNL     1       1.786   0.976   0.000  0.00  0.00    +0.000 A 
ATOM      6  C   UNL     1       2.501   1.388   0.000  0.00  0.00    +0.000 A 
ATOM      7  C   UNL     1       3.215   0.976   0.000  0.00  0.00    +0.000 A 
ATOM      8  C   UNL     1       3.215   0.151   0.000  0.00  0.00    +0.000 A 
ATOM      9  C   UNL     1       2.501  -0.262   0.000  0.00  0.00    +0.000 A 
ATOM     10  C   UNL     1       1.786   0.151   0.000  0.00  0.00    +0.000 A 
ATOM     11  C   UNL     1       1.072  -0.262   0.000  0.00  0.00    +0.000 C 
ATOM     12  O   UNL     1       1.072  -1.087   0.000  0.00  0.00    +0.000 OA
ATOM     13  O   UNL     1      -0.357   1.388   0.000  0.00  0.00    +0.000 OA
ENDROOT
BRANCH   1  17
ATOM     14  C   UNL     1      -1.786  -1.087   0.000  0.00  0.00    +0.000 C 
ATOM     15  C   UNL     1      -1.786  -0.262   0.000  0.00  0.00    +0.000 C 
ATOM     16  C   UNL     1      -1.072   0.151   0.000  0.00  0.00    +0.000 C 
ATOM     17  C   UNL     1      -0.357  -0.262   0.000  0.00  0.00    +0.000 C 
ATOM     18  C   UNL     1      -0.357  -1.087   0.000  0.00  0.00    +0.000 C 
ATOM     19  C   UNL     1      -1.072  -1.499   0.000  0.00  0.00    +0.000 C 
BRANCH  14  21
ATOM     20  C   UNL     1      -3.215  -1.911   0.000  0.00  0.00    +0.000 C 
ATOM     21  C   UNL     1      -2.501  -1.499   0.000  0.00  0.00    +0.000 C 
ATOM     22  C   UNL     1      -2.088  -2.213   0.000  0.00  0.00    +0.000 C 
ATOM     23  C   UNL     1      -2.913  -0.784   0.000  0.00  0.00    +0.000 C 
ENDBRANCH  14  21
ENDBRANCH   1  17
TORSDOF 2
