REMARK  Name = 
REMARK  11 active torsions:
REMARK  status: ('A' for Active; 'I' for Inactive)
REMARK    1  A    between atoms: C_1  and  C_2
REMARK    2  A    between atoms: C_1  and  C_5
REMARK    3  A    between atoms: N_8  and  C_15
REMARK    4  A    between atoms: C_15  and  C_18
REMARK    5  A    between atoms: C_18  and  C_20
REMARK    6  A    between atoms: C_18  and  O_21
REMARK    7  A    between atoms: C_20  and  O_22
REMARK    8  A    between atoms: O_21  and  C_23
REMARK    9  A    between atoms: O_22  and  C_24
REMARK   10  A    between atoms: C_24  and  C_27
REMARK   11  A    between atoms: C_27  and  C_28
REMARK                            x       y       z     vdW  Elec       q    Type
REMARK                         _______ _______ _______ _____ _____    ______ ____
ROOT
ATOM      1  C   UNL     1       2.884  -0.132   0.000  0.00  0.00    +0.000 C 
ATOM      2  C   UNL     1       2.170   0.281   0.000  0.00  0.00    +0.000 C 
ATOM      3  C   UNL     1       2.884  -0.957   0.000  0.00  0.00    +0.000 C 
ATOM      4  N   UNL     1       1.455  -0.132   0.000  0.00  0.00    +0.000 N 
ATOM      5  O   UNL     1       2.170   1.106   0.000  0.00  0.00    +0.000 OA
ATOM      6  N   UNL     1       2.170  -1.369   0.000  0.00  0.00    +0.000 NA
ATOM      7  O   UNL     1       3.599  -1.369   0.000  0.00  0.00    +0.000 OA
ATOM      8  C   UNL     1       1.455  -0.957   0.000  0.00  0.00    +0.000 C 
ATOM      9  O   UNL     1       0.741  -1.369   0.000  0.00  0.00    +0.000 OA
ENDROOT
BRANCH   1  10
ATOM     10  C   UNL     1       3.166   0.644   0.000  0.00  0.00    +0.000 A 
ATOM     11  C   UNL     1       3.979   0.787   0.000  0.00  0.00    +0.000 A 
ATOM     12  C   UNL     1       2.636   1.276   0.000  0.00  0.00    +0.000 A 
ATOM     13  C   UNL     1       4.261   1.562   0.000  0.00  0.00    +0.000 A 
ATOM     14  C   UNL     1       2.918   2.051   0.000  0.00  0.00    +0.000 A 
ATOM     15  C   UNL     1       3.731   2.194   0.000  0.00  0.00    +0.000 A 
ENDBRANCH   1  10
BRANCH   1  16
ATOM     16  C   UNL     1       3.696  -0.275   0.000  0.00  0.00    +0.000 C 
ATOM     17  C   UNL     1       3.979  -1.050   0.000  0.00  0.00    +0.000 C 
ENDBRANCH   1  16
BRANCH   4  18
ATOM     18  C   UNL     1       0.741   0.281   0.000  0.00  0.00    +0.000 C 
BRANCH  18  19
ATOM     19  C   UNL     1       0.026  -0.132   0.000  0.00  0.00    +0.000 C 
BRANCH  19  20
ATOM     20  C   UNL     1      -0.688   0.281   0.000  0.00  0.00    +0.000 C 
BRANCH  20  21
ATOM     21  O   UNL     1      -1.403  -0.132   0.000  0.00  0.00    +0.000 OA
BRANCH  21  22
ATOM     22  C   UNL     1      -2.117   0.281   0.000  0.00  0.00    +0.000 C 
BRANCH  22  23
ATOM     23  C   UNL     1      -2.832  -0.132   0.000  0.00  0.00    +0.000 C 
BRANCH  23  24
ATOM     24  C   UNL     1      -3.546   0.281   0.000  0.00  0.00    +0.000 C 
ATOM     25  C   UNL     1      -4.261  -0.132   0.000  0.00  0.00    +0.000 C 
ENDBRANCH  23  24
ENDBRANCH  22  23
ENDBRANCH  21  22
ENDBRANCH  20  21
ENDBRANCH  19  20
BRANCH  19  26
ATOM     26  O   UNL     1       0.026  -0.957   0.000  0.00  0.00    +0.000 OA
BRANCH  26  27
ATOM     27  C   UNL     1      -0.688  -1.369   0.000  0.00  0.00    +0.000 C 
ATOM     28  N   UNL     1      -0.688  -2.194   0.000  0.00  0.00    +0.000 NA
ATOM     29  O   UNL     1      -1.403  -0.957   0.000  0.00  0.00    +0.000 OA
ENDBRANCH  26  27
ENDBRANCH  19  26
ENDBRANCH  18  19
ENDBRANCH   4  18
TORSDOF 11
