REMARK  Name = 
REMARK  11 active torsions:
REMARK  status: ('A' for Active; 'I' for Inactive)
REMARK    1  A    between atoms: C_11  and  N_21
REMARK    2  A    between atoms: C_13  and  C_14
REMARK    3  A    between atoms: C_22  and  C_24
REMARK    4  A    between atoms: C_24  and  C_25
REMARK    5  A    between atoms: C_24  and  C_31
REMARK    6  A    between atoms: C_25  and  C_26
REMARK    7  A    between atoms: C_26  and  C_27
REMARK    8  A    between atoms: C_31  and  C_32
REMARK    9  A    between atoms: C_31  and  C_38
REMARK   10  A    between atoms: C_32  and  C_33
REMARK   11  A    between atoms: C_33  and  C_34
REMARK                            x       y       z     vdW  Elec       q    Type
REMARK                         _______ _______ _______ _____ _____    ______ ____
ROOT
ATOM      1  C   UNL     1      -1.139  -0.273   0.000  0.00  0.00    +0.000 C 
ATOM      2  C   UNL     1      -0.424  -0.685   0.000  0.00  0.00    +0.000 A 
ATOM      3  C   UNL     1      -0.424  -1.510   0.000  0.00  0.00    +0.000 A 
ATOM      4  C   UNL     1       0.290  -1.923   0.000  0.00  0.00    +0.000 A 
ATOM      5  C   UNL     1       1.005  -1.510   0.000  0.00  0.00    +0.000 A 
ATOM      6  C   UNL     1       1.005  -0.685   0.000  0.00  0.00    +0.000 A 
ATOM      7  C   UNL     1       0.290  -0.273   0.000  0.00  0.00    +0.000 A 
ATOM      8  N   UNL     1       0.167   0.543   0.000  0.00  0.00    +0.000 NA
ATOM      9  C   UNL     1       0.729   1.148   0.000  0.00  0.00    +0.000 C 
ATOM     10  O   UNL     1       0.427   1.916   0.000  0.00  0.00    +0.000 OA
ATOM     11  C   UNL     1       1.551   1.086   0.000  0.00  0.00    +0.000 C 
ATOM     12  N   UNL     1       2.016   0.405   0.000  0.00  0.00    +0.000 NA
ATOM     13  C   UNL     1       1.773  -0.384   0.000  0.00  0.00    +0.000 C 
ENDROOT
BRANCH  13  14
ATOM     14  C   UNL     1       2.377  -0.945   0.000  0.00  0.00    +0.000 A 
ATOM     15  C   UNL     1       3.166  -0.702   0.000  0.00  0.00    +0.000 A 
ATOM     16  C   UNL     1       3.771  -1.263   0.000  0.00  0.00    +0.000 A 
ATOM     17  C   UNL     1       3.587  -2.067   0.000  0.00  0.00    +0.000 A 
ATOM     18  C   UNL     1       2.799  -2.310   0.000  0.00  0.00    +0.000 A 
ATOM     19  C   UNL     1       2.194  -1.749   0.000  0.00  0.00    +0.000 A 
ATOM     20  F   UNL     1       2.615  -3.115   0.000  0.00  0.00    +0.000 F 
ENDBRANCH  13  14
BRANCH  11  21
ATOM     21  N   UNL     1       1.964   1.801   0.000  0.00  0.00    +0.000 NA
ATOM     22  C   UNL     1       2.789   1.801   0.000  0.00  0.00    +0.000 C 
ATOM     23  O   UNL     1       3.201   1.086   0.000  0.00  0.00    +0.000 OA
BRANCH  22  24
ATOM     24  C   UNL     1       3.201   2.515   0.000  0.00  0.00    +0.000 C 
BRANCH  24  25
ATOM     25  C   UNL     1       2.789   3.230   0.000  0.00  0.00    +0.000 C 
BRANCH  25  26
ATOM     26  C   UNL     1       3.201   3.944   0.000  0.00  0.00    +0.000 C 
BRANCH  26  27
ATOM     27  C   UNL     1       2.789   4.659   0.000  0.00  0.00    +0.000 C 
ATOM     28  F   UNL     1       3.503   5.071   0.000  0.00  0.00    +0.000 F 
ATOM     29  F   UNL     1       2.074   4.246   0.000  0.00  0.00    +0.000 F 
ATOM     30  F   UNL     1       2.376   5.373   0.000  0.00  0.00    +0.000 F 
ENDBRANCH  26  27
ENDBRANCH  25  26
ENDBRANCH  24  25
BRANCH  24  31
ATOM     31  C   UNL     1       4.026   2.515   0.000  0.00  0.00    +0.000 C 
BRANCH  31  32
ATOM     32  C   UNL     1       4.439   1.801   0.000  0.00  0.00    +0.000 C 
ATOM     33  O   UNL     1       5.264   1.801   0.000  0.00  0.00    +0.000 OA
ATOM     34  N   UNL     1       4.026   1.086   0.000  0.00  0.00    +0.000 NA
ENDBRANCH  31  32
BRANCH  31  35
ATOM     35  C   UNL     1       4.439   3.230   0.000  0.00  0.00    +0.000 C 
BRANCH  35  36
ATOM     36  C   UNL     1       5.264   3.230   0.000  0.00  0.00    +0.000 C 
BRANCH  36  37
ATOM     37  C   UNL     1       5.676   3.944   0.000  0.00  0.00    +0.000 C 
ATOM     38  F   UNL     1       6.089   4.659   0.000  0.00  0.00    +0.000 F 
ATOM     39  F   UNL     1       6.391   3.532   0.000  0.00  0.00    +0.000 F 
ATOM     40  F   UNL     1       4.962   4.357   0.000  0.00  0.00    +0.000 F 
ENDBRANCH  36  37
ENDBRANCH  35  36
ENDBRANCH  31  35
ENDBRANCH  24  31
ENDBRANCH  22  24
ENDBRANCH  11  21
TORSDOF 11
