REMARK  Name = 
REMARK  10 active torsions:
REMARK  status: ('A' for Active; 'I' for Inactive)
REMARK    1  A    between atoms: C_2  and  O_3
REMARK    2  A    between atoms: O_3  and  C_4
REMARK    3  A    between atoms: C_9  and  O_10
REMARK    4  A    between atoms: O_10  and  C_11
REMARK    5  A    between atoms: N_16  and  C_18
REMARK    6  A    between atoms: C_18  and  C_19
REMARK    7  A    between atoms: C_19  and  C_21
REMARK    8  A    between atoms: C_23  and  C_35
REMARK    9  A    between atoms: C_24  and  O_33
REMARK   10  A    between atoms: C_25  and  N_27
REMARK                            x       y       z     vdW  Elec       q    Type
REMARK                         _______ _______ _______ _____ _____    ______ ____
ROOT
ATOM      1  C   UNL     1      -1.866   2.237   0.000  0.00  0.00    +0.000 C 
ATOM      2  O   UNL     1      -1.453   2.952   0.000  0.00  0.00    +0.000 OA
ENDROOT
BRANCH   1   3
ATOM      3  C   UNL     1      -2.691   2.237   0.000  0.00  0.00    +0.000 A 
ATOM      4  C   UNL     1      -3.103   1.523   0.000  0.00  0.00    +0.000 A 
ATOM      5  C   UNL     1      -3.928   1.523   0.000  0.00  0.00    +0.000 A 
ATOM      6  C   UNL     1      -4.341   2.237   0.000  0.00  0.00    +0.000 A 
ATOM      7  C   UNL     1      -3.928   2.952   0.000  0.00  0.00    +0.000 A 
ATOM      8  C   UNL     1      -3.103   2.952   0.000  0.00  0.00    +0.000 A 
BRANCH   7   9
ATOM      9  N   UNL     1      -4.341   3.666   0.000  0.00  0.00    +0.000 N 
ATOM     10  C   UNL     1      -5.166   3.666   0.000  0.00  0.00    +0.000 C 
ATOM     11  C   UNL     1      -5.578   4.381   0.000  0.00  0.00    +0.000 C 
ATOM     12  O   UNL     1      -5.166   5.095   0.000  0.00  0.00    +0.000 OA
ATOM     13  C   UNL     1      -4.341   5.095   0.000  0.00  0.00    +0.000 C 
ATOM     14  C   UNL     1      -3.928   4.381   0.000  0.00  0.00    +0.000 C 
ENDBRANCH   7   9
BRANCH   5  15
ATOM     15  C   UNL     1      -4.341   0.808   0.000  0.00  0.00    +0.000 C 
ATOM     16  C   UNL     1      -4.753   0.094   0.000  0.00  0.00    +0.000 C 
ATOM     17  C   UNL     1      -5.055   1.221   0.000  0.00  0.00    +0.000 C 
ATOM     18  C   UNL     1      -3.627   0.396   0.000  0.00  0.00    +0.000 C 
ENDBRANCH   5  15
BRANCH   6  19
ATOM     19  O   UNL     1      -5.166   2.237   0.000  0.00  0.00    +0.000 OA
ATOM     20  C   UNL     1      -5.578   2.952   0.000  0.00  0.00    +0.000 C 
ENDBRANCH   6  19
ENDBRANCH   1   3
BRANCH   1  21
ATOM     21  C   UNL     1      -1.453   1.523   0.000  0.00  0.00    +0.000 C 
BRANCH  21  31
ATOM     22  C   UNL     1       2.070   1.110   0.000  0.00  0.00    +0.000 A 
ATOM     23  C   UNL     1       1.356   0.698   0.000  0.00  0.00    +0.000 A 
ATOM     24  C   UNL     1       0.641   1.110   0.000  0.00  0.00    +0.000 A 
ATOM     25  C   UNL     1       0.641   1.935   0.000  0.00  0.00    +0.000 A 
ATOM     26  C   UNL     1       1.356   2.348   0.000  0.00  0.00    +0.000 A 
ATOM     27  C   UNL     1       2.070   1.935   0.000  0.00  0.00    +0.000 A 
ATOM     28  F   UNL     1       1.356   3.173   0.000  0.00  0.00    +0.000 F 
ATOM     29  C   UNL     1      -0.143   2.190   0.000  0.00  0.00    +0.000 C 
ATOM     30  N   UNL     1      -0.398   2.975   0.000  0.00  0.00    +0.000 NA
ATOM     31  N   UNL     1      -0.628   1.523   0.000  0.00  0.00    +0.000 N 
ATOM     32  C   UNL     1      -0.143   0.856   0.000  0.00  0.00    +0.000 C 
BRANCH  27  33
ATOM     33  O   UNL     1       2.784   2.348   0.000  0.00  0.00    +0.000 OA
BRANCH  33  34
ATOM     34  C   UNL     1       2.784   3.173   0.000  0.00  0.00    +0.000 C 
ATOM     35  C   UNL     1       3.499   3.585   0.000  0.00  0.00    +0.000 C 
ENDBRANCH  33  34
ENDBRANCH  27  33
BRANCH  22  36
ATOM     36  O   UNL     1       2.784   0.698   0.000  0.00  0.00    +0.000 OA
BRANCH  36  38
ATOM     37  C   UNL     1       4.213   0.698   0.000  0.00  0.00    +0.000 C 
ATOM     38  C   UNL     1       3.499   1.110   0.000  0.00  0.00    +0.000 C 
ENDBRANCH  36  38
ENDBRANCH  22  36
ENDBRANCH  21  31
ENDBRANCH   1  21
TORSDOF 10
