REMARK  Name = 
REMARK  7 active torsions:
REMARK  status: ('A' for Active; 'I' for Inactive)
REMARK    1  A    between atoms: C_7  and  C_11
REMARK    2  A    between atoms: N_13  and  C_14
REMARK    3  A    between atoms: C_14  and  C_15
REMARK    4  A    between atoms: C_15  and  N_18
REMARK    5  A    between atoms: N_18  and  C_19
REMARK    6  A    between atoms: C_19  and  C_20
REMARK    7  A    between atoms: C_26  and  C_27
REMARK                            x       y       z     vdW  Elec       q    Type
REMARK                         _______ _______ _______ _____ _____    ______ ____
ROOT
ATOM      1  C   UNL     1       4.781  -2.760   0.000  0.00  0.00    +0.000 C 
ENDROOT
BRANCH   1   4
ATOM      2  C   UNL     1       4.067  -1.523   0.000  0.00  0.00    +0.000 C 
ATOM      3  O   UNL     1       4.781  -1.110   0.000  0.00  0.00    +0.000 OA
ATOM      4  N   UNL     1       4.067  -2.348   0.000  0.00  0.00    +0.000 NA
BRANCH   2  11
ATOM      5  C   UNL     1      -0.171  -0.698   0.000  0.00  0.00    +0.000 C 
ATOM      6  C   UNL     1       0.654  -0.698   0.000  0.00  0.00    +0.000 A 
ATOM      7  C   UNL     1       1.139  -0.030   0.000  0.00  0.00    +0.000 A 
ATOM      8  C   UNL     1       1.923  -0.285   0.000  0.00  0.00    +0.000 A 
ATOM      9  N   UNL     1       2.638   0.127   0.000  0.00  0.00    +0.000 NA
ATOM     10  C   UNL     1       3.352  -0.285   0.000  0.00  0.00    +0.000 A 
ATOM     11  C   UNL     1       3.352  -1.110   0.000  0.00  0.00    +0.000 A 
ATOM     12  C   UNL     1       2.638  -1.523   0.000  0.00  0.00    +0.000 A 
ATOM     13  N   UNL     1       1.923  -1.110   0.000  0.00  0.00    +0.000 N 
ATOM     14  N   UNL     1       1.139  -1.365   0.000  0.00  0.00    +0.000 NA
ENDBRANCH   2  11
ENDBRANCH   1   4
BRANCH   1  15
ATOM     15  C   UNL     1       4.781  -3.585   0.000  0.00  0.00    +0.000 C 
ATOM     16  C   UNL     1       3.956  -3.585   0.000  0.00  0.00    +0.000 C 
ATOM     17  C   UNL     1       5.606  -3.585   0.000  0.00  0.00    +0.000 C 
BRANCH  15  18
ATOM     18  N   UNL     1       4.781  -4.410   0.000  0.00  0.00    +0.000 NA
BRANCH  18  19
ATOM     19  C   UNL     1       5.496  -4.823   0.000  0.00  0.00    +0.000 C 
BRANCH  19  20
ATOM     20  C   UNL     1       5.496  -5.648   0.000  0.00  0.00    +0.000 C 
ATOM     21  O   UNL     1       4.781  -6.060   0.000  0.00  0.00    +0.000 OA
ATOM     22  N   UNL     1       6.210  -6.060   0.000  0.00  0.00    +0.000 N 
ATOM     23  C   UNL     1       6.964  -5.725   0.000  0.00  0.00    +0.000 C 
ATOM     24  C   UNL     1       7.516  -6.338   0.000  0.00  0.00    +0.000 C 
ATOM     25  C   UNL     1       7.103  -7.053   0.000  0.00  0.00    +0.000 C 
ATOM     26  C   UNL     1       6.296  -6.881   0.000  0.00  0.00    +0.000 C 
BRANCH  26  27
ATOM     27  C   UNL     1       5.683  -7.433   0.000  0.00  0.00    +0.000 C 
ATOM     28  N   UNL     1       5.070  -7.985   0.000  0.00  0.00    +0.000 NA
ENDBRANCH  26  27
ENDBRANCH  19  20
ENDBRANCH  18  19
ENDBRANCH  15  18
ENDBRANCH   1  15
TORSDOF 7
