REMARK  Name = 
REMARK  2 active torsions:
REMARK  status: ('A' for Active; 'I' for Inactive)
REMARK    1  A    between atoms: C_4  and  C_14
REMARK    2  A    between atoms: C_15  and  C_21
REMARK                            x       y       z     vdW  Elec       q    Type
REMARK                         _______ _______ _______ _____ _____    ______ ____
ROOT
ATOM      1  C   UNL     1       1.422  -2.131   0.000  0.00  0.00    +0.000 C 
ATOM      2  C   UNL     1       2.207  -1.876   0.000  0.00  0.00    +0.000 C 
ATOM      3  C   UNL     1       2.692  -2.544   0.000  0.00  0.00    +0.000 C 
ATOM      4  O   UNL     1       3.517  -2.544   0.000  0.00  0.00    +0.000 OA
ATOM      5  N   UNL     1       2.207  -3.211   0.000  0.00  0.00    +0.000 NA
ATOM      6  C   UNL     1       1.422  -2.956   0.000  0.00  0.00    +0.000 C 
ATOM      7  O   UNL     1       0.755  -3.441   0.000  0.00  0.00    +0.000 OA
ENDROOT
BRANCH   1  11
ATOM      8  C   UNL     1      -1.340  -1.234   0.000  0.00  0.00    +0.000 C 
ATOM      9  N   UNL     1      -0.515  -1.234   0.000  0.00  0.00    +0.000 N 
ATOM     10  C   UNL     1      -0.030  -1.901   0.000  0.00  0.00    +0.000 A 
ATOM     11  C   UNL     1       0.755  -1.646   0.000  0.00  0.00    +0.000 A 
ATOM     12  C   UNL     1       0.755  -0.821   0.000  0.00  0.00    +0.000 A 
ATOM     13  C   UNL     1      -0.030  -0.566   0.000  0.00  0.00    +0.000 A 
ATOM     14  C   UNL     1      -0.201   0.241   0.000  0.00  0.00    +0.000 A 
ATOM     15  C   UNL     1       0.412   0.793   0.000  0.00  0.00    +0.000 A 
ATOM     16  O   UNL     1       0.412   1.618   0.000  0.00  0.00    +0.000 OA
ATOM     17  C   UNL     1       1.197   1.873   0.000  0.00  0.00    +0.000 C 
ATOM     18  O   UNL     1       1.681   1.205   0.000  0.00  0.00    +0.000 OA
ATOM     19  C   UNL     1       1.197   0.538   0.000  0.00  0.00    +0.000 A 
ATOM     20  C   UNL     1       1.368  -0.269   0.000  0.00  0.00    +0.000 A 
ENDBRANCH   1  11
BRANCH   2  21
ATOM     21  C   UNL     1       2.462  -1.091   0.000  0.00  0.00    +0.000 A 
ATOM     22  C   UNL     1       1.977  -0.424   0.000  0.00  0.00    +0.000 A 
ATOM     23  O   UNL     1       2.462   0.243   0.000  0.00  0.00    +0.000 OA
ATOM     24  C   UNL     1       3.247  -0.012   0.000  0.00  0.00    +0.000 A 
ATOM     25  C   UNL     1       3.961   0.401   0.000  0.00  0.00    +0.000 A 
ATOM     26  C   UNL     1       4.676  -0.012   0.000  0.00  0.00    +0.000 A 
ATOM     27  C   UNL     1       4.676  -0.837   0.000  0.00  0.00    +0.000 A 
ATOM     28  F   UNL     1       5.390  -1.249   0.000  0.00  0.00    +0.000 F 
ATOM     29  C   UNL     1       3.961  -1.249   0.000  0.00  0.00    +0.000 A 
ATOM     30  C   UNL     1       3.247  -0.837   0.000  0.00  0.00    +0.000 A 
ENDBRANCH   2  21
TORSDOF 2
