REMARK  Name = 
REMARK  6 active torsions:
REMARK  status: ('A' for Active; 'I' for Inactive)
REMARK    1  A    between atoms: O_2  and  C_3
REMARK    2  A    between atoms: C_6  and  C_9
REMARK    3  A    between atoms: N_19  and  C_20
REMARK    4  A    between atoms: C_23  and  O_26
REMARK    5  A    between atoms: O_26  and  C_27
REMARK    6  A    between atoms: C_27  and  C_28
REMARK                            x       y       z     vdW  Elec       q    Type
REMARK                         _______ _______ _______ _____ _____    ______ ____
ROOT
ATOM      1  C   UNL     1       1.716  -0.080   0.000  0.00  0.00    +0.000 A 
ATOM      2  C   UNL     1       1.716   0.745   0.000  0.00  0.00    +0.000 A 
ATOM      3  C   UNL     1       1.002   1.158   0.000  0.00  0.00    +0.000 A 
ATOM      4  C   UNL     1       1.002   1.983   0.000  0.00  0.00    +0.000 A 
ATOM      5  C   UNL     1       1.573   2.313   0.000  0.00  0.00    +0.000 C 
ATOM      6  N   UNL     1       0.287   2.395   0.000  0.00  0.00    +0.000 NA
ATOM      7  C   UNL     1      -0.427   1.983   0.000  0.00  0.00    +0.000 A 
ATOM      8  N   UNL     1      -0.999   2.313   0.000  0.00  0.00    +0.000 NA
ATOM      9  N   UNL     1      -0.427   1.158   0.000  0.00  0.00    +0.000 NA
ATOM     10  C   UNL     1       0.287   0.745   0.000  0.00  0.00    +0.000 A 
ATOM     11  N   UNL     1       0.287  -0.080   0.000  0.00  0.00    +0.000 N 
ATOM     12  C   UNL     1       1.002  -0.492   0.000  0.00  0.00    +0.000 A 
ATOM     13  O   UNL     1       1.002  -1.152   0.000  0.00  0.00    +0.000 OA
ENDROOT
BRANCH  11  14
ATOM     14  C   UNL     1      -0.427  -0.492   0.000  0.00  0.00    +0.000 C 
ATOM     15  C   UNL     1      -1.143  -0.081   0.000  0.00  0.00    +0.000 C 
ATOM     16  C   UNL     1      -1.857  -0.495   0.000  0.00  0.00    +0.000 C 
ATOM     17  C   UNL     1      -1.855  -1.320   0.000  0.00  0.00    +0.000 C 
ATOM     18  C   UNL     1      -1.140  -1.731   0.000  0.00  0.00    +0.000 C 
ATOM     19  C   UNL     1      -0.426  -1.318   0.000  0.00  0.00    +0.000 C 
BRANCH  17  20
ATOM     20  O   UNL     1      -2.570  -1.732   0.000  0.00  0.00    +0.000 OA
BRANCH  20  21
ATOM     21  C   UNL     1      -3.285  -1.320   0.000  0.00  0.00    +0.000 C 
BRANCH  21  22
ATOM     22  C   UNL     1      -4.000  -1.732   0.000  0.00  0.00    +0.000 C 
ATOM     23  O   UNL     1      -4.572  -1.402   0.000  0.00  0.00    +0.000 OA
ENDBRANCH  21  22
ENDBRANCH  20  21
ENDBRANCH  17  20
ENDBRANCH  11  14
BRANCH   1  27
ATOM     24  C   UNL     1       3.859  -1.320   0.000  0.00  0.00    +0.000 A 
ATOM     25  C   UNL     1       3.860  -0.495   0.000  0.00  0.00    +0.000 A 
ATOM     26  C   UNL     1       3.146  -0.081   0.000  0.00  0.00    +0.000 A 
ATOM     27  C   UNL     1       2.431  -0.492   0.000  0.00  0.00    +0.000 A 
ATOM     28  C   UNL     1       2.430  -1.318   0.000  0.00  0.00    +0.000 A 
ATOM     29  N   UNL     1       3.143  -1.731   0.000  0.00  0.00    +0.000 NA
BRANCH  24  31
ATOM     30  C   UNL     1       4.570  -2.395   0.000  0.00  0.00    +0.000 C 
ATOM     31  O   UNL     1       4.572  -1.735   0.000  0.00  0.00    +0.000 OA
ENDBRANCH  24  31
ENDBRANCH   1  27
TORSDOF 6
