REMARK  Name = 
REMARK  5 active torsions:
REMARK  status: ('A' for Active; 'I' for Inactive)
REMARK    1  A    between atoms: C_2  and  O_3
REMARK    2  A    between atoms: O_3  and  C_4
REMARK    3  A    between atoms: C_5  and  C_18
REMARK    4  A    between atoms: C_11  and  C_12
REMARK    5  A    between atoms: C_18  and  N_20
REMARK                            x       y       z     vdW  Elec       q    Type
REMARK                         _______ _______ _______ _____ _____    ______ ____
ROOT
ATOM      1  C   UNL     1      -1.460   1.710   0.000  0.00  0.00    +0.000 A 
ATOM      2  C   UNL     1      -1.205   0.926   0.000  0.00  0.00    +0.000 A 
ATOM      3  C   UNL     1      -1.758   0.313   0.000  0.00  0.00    +0.000 A 
ATOM      4  C   UNL     1      -2.564   0.484   0.000  0.00  0.00    +0.000 A 
ATOM      5 CL   UNL     1      -3.116  -0.129   0.000  0.00  0.00    +0.000 Cl
ATOM      6  C   UNL     1      -2.819   1.269   0.000  0.00  0.00    +0.000 A 
ATOM      7  F   UNL     1      -3.626   1.440   0.000  0.00  0.00    +0.000 F 
ATOM      8  C   UNL     1      -2.267   1.882   0.000  0.00  0.00    +0.000 A 
ENDROOT
BRANCH   8   9
ATOM      9  C   UNL     1      -2.522   2.666   0.000  0.00  0.00    +0.000 C 
ATOM     10  C   UNL     1      -3.307   2.921   0.000  0.00  0.00    +0.000 C 
ATOM     11  N   UNL     1      -3.307   3.746   0.000  0.00  0.00    +0.000 NA
ATOM     12  C   UNL     1      -2.522   4.001   0.000  0.00  0.00    +0.000 C 
ATOM     13  O   UNL     1      -2.267   4.786   0.000  0.00  0.00    +0.000 OA
ATOM     14  C   UNL     1      -2.037   3.334   0.000  0.00  0.00    +0.000 C 
ENDBRANCH   8   9
BRANCH   2  15
ATOM     15  C   UNL     1      -0.398   0.754   0.000  0.00  0.00    +0.000 C 
ATOM     16  C   UNL     1       0.154   1.367   0.000  0.00  0.00    +0.000 C 
BRANCH  15  17
ATOM     17  N   UNL     1      -0.143  -0.030   0.000  0.00  0.00    +0.000 N 
ATOM     18  N   UNL     1      -0.628  -0.698   0.000  0.00  0.00    +0.000 NA
ATOM     19  C   UNL     1      -0.143  -1.365   0.000  0.00  0.00    +0.000 A 
ATOM     20  C   UNL     1      -0.398  -2.150   0.000  0.00  0.00    +0.000 C 
ATOM     21  C   UNL     1       0.641  -1.110   0.000  0.00  0.00    +0.000 A 
ATOM     22  C   UNL     1       0.641  -0.285   0.000  0.00  0.00    +0.000 A 
ATOM     23  N   UNL     1       1.356   0.127   0.000  0.00  0.00    +0.000 NA
ATOM     24  C   UNL     1       2.070  -0.285   0.000  0.00  0.00    +0.000 A 
ATOM     25  N   UNL     1       2.070  -1.110   0.000  0.00  0.00    +0.000 NA
ATOM     26  C   UNL     1       1.356  -1.523   0.000  0.00  0.00    +0.000 A 
ATOM     27  N   UNL     1       1.356  -2.348   0.000  0.00  0.00    +0.000 NA
ENDBRANCH  15  17
ENDBRANCH   2  15
BRANCH   1  28
ATOM     28  O   UNL     1      -0.908   2.323   0.000  0.00  0.00    +0.000 OA
BRANCH  28  30
ATOM     29  C   UNL     1      -0.611   3.721   0.000  0.00  0.00    +0.000 C 
ATOM     30  C   UNL     1      -1.163   3.108   0.000  0.00  0.00    +0.000 C 
ENDBRANCH  28  30
ENDBRANCH   1  28
TORSDOF 5
