REMARK  Name = 
REMARK  2 active torsions:
REMARK  status: ('A' for Active; 'I' for Inactive)
REMARK    1  A    between atoms: C_5  and  C_7
REMARK    2  A    between atoms: N_15  and  S_23
REMARK                            x       y       z     vdW  Elec       q    Type
REMARK                         _______ _______ _______ _____ _____    ______ ____
ROOT
ATOM      1  C   UNL     1      -0.390  -1.029   0.000  0.00  0.00    +0.000 A 
ATOM      2  N   UNL     1       1.044  -0.213   0.000  0.00  0.00    +0.000 NA
ATOM      3  C   UNL     1       0.331   0.204   0.000  0.00  0.00    +0.000 A 
ATOM      4  N   UNL     1      -0.390  -0.204   0.000  0.00  0.00    +0.000 NA
ATOM      5  C   UNL     1       1.037  -1.039   0.000  0.00  0.00    +0.000 A 
ATOM      6  C   UNL     1       0.320  -1.444   0.000  0.00  0.00    +0.000 A 
ATOM      7  C   UNL     1       0.484  -2.253   0.000  0.00  0.00    +0.000 C 
ATOM      8  C   UNL     1       1.303  -2.346   0.000  0.00  0.00    +0.000 C 
ATOM      9  N   UNL     1       1.645  -1.596   0.000  0.00  0.00    +0.000 N 
ATOM     10  N   UNL     1       0.338   1.030   0.000  0.00  0.00    +0.000 N 
ATOM     11  C   UNL     1       1.058   1.437   0.000  0.00  0.00    +0.000 C 
ATOM     12  C   UNL     1       1.065   2.259   0.000  0.00  0.00    +0.000 C 
ATOM     13  O   UNL     1       0.354   2.680   0.000  0.00  0.00    +0.000 OA
ATOM     14  C   UNL     1      -0.365   2.273   0.000  0.00  0.00    +0.000 C 
ATOM     15  C   UNL     1      -0.374   1.444   0.000  0.00  0.00    +0.000 C 
ENDROOT
BRANCH   1  20
ATOM     16  N   UNL     1      -2.534  -1.440   0.000  0.00  0.00    +0.000 NA
ATOM     17  C   UNL     1      -2.534  -2.266   0.000  0.00  0.00    +0.000 A 
ATOM     18  N   UNL     1      -1.822  -2.674   0.000  0.00  0.00    +0.000 NA
ATOM     19  C   UNL     1      -1.109  -2.266   0.000  0.00  0.00    +0.000 A 
ATOM     20  C   UNL     1      -1.109  -1.440   0.000  0.00  0.00    +0.000 A 
ATOM     21  C   UNL     1      -1.822  -1.023   0.000  0.00  0.00    +0.000 A 
ATOM     22  N   UNL     1      -3.249  -2.680   0.000  0.00  0.00    +0.000 NA
ENDBRANCH   1  20
BRANCH   9  23
ATOM     23  S   UNL     1       2.454  -1.431   0.000  0.00  0.00    +0.000 S 
ATOM     24  O   UNL     1       2.448  -0.602   0.000  0.00  0.00    +0.000 OA
ATOM     25  O   UNL     1       3.249  -1.211   0.000  0.00  0.00    +0.000 OA
ATOM     26  C   UNL     1       2.665  -2.224   0.000  0.00  0.00    +0.000 C 
ENDBRANCH   9  23
TORSDOF 2
