REMARK  Name = 
REMARK  7 active torsions:
REMARK  status: ('A' for Active; 'I' for Inactive)
REMARK    1  A    between atoms: C_2  and  O_3
REMARK    2  A    between atoms: O_3  and  C_4
REMARK    3  A    between atoms: C_4  and  C_6
REMARK    4  A    between atoms: C_7  and  C_29
REMARK    5  A    between atoms: C_11  and  C_20
REMARK    6  A    between atoms: C_12  and  C_13
REMARK    7  A    between atoms: C_32  and  N_35
REMARK                            x       y       z     vdW  Elec       q    Type
REMARK                         _______ _______ _______ _____ _____    ______ ____
ROOT
ATOM      1  C   UNL     1      -1.970   3.280   0.000  0.00  0.00    +0.000 C 
ATOM      2  C   UNL     1      -1.163   3.108   0.000  0.00  0.00    +0.000 C 
ATOM      3  N   UNL     1      -0.611   3.721   0.000  0.00  0.00    +0.000 NA
ATOM      4  C   UNL     1      -0.866   4.506   0.000  0.00  0.00    +0.000 C 
ATOM      5  C   UNL     1      -0.314   5.119   0.000  0.00  0.00    +0.000 C 
ATOM      6  C   UNL     1      -1.673   4.677   0.000  0.00  0.00    +0.000 C 
ATOM      7  C   UNL     1      -2.225   4.064   0.000  0.00  0.00    +0.000 C 
ENDROOT
BRANCH   6   8
ATOM      8  C   UNL     1      -1.928   5.462   0.000  0.00  0.00    +0.000 C 
ATOM      9  O   UNL     1      -2.735   5.633   0.000  0.00  0.00    +0.000 OA
ATOM     10  N   UNL     1      -1.376   6.075   0.000  0.00  0.00    +0.000 NA
ATOM     11  C   UNL     1      -1.631   6.860   0.000  0.00  0.00    +0.000 A 
ATOM     12  N   UNL     1      -2.438   7.031   0.000  0.00  0.00    +0.000 NA
ATOM     13  C   UNL     1      -2.693   7.816   0.000  0.00  0.00    +0.000 A 
ATOM     14  C   UNL     1      -2.141   8.429   0.000  0.00  0.00    +0.000 A 
ATOM     15  C   UNL     1      -1.334   8.257   0.000  0.00  0.00    +0.000 A 
ATOM     16  C   UNL     1      -1.079   7.473   0.000  0.00  0.00    +0.000 A 
ENDBRANCH   6   8
BRANCH   7  17
ATOM     17  C   UNL     1      -3.032   4.236   0.000  0.00  0.00    +0.000 A 
ATOM     18  C   UNL     1      -3.287   5.020   0.000  0.00  0.00    +0.000 A 
ATOM     19  C   UNL     1      -4.094   5.192   0.000  0.00  0.00    +0.000 A 
ATOM     20  C   UNL     1      -4.646   4.579   0.000  0.00  0.00    +0.000 A 
ATOM     21  C   UNL     1      -4.391   3.794   0.000  0.00  0.00    +0.000 A 
ATOM     22  C   UNL     1      -3.584   3.623   0.000  0.00  0.00    +0.000 A 
ATOM     23 CL   UNL     1      -3.839   2.838   0.000  0.00  0.00    +0.000 Cl
ENDBRANCH   7  17
BRANCH   2  24
ATOM     24  C   UNL     1      -0.908   2.323   0.000  0.00  0.00    +0.000 A 
ATOM     25  C   UNL     1      -0.101   2.152   0.000  0.00  0.00    +0.000 A 
ATOM     26  C   UNL     1       0.154   1.367   0.000  0.00  0.00    +0.000 A 
ATOM     27  C   UNL     1      -0.398   0.754   0.000  0.00  0.00    +0.000 A 
ATOM     28  C   UNL     1      -1.205   0.926   0.000  0.00  0.00    +0.000 A 
ATOM     29  C   UNL     1      -1.460   1.710   0.000  0.00  0.00    +0.000 A 
BRANCH  27  30
ATOM     30  N   UNL     1      -0.143  -0.030   0.000  0.00  0.00    +0.000 N 
ATOM     31  C   UNL     1      -0.628  -0.698   0.000  0.00  0.00    +0.000 A 
ATOM     32  C   UNL     1      -1.453  -0.698   0.000  0.00  0.00    +0.000 C 
ATOM     33  N   UNL     1      -0.143  -1.365   0.000  0.00  0.00    +0.000 NA
ATOM     34  C   UNL     1       0.641  -1.110   0.000  0.00  0.00    +0.000 A 
ATOM     35  C   UNL     1       0.641  -0.285   0.000  0.00  0.00    +0.000 A 
ATOM     36  C   UNL     1       1.356   0.127   0.000  0.00  0.00    +0.000 A 
ATOM     37  C   UNL     1       2.070  -0.285   0.000  0.00  0.00    +0.000 A 
ATOM     38  N   UNL     1       2.070  -1.110   0.000  0.00  0.00    +0.000 NA
ATOM     39  C   UNL     1       1.356  -1.523   0.000  0.00  0.00    +0.000 A 
ENDBRANCH  27  30
ENDBRANCH   2  24
BRANCH   1  40
ATOM     40  C   UNL     1      -2.522   2.666   0.000  0.00  0.00    +0.000 C 
ATOM     41  O   UNL     1      -2.267   1.882   0.000  0.00  0.00    +0.000 OA
BRANCH  40  42
ATOM     42  O   UNL     1      -3.329   2.838   0.000  0.00  0.00    +0.000 OA
BRANCH  42  44
ATOM     43  C   UNL     1      -4.688   2.396   0.000  0.00  0.00    +0.000 C 
ATOM     44  C   UNL     1      -3.881   2.225   0.000  0.00  0.00    +0.000 C 
ENDBRANCH  42  44
ENDBRANCH  40  42
ENDBRANCH   1  40
TORSDOF 7
