REMARK  Name = 
REMARK  2 active torsions:
REMARK  status: ('A' for Active; 'I' for Inactive)
REMARK    1  A    between atoms: C_1  and  C_3
REMARK    2  A    between atoms: C_2  and  C_3
REMARK                            x       y       z     vdW  Elec       q    Type
REMARK                         _______ _______ _______ _____ _____    ______ ____
ROOT
ATOM      1  C   UNL     1      -0.000   0.261   0.000  0.00  0.00    +0.000 C 
ATOM      2  F   UNL     1      -0.413   0.976   0.000  0.00  0.00    +0.000 F 
ATOM      3  F   UNL     1       0.412   0.976   0.000  0.00  0.00    +0.000 F 
ENDROOT
BRANCH   1   4
ATOM      4  C   UNL     1      -0.715  -0.151   0.000  0.00  0.00    +0.000 C 
ATOM      5  F   UNL     1      -1.429   0.261   0.000  0.00  0.00    +0.000 F 
ATOM      6  F   UNL     1      -0.715  -0.976   0.000  0.00  0.00    +0.000 F 
ATOM      7  F   UNL     1      -1.426  -0.556   0.000  0.00  0.00    +0.000 F 
ENDBRANCH   1   4
BRANCH   1   8
ATOM      8  C   UNL     1       0.714  -0.151   0.000  0.00  0.00    +0.000 C 
ATOM      9  F   UNL     1       0.714  -0.976   0.000  0.00  0.00    +0.000 F 
ATOM     10  F   UNL     1       1.429   0.261   0.000  0.00  0.00    +0.000 F 
ATOM     11  F   UNL     1       1.429  -0.566   0.000  0.00  0.00    +0.000 F 
ENDBRANCH   1   8
TORSDOF 2
