REMARK  Name = 
REMARK  3 active torsions:
REMARK  status: ('A' for Active; 'I' for Inactive)
REMARK    1  A    between atoms: C_1  and  C_8
REMARK    2  A    between atoms: C_5  and  N_22
REMARK    3  A    between atoms: C_9  and  C_10
REMARK                            x       y       z     vdW  Elec       q    Type
REMARK                         _______ _______ _______ _____ _____    ______ ____
ROOT
ATOM      1  C   UNL     1       0.349   0.412   0.000  0.00  0.00    +0.000 A 
ATOM      2  N   UNL     1      -0.366   0.825   0.000  0.00  0.00    +0.000 NA
ATOM      3  C   UNL     1      -0.366   1.650   0.000  0.00  0.00    +0.000 A 
ATOM      4  C   UNL     1       0.349   2.062   0.000  0.00  0.00    +0.000 A 
ATOM      5  C   UNL     1       1.063   1.650   0.000  0.00  0.00    +0.000 A 
ATOM      6  N   UNL     1       1.063   0.825   0.000  0.00  0.00    +0.000 NA
ATOM      7  N   UNL     1      -1.080   2.062   0.000  0.00  0.00    +0.000 NA
ATOM      8  N   UNL     1      -2.688   0.658   0.000  0.00  0.00    +0.000 NA
ATOM      9  N   UNL     1      -1.881   0.830   0.000  0.00  0.00    +0.000 NA
ATOM     10  C   UNL     1      -1.795   1.650   0.000  0.00  0.00    +0.000 A 
ATOM     11  C   UNL     1      -2.548   1.986   0.000  0.00  0.00    +0.000 A 
ATOM     12  C   UNL     1      -3.100   1.372   0.000  0.00  0.00    +0.000 A 
ATOM     13  C   UNL     1      -3.921   1.459   0.000  0.00  0.00    +0.000 C 
ENDROOT
BRANCH   5  14
ATOM     14  N   UNL     1       1.778   2.062   0.000  0.00  0.00    +0.000 N 
ATOM     15  C   UNL     1       1.778   2.888   0.000  0.00  0.00    +0.000 C 
ATOM     16  C   UNL     1       2.492   3.300   0.000  0.00  0.00    +0.000 C 
ATOM     17  N   UNL     1       3.206   2.888   0.000  0.00  0.00    +0.000 NA
ATOM     18  C   UNL     1       3.206   2.062   0.000  0.00  0.00    +0.000 C 
ATOM     19  C   UNL     1       2.492   1.650   0.000  0.00  0.00    +0.000 C 
ATOM     20  C   UNL     1       3.921   3.300   0.000  0.00  0.00    +0.000 C 
ENDBRANCH   5  14
BRANCH   1  21
ATOM     21  C   UNL     1       0.349  -0.412   0.000  0.00  0.00    +0.000 C 
ATOM     22  C   UNL     1      -0.366  -0.825   0.000  0.00  0.00    +0.000 C 
BRANCH  22  23
ATOM     23  C   UNL     1      -0.366  -1.650   0.000  0.00  0.00    +0.000 A 
ATOM     24  C   UNL     1       0.349  -2.062   0.000  0.00  0.00    +0.000 A 
ATOM     25  C   UNL     1       0.349  -2.887   0.000  0.00  0.00    +0.000 A 
ATOM     26  C   UNL     1      -0.366  -3.300   0.000  0.00  0.00    +0.000 A 
ATOM     27  C   UNL     1      -1.080  -2.887   0.000  0.00  0.00    +0.000 A 
ATOM     28  C   UNL     1      -1.080  -2.062   0.000  0.00  0.00    +0.000 A 
ENDBRANCH  22  23
ENDBRANCH   1  21
TORSDOF 3
