REMARK  Name = 
REMARK  7 active torsions:
REMARK  status: ('A' for Active; 'I' for Inactive)
REMARK    1  A    between atoms: C_8  and  C_10
REMARK    2  A    between atoms: C_8  and  C_15
REMARK    3  A    between atoms: C_9  and  C_14
REMARK    4  A    between atoms: C_9  and  O_23
REMARK    5  A    between atoms: C_13  and  N_19
REMARK    6  A    between atoms: C_15  and  O_23
REMARK    7  A    between atoms: C_16  and  N_19
REMARK                            x       y       z     vdW  Elec       q    Type
REMARK                         _______ _______ _______ _____ _____    ______ ____
ROOT
ATOM      1  C   UNL     1       2.143   3.712   0.000  0.00  0.00    +0.000 A 
ATOM      2  C   UNL     1       1.429   3.300   0.000  0.00  0.00    +0.000 A 
ATOM      3  C   UNL     1       2.858   3.300   0.000  0.00  0.00    +0.000 A 
ATOM      4  C   UNL     1       1.429   2.475   0.000  0.00  0.00    +0.000 A 
ATOM      5  C   UNL     1       2.858   2.475   0.000  0.00  0.00    +0.000 A 
ATOM      6  C   UNL     1       2.143   2.062   0.000  0.00  0.00    +0.000 A 
ENDROOT
BRANCH   5   7
ATOM      7  C   UNL     1       3.572   2.062   0.000  0.00  0.00    +0.000 C 
BRANCH   7   8
ATOM      8  C   UNL     1       4.287   2.475   0.000  0.00  0.00    +0.000 C 
ATOM      9  O   UNL     1       4.287   3.300   0.000  0.00  0.00    +0.000 OA
BRANCH   8  10
ATOM     10  O   UNL     1       5.001   2.062   0.000  0.00  0.00    +0.000 OA
BRANCH  10  11
ATOM     11  C   UNL     1       5.716   2.475   0.000  0.00  0.00    +0.000 C 
BRANCH  11  12
ATOM     12  C   UNL     1       6.430   2.062   0.000  0.00  0.00    +0.000 C 
ATOM     13  O   UNL     1       7.145   2.475   0.000  0.00  0.00    +0.000 OA
ATOM     14  O   UNL     1       6.430   1.238   0.000  0.00  0.00    +0.000 OA
ENDBRANCH  11  12
ENDBRANCH  10  11
ENDBRANCH   8  10
ENDBRANCH   7   8
ENDBRANCH   5   7
BRANCH   6  15
ATOM     15  N   UNL     1       2.143   1.238   0.000  0.00  0.00    +0.000 NA
BRANCH  15  21
ATOM     16  C   UNL     1       0.000   0.000   0.000  0.00  0.00    +0.000 A 
ATOM     17  C   UNL     1       0.715  -0.412   0.000  0.00  0.00    +0.000 A 
ATOM     18  C   UNL     1       0.000   0.825   0.000  0.00  0.00    +0.000 A 
ATOM     19  C   UNL     1       1.429   0.000   0.000  0.00  0.00    +0.000 A 
ATOM     20  C   UNL     1       0.715   1.238   0.000  0.00  0.00    +0.000 A 
ATOM     21  C   UNL     1       1.429   0.825   0.000  0.00  0.00    +0.000 A 
ATOM     22 CL   UNL     1       2.143  -0.412   0.000  0.00  0.00    +0.000 Cl
ATOM     23 CL   UNL     1       0.715   2.062   0.000  0.00  0.00    +0.000 Cl
ENDBRANCH  15  21
ENDBRANCH   6  15
TORSDOF 7
