REMARK  Name = 
REMARK  5 active torsions:
REMARK  status: ('A' for Active; 'I' for Inactive)
REMARK    1  A    between atoms: C_2  and  N_3
REMARK    2  A    between atoms: C_2  and  C_13
REMARK    3  A    between atoms: N_3  and  C_4
REMARK    4  A    between atoms: C_9  and  C_10
REMARK    5  A    between atoms: C_22  and  N_25
REMARK                            x       y       z     vdW  Elec       q    Type
REMARK                         _______ _______ _______ _____ _____    ______ ____
ROOT
ATOM      1  C   UNL     1       1.429  -1.650   0.000  0.00  0.00    +0.000 A 
ATOM      2  C   UNL     1       0.715  -1.238   0.000  0.00  0.00    +0.000 A 
ATOM      3  C   UNL     1       0.715  -0.412   0.000  0.00  0.00    +0.000 A 
ATOM      4  C   UNL     1       0.000   0.000   0.000  0.00  0.00    +0.000 C 
ATOM      5  C   UNL     1       1.429   0.000   0.000  0.00  0.00    +0.000 A 
ATOM      6  N   UNL     1       2.143  -0.412   0.000  0.00  0.00    +0.000 N 
ATOM      7  C   UNL     1       2.858   0.000   0.000  0.00  0.00    +0.000 A 
ATOM      8  O   UNL     1       2.858   0.825   0.000  0.00  0.00    +0.000 OA
ATOM      9  C   UNL     1       3.572  -0.412   0.000  0.00  0.00    +0.000 A 
ATOM     10  C   UNL     1       3.572  -1.238   0.000  0.00  0.00    +0.000 A 
ATOM     11  N   UNL     1       2.858  -1.650   0.000  0.00  0.00    +0.000 NA
ATOM     12  C   UNL     1       2.143  -1.238   0.000  0.00  0.00    +0.000 A 
ENDROOT
BRANCH  10  13
ATOM     13  N   UNL     1       4.287  -1.650   0.000  0.00  0.00    +0.000 N 
ATOM     14  C   UNL     1       5.001  -1.238   0.000  0.00  0.00    +0.000 C 
ATOM     15  C   UNL     1       5.716  -1.650   0.000  0.00  0.00    +0.000 C 
ATOM     16  O   UNL     1       5.716  -2.475   0.000  0.00  0.00    +0.000 OA
ATOM     17  C   UNL     1       5.001  -2.888   0.000  0.00  0.00    +0.000 C 
ATOM     18  C   UNL     1       4.287  -2.475   0.000  0.00  0.00    +0.000 C 
ENDBRANCH  10  13
BRANCH   1  20
ATOM     19  C   UNL     1       2.143  -2.888   0.000  0.00  0.00    +0.000 C 
ATOM     20  C   UNL     1       1.429  -2.475   0.000  0.00  0.00    +0.000 C 
BRANCH  20  21
ATOM     21  N   UNL     1       0.715  -2.888   0.000  0.00  0.00    +0.000 NA
BRANCH  21  22
ATOM     22  C   UNL     1       0.715  -3.712   0.000  0.00  0.00    +0.000 A 
ATOM     23  C   UNL     1       1.429  -4.125   0.000  0.00  0.00    +0.000 A 
ATOM     24  C   UNL     1       1.429  -4.950   0.000  0.00  0.00    +0.000 A 
ATOM     25  C   UNL     1       0.715  -5.362   0.000  0.00  0.00    +0.000 A 
ATOM     26  C   UNL     1       0.000  -4.950   0.000  0.00  0.00    +0.000 A 
ATOM     27  C   UNL     1       0.000  -4.125   0.000  0.00  0.00    +0.000 A 
BRANCH  27  28
ATOM     28  C   UNL     1      -0.715  -3.712   0.000  0.00  0.00    +0.000 C 
ATOM     29  O   UNL     1      -0.715  -2.888   0.000  0.00  0.00    +0.000 OA
ATOM     30  O   UNL     1      -1.429  -4.125   0.000  0.00  0.00    +0.000 OA
ENDBRANCH  27  28
ENDBRANCH  21  22
ENDBRANCH  20  21
ENDBRANCH   1  20
TORSDOF 5
