REMARK  Name = 
REMARK  6 active torsions:
REMARK  status: ('A' for Active; 'I' for Inactive)
REMARK    1  A    between atoms: C_5  and  C_7
REMARK    2  A    between atoms: N_11  and  C_12
REMARK    3  A    between atoms: C_12  and  C_13
REMARK    4  A    between atoms: C_17  and  C_18
REMARK    5  A    between atoms: C_18  and  O_19
REMARK    6  A    between atoms: O_19  and  C_20
REMARK                            x       y       z     vdW  Elec       q    Type
REMARK                         _______ _______ _______ _____ _____    ______ ____
ROOT
ATOM      1  C   UNL     1       0.715  -0.412   0.000  0.00  0.00    +0.000 A 
ATOM      2  C   UNL     1       0.000   0.000   0.000  0.00  0.00    +0.000 A 
ATOM      3  N   UNL     1      -0.785  -0.255   0.000  0.00  0.00    +0.000 NA
ATOM      4  N   UNL     1      -1.270   0.412   0.000  0.00  0.00    +0.000 NA
ATOM      5  N   UNL     1      -0.785   1.080   0.000  0.00  0.00    +0.000 N 
ATOM      6  C   UNL     1       0.000   0.825   0.000  0.00  0.00    +0.000 A 
ATOM      7  N   UNL     1       0.715   1.238   0.000  0.00  0.00    +0.000 NA
ATOM      8  C   UNL     1       1.429   0.825   0.000  0.00  0.00    +0.000 A 
ATOM      9  N   UNL     1       2.143   1.238   0.000  0.00  0.00    +0.000 NA
ATOM     10  N   UNL     1       1.429   0.000   0.000  0.00  0.00    +0.000 NA
ENDROOT
BRANCH   1  15
ATOM     11  C   UNL     1       1.612  -3.175   0.000  0.00  0.00    +0.000 C 
ATOM     12  C   UNL     1       1.127  -2.507   0.000  0.00  0.00    +0.000 A 
ATOM     13  C   UNL     1       0.302  -2.507   0.000  0.00  0.00    +0.000 A 
ATOM     14  C   UNL     1       0.047  -1.722   0.000  0.00  0.00    +0.000 A 
ATOM     15  C   UNL     1       0.715  -1.238   0.000  0.00  0.00    +0.000 A 
ATOM     16  O   UNL     1       1.382  -1.722   0.000  0.00  0.00    +0.000 OA
ENDBRANCH   1  15
BRANCH   5  17
ATOM     17  C   UNL     1      -1.040   1.865   0.000  0.00  0.00    +0.000 C 
BRANCH  17  18
ATOM     18  C   UNL     1      -1.847   2.036   0.000  0.00  0.00    +0.000 A 
ATOM     19  C   UNL     1      -2.399   1.423   0.000  0.00  0.00    +0.000 A 
ATOM     20  C   UNL     1      -3.205   1.595   0.000  0.00  0.00    +0.000 A 
ATOM     21  C   UNL     1      -3.461   2.379   0.000  0.00  0.00    +0.000 A 
ATOM     22  C   UNL     1      -2.908   2.992   0.000  0.00  0.00    +0.000 A 
ATOM     23  N   UNL     1      -2.102   2.821   0.000  0.00  0.00    +0.000 NA
BRANCH  22  24
ATOM     24  C   UNL     1      -3.163   3.777   0.000  0.00  0.00    +0.000 C 
BRANCH  24  25
ATOM     25  O   UNL     1      -3.970   3.948   0.000  0.00  0.00    +0.000 OA
BRANCH  25  26
ATOM     26  C   UNL     1      -4.225   4.733   0.000  0.00  0.00    +0.000 C 
ATOM     27  C   UNL     1      -5.010   4.988   0.000  0.00  0.00    +0.000 C 
ATOM     28  C   UNL     1      -5.010   5.813   0.000  0.00  0.00    +0.000 C 
ATOM     29  O   UNL     1      -4.225   6.068   0.000  0.00  0.00    +0.000 OA
ATOM     30  C   UNL     1      -3.740   5.400   0.000  0.00  0.00    +0.000 C 
ENDBRANCH  25  26
ENDBRANCH  24  25
ENDBRANCH  22  24
ENDBRANCH  17  18
ENDBRANCH   5  17
TORSDOF 6
