REMARK  Name = 
REMARK  7 active torsions:
REMARK  status: ('A' for Active; 'I' for Inactive)
REMARK    1  A    between atoms: C_2  and  CA_3
REMARK    2  A    between atoms: CA_3  and  CB_4
REMARK    3  A    between atoms: CA_3  and  N_6
REMARK    4  A    between atoms: C_7  and  C_9
REMARK    5  A    between atoms: C_9  and  C_11
REMARK    6  A    between atoms: C_11  and  C_13
REMARK    7  A    between atoms: C_17  and  C_19
REMARK                            x       y       z     vdW  Elec       q    Type
REMARK                         _______ _______ _______ _____ _____    ______ ____
ROOT
ATOM      1  C   UNK A   0       0.542   0.105   0.000  0.00  0.00    +0.000 C 
ATOM      2  C   UNK A   0       0.629   0.925   0.000  0.00  0.00    +0.000 C 
ATOM      3  C   UNK A   0       0.015   1.478   0.000  0.00  0.00    +0.000 C 
ATOM      4  O   UNK A   0       1.435   1.097   0.000  0.00  0.00    +0.000 OA
ATOM      5  C   UNK A   0       1.848   0.383   0.000  0.00  0.00    +0.000 C 
ATOM      6  N   UNK A   0       1.296  -0.231   0.000  0.00  0.00    +0.000 NA
ENDROOT
BRANCH   5   7
ATOM      7  C   UNK A   0       2.668   0.296   0.000  0.00  0.00    +0.000 A 
ATOM      8  C   UNK A   0       3.154   0.964   0.000  0.00  0.00    +0.000 A 
ATOM      9  C   UNK A   0       3.974   0.877   0.000  0.00  0.00    +0.000 A 
ATOM     10 CL   UNK A   0       4.459   1.545   0.000  0.00  0.00    +0.000 Cl
ATOM     11  C   UNK A   0       4.309   0.124   0.000  0.00  0.00    +0.000 A 
ATOM     12  C   UNK A   0       3.825  -0.543   0.000  0.00  0.00    +0.000 A 
ATOM     13  C   UNK A   0       3.004  -0.457   0.000  0.00  0.00    +0.000 A 
ATOM     14  O   UNK A   0       2.519  -1.125   0.000  0.00  0.00    +0.000 OA
ENDBRANCH   5   7
BRANCH   1  15
ATOM     15  C   UNK A   0      -0.172  -0.307   0.000  0.00  0.00    +0.000 C 
ATOM     16  O   UNK A   0      -0.172  -1.132   0.000  0.00  0.00    +0.000 OA
BRANCH  15  17
ATOM     17  C   UNK A   0      -0.886   0.105   0.000  0.00  0.00    +0.000 C 
ATOM     18  O   UNK A   0      -0.886   0.930   0.000  0.00  0.00    +0.000 OA
BRANCH  17  20
ATOM     19  N   SER A   1      -2.315   0.105   0.000  0.00  0.00    +0.000 NA
ATOM     20  C   UNK A   0      -1.601  -0.307   0.000  0.00  0.00    +0.000 C 
ATOM     21  O   UNK A   0      -1.601  -1.132   0.000  0.00  0.00    +0.000 OA
BRANCH  19  22
ATOM     22  CA  SER A   1      -3.030  -0.307   0.000  0.00  0.00    +0.000 C 
BRANCH  22  23
ATOM     23  CB  SER A   1      -3.030  -1.132   0.000  0.00  0.00    +0.000 C 
ATOM     24  OG  SER A   1      -3.744  -1.545   0.000  0.00  0.00    +0.000 OA
ENDBRANCH  22  23
BRANCH  22  26
ATOM     25  O   SER A   1      -4.459  -0.307   0.000  0.00  0.00    +0.000 OA
ATOM     26  C   SER A   1      -3.744   0.105   0.000  0.00  0.00    +0.000 C 
ENDBRANCH  22  26
ENDBRANCH  19  22
ENDBRANCH  17  20
ENDBRANCH  15  17
ENDBRANCH   1  15
TORSDOF 7
