REMARK  Name = 
REMARK  5 active torsions:
REMARK  status: ('A' for Active; 'I' for Inactive)
REMARK    1  A    between atoms: C_5  and  C_22
REMARK    2  A    between atoms: C_10  and  C_11
REMARK    3  A    between atoms: C_11  and  C_12
REMARK    4  A    between atoms: C_12  and  C_13
REMARK    5  A    between atoms: C_13  and  N_14
REMARK                            x       y       z     vdW  Elec       q    Type
REMARK                         _______ _______ _______ _____ _____    ______ ____
ROOT
ATOM      1  O   UNL     1       5.496  -3.998   0.000  0.00  0.00    +0.000 OA
ATOM      2  N   UNL     1       5.496  -4.823   0.000  0.00  0.00    +0.000 NA
ATOM      3  C   UNL     1       4.781  -5.235   0.000  0.00  0.00    +0.000 A 
ATOM      4  C   UNL     1       4.067  -4.823   0.000  0.00  0.00    +0.000 A 
ATOM      5  C   UNL     1       3.352  -5.235   0.000  0.00  0.00    +0.000 A 
ATOM      6  O   UNL     1       3.352  -6.060   0.000  0.00  0.00    +0.000 OA
ATOM      7  C   UNL     1       4.067  -6.473   0.000  0.00  0.00    +0.000 A 
ATOM      8  C   UNL     1       4.781  -6.060   0.000  0.00  0.00    +0.000 A 
ATOM      9  C   UNL     1       5.496  -6.473   0.000  0.00  0.00    +0.000 A 
ATOM     10  C   UNL     1       5.496  -7.298   0.000  0.00  0.00    +0.000 A 
ATOM     11  C   UNL     1       4.781  -7.710   0.000  0.00  0.00    +0.000 A 
ATOM     12  C   UNL     1       4.067  -7.298   0.000  0.00  0.00    +0.000 A 
ENDROOT
BRANCH   5  13
ATOM     13  C   UNL     1       2.638  -4.823   0.000  0.00  0.00    +0.000 A 
ATOM     14  C   UNL     1       1.923  -5.235   0.000  0.00  0.00    +0.000 A 
ATOM     15  C   UNL     1       1.209  -4.823   0.000  0.00  0.00    +0.000 A 
ATOM     16  C   UNL     1       1.209  -3.998   0.000  0.00  0.00    +0.000 A 
ATOM     17  C   UNL     1       0.424  -3.743   0.000  0.00  0.00    +0.000 A 
ATOM     18  C   UNL     1      -0.061  -4.410   0.000  0.00  0.00    +0.000 A 
ATOM     19  S   UNL     1       0.424  -5.078   0.000  0.00  0.00    +0.000 S 
ATOM     20  C   UNL     1       1.923  -3.585   0.000  0.00  0.00    +0.000 A 
ATOM     21  N   UNL     1       2.638  -3.998   0.000  0.00  0.00    +0.000 NA
ENDBRANCH   5  13
BRANCH  10  22
ATOM     22  C   UNL     1       6.210  -7.710   0.000  0.00  0.00    +0.000 C 
BRANCH  22  23
ATOM     23  C   UNL     1       6.210  -8.535   0.000  0.00  0.00    +0.000 C 
BRANCH  23  24
ATOM     24  C   UNL     1       6.925  -8.948   0.000  0.00  0.00    +0.000 C 
BRANCH  24  25
ATOM     25  N   UNL     1       6.925  -9.773   0.000  0.00  0.00    +0.000 NA
ATOM     26  C   UNL     1       7.639 -10.185   0.000  0.00  0.00    +0.000 C 
ATOM     27  C   UNL     1       7.639 -11.010   0.000  0.00  0.00    +0.000 C 
ATOM     28  O   UNL     1       6.925 -11.423   0.000  0.00  0.00    +0.000 OA
ATOM     29  C   UNL     1       6.210 -11.010   0.000  0.00  0.00    +0.000 C 
ATOM     30  C   UNL     1       6.210 -10.185   0.000  0.00  0.00    +0.000 C 
ENDBRANCH  24  25
ENDBRANCH  23  24
ENDBRANCH  22  23
ENDBRANCH  10  22
TORSDOF 5
