REMARK  Name = 
REMARK  8 active torsions:
REMARK  status: ('A' for Active; 'I' for Inactive)
REMARK    1  A    between atoms: C_2  and  C_3
REMARK    2  A    between atoms: C_2  and  CA_12
REMARK    3  A    between atoms: C_3  and  C_4
REMARK    4  A    between atoms: CA_12  and  C_13
REMARK    5  A    between atoms: N_15  and  CA_16
REMARK    6  A    between atoms: CA_16  and  C_17
REMARK    7  A    between atoms: CA_16  and  C_32
REMARK    8  A    between atoms: C_20  and  N_22
REMARK                            x       y       z     vdW  Elec       q    Type
REMARK                         _______ _______ _______ _____ _____    ______ ____
ROOT
ATOM      1  CA  UNL     1       5.086  -5.991   0.000  0.00  0.00    +0.000 C 
ENDROOT
BRANCH   1   2
ATOM      2  C   UNL     1       5.626  -5.367   0.000  0.00  0.00    +0.000 C 
ATOM      3  C   UNL     1       5.439  -4.564   0.000  0.00  0.00    +0.000 C 
ATOM      4  C   UNL     1       6.145  -4.138   0.000  0.00  0.00    +0.000 C 
ATOM      5  C   UNL     1       6.769  -4.678   0.000  0.00  0.00    +0.000 C 
ATOM      6  O   UNL     1       6.448  -5.438   0.000  0.00  0.00    +0.000 OA
ATOM      7  O   UNL     1       6.215  -3.316   0.000  0.00  0.00    +0.000 OA
ATOM      8  O   UNL     1       4.679  -4.243   0.000  0.00  0.00    +0.000 OA
BRANCH   5   9
ATOM      9  N   UNL     1       7.572  -4.490   0.000  0.00  0.00    +0.000 N 
ATOM     10  C   UNL     1       7.812  -3.701   0.000  0.00  0.00    +0.000 A 
ATOM     11  C   UNL     1       8.615  -3.514   0.000  0.00  0.00    +0.000 A 
ATOM     12  C   UNL     1       9.179  -4.116   0.000  0.00  0.00    +0.000 A 
ATOM     13  O   UNL     1       9.983  -3.929   0.000  0.00  0.00    +0.000 OA
ATOM     14  N   UNL     1       8.940  -4.906   0.000  0.00  0.00    +0.000 NA
ATOM     15  C   UNL     1       8.136  -5.093   0.000  0.00  0.00    +0.000 A 
ATOM     16  O   UNL     1       7.896  -5.882   0.000  0.00  0.00    +0.000 OA
ENDBRANCH   5   9
ENDBRANCH   1   2
BRANCH   1  17
ATOM     17  C   UNL     1       5.356  -6.770   0.000  0.00  0.00    +0.000 C 
ATOM     18  O   UNL     1       6.166  -6.926   0.000  0.00  0.00    +0.000 OA
ATOM     19  OXT UNL     1       4.816  -7.394   0.000  0.00  0.00    +0.000 OA
ENDBRANCH   1  17
BRANCH   1  22
ATOM     20  C   UNL     1       3.735  -6.459   0.000  0.00  0.00    +0.000 C 
ATOM     21  O   UNL     1       4.005  -7.238   0.000  0.00  0.00    +0.000 OA
ATOM     22  N   UNL     1       4.276  -5.835   0.000  0.00  0.00    +0.000 NA
BRANCH  20  23
ATOM     23  CA  UNL     1       2.925  -6.303   0.000  0.00  0.00    +0.000 C 
ATOM     24  N   UNL     1       2.655  -5.523   0.000  0.00  0.00    +0.000 NA
BRANCH  23  26
ATOM     25  C   UNL     1       2.655  -7.706   0.000  0.00  0.00    +0.000 C 
ATOM     26  C   UNL     1       2.385  -6.926   0.000  0.00  0.00    +0.000 C 
BRANCH  26  27
ATOM     27  C   UNL     1       1.575  -6.770   0.000  0.00  0.00    +0.000 C 
ATOM     28  O   UNL     1       1.305  -5.991   0.000  0.00  0.00    +0.000 OA
BRANCH  27  29
ATOM     29  C   UNL     1       1.035  -7.394   0.000  0.00  0.00    +0.000 A 
ATOM     30  C   UNL     1       1.305  -8.174   0.000  0.00  0.00    +0.000 A 
ATOM     31  C   UNL     1       0.765  -8.797   0.000  0.00  0.00    +0.000 A 
ATOM     32  C   UNL     1      -0.045  -8.641   0.000  0.00  0.00    +0.000 A 
ATOM     33  C   UNL     1      -0.315  -7.862   0.000  0.00  0.00    +0.000 A 
ATOM     34  N   UNL     1       0.225  -7.238   0.000  0.00  0.00    +0.000 NA
ATOM     35  O   UNL     1      -0.585  -9.265   0.000  0.00  0.00    +0.000 OA
ENDBRANCH  27  29
ENDBRANCH  26  27
ENDBRANCH  23  26
ENDBRANCH  20  23
ENDBRANCH   1  22
TORSDOF 8
