REMARK  Name = 
REMARK  25 active torsions:
REMARK  status: ('A' for Active; 'I' for Inactive)
REMARK    1  A    between atoms: C_1  and  C_2
REMARK    2  A    between atoms: C_1  and  C_3
REMARK    3  A    between atoms: C_2  and  N_13
REMARK    4  A    between atoms: C_3  and  C_5
REMARK    5  A    between atoms: C_5  and  C_6
REMARK    6  A    between atoms: C_5  and  N_7
REMARK    7  A    between atoms: C_6  and  O_8
REMARK    8  A    between atoms: O_8  and  C_9
REMARK    9  A    between atoms: C_9  and  C_25
REMARK   10  A    between atoms: C_14  and  C_15
REMARK   11  A    between atoms: C_18  and  C_19
REMARK   12  A    between atoms: C_19  and  C_21
REMARK   13  A    between atoms: C_24  and  C_25
REMARK   14  A    between atoms: C_26  and  C_27
REMARK   15  A    between atoms: N_29  and  C_31
REMARK   16  A    between atoms: C_31  and  C_35
REMARK   17  A    between atoms: CA_33  and  C_34
REMARK   18  A    between atoms: C_34  and  C_35
REMARK   19  A    between atoms: CA_37  and  C_47
REMARK   20  A    between atoms: C_42  and  C_43
REMARK   21  A    between atoms: N_45  and  C_49
REMARK   22  A    between atoms: C_47  and  C_48
REMARK   23  A    between atoms: C_48  and  C_49
REMARK   24  A    between atoms: C_50  and  C_51
REMARK   25  A    between atoms: C_51  and  C_53
REMARK                            x       y       z     vdW  Elec       q    Type
REMARK                         _______ _______ _______ _____ _____    ______ ____
ROOT
ATOM      1  C   UNL     1      -1.940  -0.136   0.000  0.00  0.00    +0.000 C 
ATOM      2  O   UNL     1      -1.456   0.532   0.000  0.00  0.00    +0.000 OA
ATOM      3  N   UNL     1      -1.456  -0.803   0.000  0.00  0.00    +0.000 N 
ATOM      4  O   UNL     1      -0.671  -0.548   0.000  0.00  0.00    +0.000 OA
ENDROOT
BRANCH   1   7
ATOM      5  C   UNL     1      -2.253   1.438   0.000  0.00  0.00    +0.000 C 
ATOM      6  C   UNL     1      -2.881   0.903   0.000  0.00  0.00    +0.000 C 
ATOM      7  C   UNL     1      -2.732   0.092   0.000  0.00  0.00    +0.000 C 
BRANCH   6   8
ATOM      8  C   UNL     1      -3.807   1.230   0.000  0.00  0.00    +0.000 C 
BRANCH   8   9
ATOM      9  C   UNL     1      -3.178   2.008   0.000  0.00  0.00    +0.000 C 
BRANCH   9  10
ATOM     10  O   UNL     1      -3.178   2.833   0.000  0.00  0.00    +0.000 OA
BRANCH  10  12
ATOM     11  O   UNL     1      -1.746   2.843   0.000  0.00  0.00    +0.000 OA
ATOM     12  C   UNL     1      -2.461   3.255   0.000  0.00  0.00    +0.000 C 
BRANCH  12  13
ATOM     13  C   UNL     1      -2.461   4.080   0.000  0.00  0.00    +0.000 C 
BRANCH  13  14
ATOM     14  N   UNL     1      -3.178   4.483   0.000  0.00  0.00    +0.000 NA
ATOM     15  C   UNL     1      -3.893   4.065   0.000  0.00  0.00    +0.000 C 
ATOM     16  C   UNL     1      -4.610   4.474   0.000  0.00  0.00    +0.000 C 
ATOM     17  O   UNL     1      -3.890   3.240   0.000  0.00  0.00    +0.000 OA
ENDBRANCH  13  14
BRANCH  13  18
ATOM     18  C   UNL     1      -1.746   4.492   0.000  0.00  0.00    +0.000 C 
BRANCH  18  19
ATOM     19  C   UNL     1      -1.032   4.080   0.000  0.00  0.00    +0.000 C 
BRANCH  19  20
ATOM     20  C   UNL     1      -1.032   3.255   0.000  0.00  0.00    +0.000 C 
BRANCH  20  21
ATOM     21  N   UNL     1      -0.315   2.833   0.000  0.00  0.00    +0.000 N 
ATOM     22  C   UNL     1       0.510   2.833   0.000  0.00  0.00    +0.000 C 
ATOM     23  O   UNL     1       0.764   2.048   0.000  0.00  0.00    +0.000 OA
ATOM     24  O   UNL     1      -0.570   2.048   0.000  0.00  0.00    +0.000 OA
BRANCH  22  25
ATOM     25  C   UNL     1       1.225   3.250   0.000  0.00  0.00    +0.000 C 
ATOM     26  C   UNL     1       1.941   2.843   0.000  0.00  0.00    +0.000 C 
ATOM     27  C   UNL     1       1.946   2.018   0.000  0.00  0.00    +0.000 C 
BRANCH  26  28
ATOM     28  C   UNL     1       2.653   3.259   0.000  0.00  0.00    +0.000 C 
BRANCH  28  29
ATOM     29  C   UNL     1       3.370   2.851   0.000  0.00  0.00    +0.000 C 
ATOM     30  O   UNL     1       4.082   3.268   0.000  0.00  0.00    +0.000 OA
ENDBRANCH  28  29
ENDBRANCH  26  28
ENDBRANCH  22  25
ENDBRANCH  20  21
ENDBRANCH  19  20
ENDBRANCH  18  19
ENDBRANCH  13  18
ENDBRANCH  12  13
ENDBRANCH  10  12
ENDBRANCH   9  10
ENDBRANCH   8   9
ENDBRANCH   6   8
ENDBRANCH   1   7
BRANCH   3  31
ATOM     31  C   UNL     1      -1.458  -1.630   0.000  0.00  0.00    +0.000 C 
BRANCH  31  32
ATOM     32  C   UNL     1      -2.020  -2.344   0.000  0.00  0.00    +0.000 C 
BRANCH  32  33
ATOM     33  C   UNL     1      -1.607  -3.059   0.000  0.00  0.00    +0.000 C 
BRANCH  33  35
ATOM     34  N   UNL     1      -0.370  -2.344   0.000  0.00  0.00    +0.000 NA
ATOM     35  CA  UNL     1      -0.782  -3.059   0.000  0.00  0.00    +0.000 C 
ATOM     36  C   UNL     1       0.455  -2.345   0.000  0.00  0.00    +0.000 C 
ATOM     37  CA  UNL     1       0.867  -3.059   0.000  0.00  0.00    +0.000 C 
ATOM     38  C   UNL     1      -0.370  -3.773   0.000  0.00  0.00    +0.000 C 
ATOM     39  N   UNL     1       0.455  -3.773   0.000  0.00  0.00    +0.000 NA
ATOM     40  O   UNL     1       0.858  -1.630   0.000  0.00  0.00    +0.000 OA
ATOM     41  O   UNL     1      -0.782  -4.492   0.000  0.00  0.00    +0.000 OA
BRANCH  37  42
ATOM     42  C   UNL     1       1.692  -3.059   0.000  0.00  0.00    +0.000 C 
BRANCH  42  43
ATOM     43  C   UNL     1       2.105  -2.345   0.000  0.00  0.00    +0.000 C 
BRANCH  43  44
ATOM     44  C   UNL     1       1.643  -1.630   0.000  0.00  0.00    +0.000 C 
BRANCH  44  47
ATOM     45  C   UNL     1       2.135  -0.136   0.000  0.00  0.00    +0.000 C 
ATOM     46  O   UNL     1       1.650   0.532   0.000  0.00  0.00    +0.000 OA
ATOM     47  N   UNL     1       1.650  -0.803   0.000  0.00  0.00    +0.000 N 
ATOM     48  O   UNL     1       0.865  -0.548   0.000  0.00  0.00    +0.000 OA
BRANCH  45  49
ATOM     49  C   UNL     1       2.960  -0.135   0.000  0.00  0.00    +0.000 C 
ATOM     50  C   UNL     1       3.372  -0.850   0.000  0.00  0.00    +0.000 C 
ATOM     51  C   UNL     1       2.960  -1.564   0.000  0.00  0.00    +0.000 C 
BRANCH  50  52
ATOM     52  C   UNL     1       4.197  -0.850   0.000  0.00  0.00    +0.000 C 
BRANCH  52  53
ATOM     53  C   UNL     1       4.610  -1.564   0.000  0.00  0.00    +0.000 C 
ATOM     54  O   UNL     1       4.197  -2.279   0.000  0.00  0.00    +0.000 OA
ENDBRANCH  52  53
ENDBRANCH  50  52
ENDBRANCH  45  49
ENDBRANCH  44  47
ENDBRANCH  43  44
ENDBRANCH  42  43
ENDBRANCH  37  42
ENDBRANCH  33  35
ENDBRANCH  32  33
ENDBRANCH  31  32
ENDBRANCH   3  31
TORSDOF 25
REMARK  Name = 
REMARK  25 active torsions:
REMARK  status: ('A' for Active; 'I' for Inactive)
REMARK    1  A    between atoms: C_1  and  C_2
REMARK    2  A    between atoms: C_1  and  C_3
REMARK    3  A    between atoms: C_2  and  N_13
REMARK    4  A    between atoms: C_3  and  C_5
REMARK    5  A    between atoms: C_5  and  C_6
REMARK    6  A    between atoms: C_5  and  N_7
REMARK    7  A    between atoms: C_6  and  O_8
REMARK    8  A    between atoms: O_8  and  C_9
REMARK    9  A    between atoms: C_9  and  C_25
REMARK   10  A    between atoms: C_14  and  C_15
REMARK   11  A    between atoms: C_18  and  C_19
REMARK   12  A    between atoms: C_19  and  C_21
REMARK   13  A    between atoms: C_24  and  C_25
REMARK   14  A    between atoms: C_26  and  C_27
REMARK   15  A    between atoms: N_29  and  C_31
REMARK   16  A    between atoms: C_31  and  C_35
REMARK   17  A    between atoms: CA_33  and  C_34
REMARK   18  A    between atoms: C_34  and  C_35
REMARK   19  A    between atoms: CA_37  and  C_47
REMARK   20  A    between atoms: C_42  and  C_43
REMARK   21  A    between atoms: N_45  and  C_49
REMARK   22  A    between atoms: C_47  and  C_48
REMARK   23  A    between atoms: C_48  and  C_49
REMARK   24  A    between atoms: C_50  and  C_51
REMARK   25  A    between atoms: C_51  and  C_53
REMARK                            x       y       z     vdW  Elec       q    Type
REMARK                         _______ _______ _______ _____ _____    ______ ____
ROOT
ATOM      1 FE   UNL     1      -0.027   0.934   0.000  0.00  0.00    +0.000 Fe
ENDROOT
TORSDOF 0
