REMARK  Name = 
REMARK  1 active torsions:
REMARK  status: ('A' for Active; 'I' for Inactive)
REMARK    1  A    between atoms: C_7  and  C_8
REMARK                            x       y       z     vdW  Elec       q    Type
REMARK                         _______ _______ _______ _____ _____    ______ ____
ROOT
ATOM      1  C   UNL     1      -1.102  -0.546   0.000  0.00  0.00    +0.000 C 
ATOM      2  C   UNL     1       1.035   0.692   0.000  0.00  0.00    +0.000 C 
ATOM      3  C   UNL     1       1.035  -0.133   0.000  0.00  0.00    +0.000 C 
ATOM      4  C   UNL     1      -0.390  -0.129   0.000  0.00  0.00    +0.000 C 
ATOM      5  C   UNL     1      -1.098  -1.371   0.000  0.00  0.00    +0.000 C 
ATOM      6  C   UNL     1       0.323  -0.533   0.000  0.00  0.00    +0.000 C 
ATOM      7  C   UNL     1       1.815   0.954   0.000  0.00  0.00    +0.000 C 
ATOM      8  C   UNL     1       0.323   1.104   0.000  0.00  0.00    +0.000 C 
ATOM      9  C   UNL     1      -0.398   0.692   0.000  0.00  0.00    +0.000 C 
ATOM     10  C   UNL     1      -1.815  -0.121   0.000  0.00  0.00    +0.000 C 
ATOM     11  C   UNL     1       0.327  -1.367   0.000  0.00  0.00    +0.000 C 
ATOM     12  C   UNL     1       1.823  -0.383   0.000  0.00  0.00    +0.000 C 
ATOM     13  C   UNL     1      -1.815  -1.771   0.000  0.00  0.00    +0.000 C 
ATOM     14  C   UNL     1      -0.390  -1.779   0.000  0.00  0.00    +0.000 C 
ATOM     15  C   UNL     1       2.302   0.283   0.000  0.00  0.00    +0.000 C 
ATOM     16  C   UNL     1      -2.523  -1.371   0.000  0.00  0.00    +0.000 C 
ATOM     17  O   UNL     1      -3.240  -1.783   0.000  0.00  0.00    +0.000 OA
ATOM     18  C   UNL     1      -2.523  -0.546   0.000  0.00  0.00    +0.000 C 
ATOM     19  O   UNL     1       1.602   1.754   0.000  0.00  0.00    +0.000 OA
ATOM     20  C   UNL     1       1.027   1.517   0.000  0.00  0.00    +0.000 C 
ENDROOT
BRANCH   7  21
ATOM     21  C   UNL     1       2.527   1.367   0.000  0.00  0.00    +0.000 C 
ATOM     22  C   UNL     1       3.240   1.783   0.000  0.00  0.00    +0.000 C 
ENDBRANCH   7  21
TORSDOF 1
