REMARK  Name = 
REMARK  7 active torsions:
REMARK  status: ('A' for Active; 'I' for Inactive)
REMARK    1  A    between atoms: C_2  and  O_3
REMARK    2  A    between atoms: O_3  and  C_4
REMARK    3  A    between atoms: N_9  and  N_12
REMARK    4  A    between atoms: N_14  and  O_15
REMARK    5  A    between atoms: O_15  and  C_16
REMARK    6  A    between atoms: C_19  and  N_25
REMARK    7  A    between atoms: C_21  and  N_22
REMARK                            x       y       z     vdW  Elec       q    Type
REMARK                         _______ _______ _______ _____ _____    ______ ____
ROOT
ATOM      1  N   UNL     1       2.858  -4.950   0.000  0.00  0.00    +0.000 N 
ATOM      2  O   UNL     1       3.572  -5.362   0.000  0.00  0.00    +0.000 OA
ATOM      3  N   UNL     1       2.143  -5.362   0.000  0.00  0.00    +0.000 NA
ENDROOT
BRANCH   1   9
ATOM      4  C   UNL     1       2.858  -1.650   0.000  0.00  0.00    +0.000 C 
ATOM      5  O   UNL     1       2.143  -1.238   0.000  0.00  0.00    +0.000 OA
ATOM      6  N   UNL     1       2.858  -2.475   0.000  0.00  0.00    +0.000 N 
ATOM      7  C   UNL     1       3.572  -2.888   0.000  0.00  0.00    +0.000 C 
ATOM      8  C   UNL     1       3.572  -3.712   0.000  0.00  0.00    +0.000 C 
ATOM      9  N   UNL     1       2.858  -4.125   0.000  0.00  0.00    +0.000 N 
ATOM     10  C   UNL     1       2.143  -3.712   0.000  0.00  0.00    +0.000 C 
ATOM     11  C   UNL     1       2.143  -2.888   0.000  0.00  0.00    +0.000 C 
BRANCH   4  12
ATOM     12  O   UNL     1       3.572  -1.238   0.000  0.00  0.00    +0.000 OA
BRANCH  12  14
ATOM     13  C   UNL     1       5.001  -1.238   0.000  0.00  0.00    +0.000 C 
ATOM     14  C   UNL     1       4.287  -1.650   0.000  0.00  0.00    +0.000 C 
ENDBRANCH  12  14
ENDBRANCH   4  12
ENDBRANCH   1   9
BRANCH   3  15
ATOM     15  O   UNL     1       2.143  -6.188   0.000  0.00  0.00    +0.000 OA
BRANCH  15  16
ATOM     16  C   UNL     1       1.429  -6.600   0.000  0.00  0.00    +0.000 A 
ATOM     17  C   UNL     1       1.429  -7.425   0.000  0.00  0.00    +0.000 A 
ATOM     18  C   UNL     1       0.715  -7.838   0.000  0.00  0.00    +0.000 A 
ATOM     19  C   UNL     1       0.000  -7.425   0.000  0.00  0.00    +0.000 A 
ATOM     20  C   UNL     1       0.000  -6.600   0.000  0.00  0.00    +0.000 A 
ATOM     21  C   UNL     1       0.715  -6.188   0.000  0.00  0.00    +0.000 A 
BRANCH  19  22
ATOM     22  N   UNL     1      -0.715  -7.838   0.000  0.00  0.00    +0.000 N 
ATOM     23  O   UNL     1      -0.715  -8.662   0.000  0.00  0.00    +0.000 OA
ATOM     24  O   UNL     1      -1.429  -7.425   0.000  0.00  0.00    +0.000 OA
ENDBRANCH  19  22
BRANCH  21  25
ATOM     25  N   UNL     1       0.715  -5.362   0.000  0.00  0.00    +0.000 N 
ATOM     26  O   UNL     1       1.429  -4.950   0.000  0.00  0.00    +0.000 OA
ATOM     27  O   UNL     1       0.000  -4.950   0.000  0.00  0.00    +0.000 OA
ENDBRANCH  21  25
ENDBRANCH  15  16
ENDBRANCH   3  15
TORSDOF 7
