REMARK  Name = 
REMARK  2 active torsions:
REMARK  status: ('A' for Active; 'I' for Inactive)
REMARK    1  A    between atoms: C_2  and  C_3
REMARK    2  A    between atoms: C_3  and  C_5
REMARK                            x       y       z     vdW  Elec       q    Type
REMARK                         _______ _______ _______ _____ _____    ______ ____
ROOT
ATOM      1  C   UNL     1       3.352   1.935   0.000  0.00  0.00    +0.000 A 
ATOM      2  C   UNL     1       3.352   1.110   0.000  0.00  0.00    +0.000 A 
ATOM      3  C   UNL     1       2.638   0.698   0.000  0.00  0.00    +0.000 A 
ATOM      4  C   UNL     1       1.923   1.110   0.000  0.00  0.00    +0.000 A 
ATOM      5  C   UNL     1       1.923   1.935   0.000  0.00  0.00    +0.000 A 
ATOM      6  C   UNL     1       2.638   2.348   0.000  0.00  0.00    +0.000 A 
ATOM      7  O   UNL     1       1.139   2.190   0.000  0.00  0.00    +0.000 OA
ATOM      8  C   UNL     1       0.654   1.523   0.000  0.00  0.00    +0.000 C 
ATOM      9  O   UNL     1       1.139   0.856   0.000  0.00  0.00    +0.000 OA
ENDROOT
BRANCH   1  10
ATOM     10  C   UNL     1       4.067   2.348   0.000  0.00  0.00    +0.000 C 
ATOM     11  O   UNL     1       4.067   3.173   0.000  0.00  0.00    +0.000 OA
BRANCH  10  13
ATOM     12  C   UNL     1       5.496   2.348   0.000  0.00  0.00    +0.000 C 
ATOM     13  C   UNL     1       4.781   1.935   0.000  0.00  0.00    +0.000 C 
ATOM     14  N   UNL     1       4.781   1.110   0.000  0.00  0.00    +0.000 NA
ENDBRANCH  10  13
ENDBRANCH   1  10
TORSDOF 2
