REMARK  Name = 
REMARK  6 active torsions:
REMARK  status: ('A' for Active; 'I' for Inactive)
REMARK    1  A    between atoms: C_11  and  C_12
REMARK    2  A    between atoms: C_11  and  N_19
REMARK    3  A    between atoms: C_12  and  N_20
REMARK    4  A    between atoms: C_13  and  C_14
REMARK    5  A    between atoms: C_13  and  N_20
REMARK    6  A    between atoms: C_15  and  O_21
REMARK                            x       y       z     vdW  Elec       q    Type
REMARK                         _______ _______ _______ _____ _____    ______ ____
ROOT
ATOM      1  C   UNL     1       0.000  -1.650   0.000  0.00  0.00    +0.000 A 
ATOM      2  C   UNL     1       0.715  -1.237   0.000  0.00  0.00    +0.000 A 
ATOM      3  C   UNL     1      -0.715  -1.237   0.000  0.00  0.00    +0.000 A 
ATOM      4  C   UNL     1       0.000   0.000   0.000  0.00  0.00    +0.000 A 
ATOM      5  N   UNL     1       0.715  -0.412   0.000  0.00  0.00    +0.000 NA
ATOM      6  N   UNL     1      -0.715  -0.412   0.000  0.00  0.00    +0.000 NA
ATOM      7  N   UNL     1       0.000   0.825   0.000  0.00  0.00    +0.000 N 
ENDROOT
BRANCH   7   8
ATOM      8  C   UNL     1       0.715   1.237   0.000  0.00  0.00    +0.000 C 
BRANCH   8   9
ATOM      9  C   UNL     1       1.429   0.825   0.000  0.00  0.00    +0.000 C 
BRANCH   9  12
ATOM     10  C   UNL     1       2.858   0.825   0.000  0.00  0.00    +0.000 C 
ATOM     11  C   UNL     1       2.143   2.062   0.000  0.00  0.00    +0.000 C 
ATOM     12  N   UNL     1       2.143   1.237   0.000  0.00  0.00    +0.000 NA
ENDBRANCH   9  12
ENDBRANCH   8   9
ENDBRANCH   7   8
BRANCH   7  13
ATOM     13  C   UNL     1      -0.715   1.237   0.000  0.00  0.00    +0.000 C 
BRANCH  13  18
ATOM     14  C   UNL     1      -2.143   1.237   0.000  0.00  0.00    +0.000 A 
ATOM     15  C   UNL     1      -1.429   0.000   0.000  0.00  0.00    +0.000 A 
ATOM     16  C   UNL     1      -2.858   0.825   0.000  0.00  0.00    +0.000 A 
ATOM     17  C   UNL     1      -2.143  -0.412   0.000  0.00  0.00    +0.000 A 
ATOM     18  C   UNL     1      -1.429   0.825   0.000  0.00  0.00    +0.000 A 
ATOM     19  C   UNL     1      -2.858   0.000   0.000  0.00  0.00    +0.000 A 
BRANCH  19  21
ATOM     20  C   UNL     1      -3.572  -1.237   0.000  0.00  0.00    +0.000 C 
ATOM     21  O   UNL     1      -3.572  -0.412   0.000  0.00  0.00    +0.000 OA
ENDBRANCH  19  21
ENDBRANCH  13  18
ENDBRANCH   7  13
TORSDOF 6
