REMARK  Name = 
REMARK  0 active torsions:
REMARK  status: ('A' for Active; 'I' for Inactive)
REMARK                            x       y       z     vdW  Elec       q    Type
REMARK                         _______ _______ _______ _____ _____    ______ ____
ROOT
ATOM      1  N   UNL     1       0.830  -0.286   0.000  0.00  0.00    +0.000 NA
ATOM      2  N   UNL     1      -0.665   1.203   0.000  0.00  0.00    +0.000 NA
ATOM      3  N   UNL     1      -1.380  -0.035   0.000  0.00  0.00    +0.000 NA
ATOM      4  N   UNL     1      -0.665  -1.272   0.000  0.00  0.00    +0.000 NA
ATOM      5  C   UNL     1       0.049  -0.035   0.000  0.00  0.00    +0.000 A 
ATOM      6  C   UNL     1       0.049   0.790   0.000  0.00  0.00    +0.000 A 
ATOM      7  C   UNL     1      -0.665  -0.447   0.000  0.00  0.00    +0.000 A 
ATOM      8  C   UNL     1       0.830   1.042   0.000  0.00  0.00    +0.000 A 
ATOM      9  C   UNL     1       1.311   0.378   0.000  0.00  0.00    +0.000 A 
ATOM     10  C   UNL     1      -1.380   0.790   0.000  0.00  0.00    +0.000 A 
ENDROOT
TORSDOF 0
