REMARK  Name = 
REMARK  8 active torsions:
REMARK  status: ('A' for Active; 'I' for Inactive)
REMARK    1  A    between atoms: C_3  and  C_5
REMARK    2  A    between atoms: C_5  and  C_6
REMARK    3  A    between atoms: C_6  and  C_8
REMARK    4  A    between atoms: N_10  and  C_11
REMARK    5  A    between atoms: C_11  and  C_12
REMARK    6  A    between atoms: C_11  and  C_28
REMARK    7  A    between atoms: N_14  and  C_15
REMARK    8  A    between atoms: C_21  and  C_25
REMARK                            x       y       z     vdW  Elec       q    Type
REMARK                         _______ _______ _______ _____ _____    ______ ____
ROOT
ATOM      1  C   UNK A   2      -0.125  -0.417   0.000  0.00  0.00    +0.000 C 
ENDROOT
BRANCH   1   2
ATOM      2  C   UNK A   2      -0.125   0.408   0.000  0.00  0.00    +0.000 A 
ATOM      3  C   UNK A   2      -0.839   0.821   0.000  0.00  0.00    +0.000 A 
ATOM      4  C   UNK A   2      -0.839   1.645   0.000  0.00  0.00    +0.000 A 
ATOM      5  C   UNK A   2      -0.125   2.058   0.000  0.00  0.00    +0.000 A 
ATOM      6  O   UNK A   2      -0.125   2.883   0.000  0.00  0.00    +0.000 OA
ATOM      7  C   UNK A   2       0.590   1.645   0.000  0.00  0.00    +0.000 A 
ATOM      8  C   UNK A   2       0.590   0.821   0.000  0.00  0.00    +0.000 A 
ENDBRANCH   1   2
BRANCH   1  11
ATOM      9  C   UNK A   1      -1.554  -0.417   0.000  0.00  0.00    +0.000 C 
ATOM     10  O   UNK A   1      -1.554   0.408   0.000  0.00  0.00    +0.000 OA
ATOM     11  N   UNK A   2      -0.839  -0.829   0.000  0.00  0.00    +0.000 NA
BRANCH   9  12
ATOM     12  C   UNK A   1      -2.268  -0.829   0.000  0.00  0.00    +0.000 C 
ATOM     13  N   UNK A   1      -2.268  -1.654   0.000  0.00  0.00    +0.000 NA
BRANCH  12  14
ATOM     14  C   UNK A   1      -2.983  -0.417   0.000  0.00  0.00    +0.000 C 
BRANCH  14  17
ATOM     15  C   UNK A   1      -5.126  -0.829   0.000  0.00  0.00    +0.000 C 
ATOM     16  N   UNK A   1      -4.412  -0.417   0.000  0.00  0.00    +0.000 NA
ATOM     17  C   UNK A   1      -3.697  -0.829   0.000  0.00  0.00    +0.000 C 
ATOM     18  O   UNK A   1      -3.697  -1.654   0.000  0.00  0.00    +0.000 OA
ENDBRANCH  14  17
ENDBRANCH  12  14
ENDBRANCH   9  12
ENDBRANCH   1  11
BRANCH   1  19
ATOM     19  C   UNK A   2       0.590  -0.829   0.000  0.00  0.00    +0.000 C 
ATOM     20  O   UNK A   2       0.590  -1.654   0.000  0.00  0.00    +0.000 OA
ATOM     21  N   UNK A   3       1.304  -0.417   0.000  0.00  0.00    +0.000 NA
BRANCH  21  22
ATOM     22  C   UNK A   3       2.019  -0.829   0.000  0.00  0.00    +0.000 C 
ATOM     23  C   UNK A   3       2.816  -0.616   0.000  0.00  0.00    +0.000 C 
ATOM     24  S   UNK A   3       3.507  -0.167   0.000  0.00  0.00    +0.000 S 
ATOM     25  C   UNK A   3       4.149  -0.686   0.000  0.00  0.00    +0.000 C 
ATOM     26  C   UNK A   3       4.598   0.006   0.000  0.00  0.00    +0.000 C 
ATOM     27  C   UNK A   3       4.884  -1.060   0.000  0.00  0.00    +0.000 C 
ATOM     28  C   UNK A   3       3.853  -1.456   0.000  0.00  0.00    +0.000 C 
ATOM     29  N   UNK A   3       3.029  -1.413   0.000  0.00  0.00    +0.000 N 
ATOM     30  C   UNK A   3       2.232  -1.626   0.000  0.00  0.00    +0.000 C 
ATOM     31  O   UNK A   3       1.820  -2.341   0.000  0.00  0.00    +0.000 OA
BRANCH  28  32
ATOM     32  C   UNK A   3       4.302  -2.148   0.000  0.00  0.00    +0.000 C 
ATOM     33  O   ACE A   4       5.126  -2.105   0.000  0.00  0.00    +0.000 OA
ATOM     34  O   ACE A   4       3.928  -2.883   0.000  0.00  0.00    +0.000 OA
ENDBRANCH  28  32
ENDBRANCH  21  22
ENDBRANCH   1  19
TORSDOF 8
