REMARK  Name = 
REMARK  5 active torsions:
REMARK  status: ('A' for Active; 'I' for Inactive)
REMARK    1  A    between atoms: S_2  and  C_3
REMARK    2  A    between atoms: C_3  and  C_4
REMARK    3  A    between atoms: N_6  and  N_10
REMARK    4  A    between atoms: C_11  and  C_12
REMARK    5  A    between atoms: C_15  and  N_17
REMARK                            x       y       z     vdW  Elec       q    Type
REMARK                         _______ _______ _______ _____ _____    ______ ____
ROOT
ATOM      1  N   UNL     1       1.857  -4.340   0.000  0.00  0.00    +0.000 NA
ATOM      2  C   UNL     1       1.521  -5.094   0.000  0.00  0.00    +0.000 C 
ENDROOT
BRANCH   1   5
ATOM      3  C   UNL     1       0.959  -2.403   0.000  0.00  0.00    +0.000 C 
ATOM      4  C   UNL     1       1.627  -2.888   0.000  0.00  0.00    +0.000 C 
ATOM      5  N   UNL     1       1.372  -3.672   0.000  0.00  0.00    +0.000 N 
ATOM      6  C   UNL     1       0.547  -3.672   0.000  0.00  0.00    +0.000 C 
ATOM      7  O   UNL     1       0.062  -4.340   0.000  0.00  0.00    +0.000 OA
ATOM      8  O   UNL     1       0.292  -2.888   0.000  0.00  0.00    +0.000 OA
BRANCH   3   9
ATOM      9  C   UNL     1       0.959  -1.578   0.000  0.00  0.00    +0.000 C 
BRANCH   9  11
ATOM     10  C   UNL     1       0.245  -0.340   0.000  0.00  0.00    +0.000 C 
ATOM     11  S   UNL     1       0.245  -1.165   0.000  0.00  0.00    +0.000 S 
ENDBRANCH   9  11
ENDBRANCH   3   9
ENDBRANCH   1   5
BRANCH   2  12
ATOM     12  C   UNL     1       2.006  -5.761   0.000  0.00  0.00    +0.000 A 
ATOM     13  C   UNL     1       2.831  -5.761   0.000  0.00  0.00    +0.000 A 
ATOM     14  C   UNL     1       3.086  -6.546   0.000  0.00  0.00    +0.000 A 
ATOM     15  C   UNL     1       2.419  -7.031   0.000  0.00  0.00    +0.000 A 
ATOM     16  O   UNL     1       1.751  -6.546   0.000  0.00  0.00    +0.000 OA
BRANCH  15  17
ATOM     17  N   UNL     1       2.419  -7.856   0.000  0.00  0.00    +0.000 N 
ATOM     18  O   UNL     1       3.133  -8.268   0.000  0.00  0.00    +0.000 OA
ATOM     19  O   UNL     1       1.704  -8.268   0.000  0.00  0.00    +0.000 OA
ENDBRANCH  15  17
ENDBRANCH   2  12
TORSDOF 5
