REMARK  Name = 
REMARK  12 active torsions:
REMARK  status: ('A' for Active; 'I' for Inactive)
REMARK    1  A    between atoms: C_2  and  C_4
REMARK    2  A    between atoms: C_2  and  O_7
REMARK    3  A    between atoms: O_7  and  N_8
REMARK    4  A    between atoms: C_9  and  C_10
REMARK    5  A    between atoms: C_9  and  C_16
REMARK    6  A    between atoms: N_18  and  CA_19
REMARK    7  A    between atoms: CA_24  and  C_43
REMARK    8  A    between atoms: C_25  and  C_28
REMARK    9  A    between atoms: C_28  and  N_29
REMARK   10  A    between atoms: C_31  and  N_36
REMARK   11  A    between atoms: N_39  and  C_40
REMARK   12  A    between atoms: C_40  and  C_41
REMARK                            x       y       z     vdW  Elec       q    Type
REMARK                         _______ _______ _______ _____ _____    ______ ____
ROOT
ATOM      1  CA  UNL     1      -2.414   7.122   0.000  0.00  0.00    +0.000 C 
ATOM      2  C   UNL     1      -1.747   6.638   0.000  0.00  0.00    +0.000 C 
ATOM      3  N   UNL     1      -1.262   7.305   0.000  0.00  0.00    +0.000 N 
ATOM      4  C   UNL     1      -1.929   7.790   0.000  0.00  0.00    +0.000 C 
ATOM      5  O   UNL     1      -2.058   8.605   0.000  0.00  0.00    +0.000 OA
ATOM      6  CA  UNL     1      -0.442   7.219   0.000  0.00  0.00    +0.000 C 
ATOM      7  C   UNL     1      -0.106   6.465   0.000  0.00  0.00    +0.000 C 
ATOM      8  C   UNL     1      -0.591   5.798   0.000  0.00  0.00    +0.000 C 
ATOM      9  S   UNL     1      -1.411   5.884   0.000  0.00  0.00    +0.000 S 
ENDROOT
BRANCH   1  12
ATOM     10  C   UNL     1      -3.748   7.635   0.000  0.00  0.00    +0.000 C 
ATOM     11  O   UNL     1      -3.453   8.405   0.000  0.00  0.00    +0.000 OA
ATOM     12  N   UNL     1      -3.229   6.993   0.000  0.00  0.00    +0.000 NA
BRANCH  10  14
ATOM     13  N   UNL     1      -5.082   8.147   0.000  0.00  0.00    +0.000 NA
ATOM     14  C   UNL     1      -4.563   7.505   0.000  0.00  0.00    +0.000 C 
BRANCH  14  15
ATOM     15  C   UNL     1      -4.859   6.735   0.000  0.00  0.00    +0.000 A 
ATOM     16  N   UNL     1      -4.410   6.043   0.000  0.00  0.00    +0.000 NA
ATOM     17  C   UNL     1      -4.929   5.402   0.000  0.00  0.00    +0.000 A 
ATOM     18  S   UNL     1      -5.699   5.698   0.000  0.00  0.00    +0.000 S 
ATOM     19  N   UNL     1      -5.656   6.522   0.000  0.00  0.00    +0.000 NA
ATOM     20  N   UNL     1      -4.715   4.605   0.000  0.00  0.00    +0.000 NA
ENDBRANCH  14  15
BRANCH  13  21
ATOM     21  O   UNL     1      -4.787   8.917   0.000  0.00  0.00    +0.000 OA
BRANCH  21  23
ATOM     22  C   UNL     1      -5.947   9.039   0.000  0.00  0.00    +0.000 C 
ATOM     23  C   UNL     1      -5.306   9.558   0.000  0.00  0.00    +0.000 C 
ATOM     24  C   UNL     1      -4.665  10.077   0.000  0.00  0.00    +0.000 C 
BRANCH  23  25
ATOM     25  C   UNL     1      -5.825  10.199   0.000  0.00  0.00    +0.000 C 
ATOM     26  O   UNL     1      -5.529  10.969   0.000  0.00  0.00    +0.000 OA
ATOM     27  O   UNL     1      -6.640  10.070   0.000  0.00  0.00    +0.000 OA
ENDBRANCH  23  25
ENDBRANCH  21  23
ENDBRANCH  13  21
ENDBRANCH  10  14
ENDBRANCH   1  12
BRANCH   6  28
ATOM     28  C   UNL     1       0.043   7.886   0.000  0.00  0.00    +0.000 C 
ATOM     29  O   UNL     1       0.864   7.800   0.000  0.00  0.00    +0.000 OA
ATOM     30  OXT UNL     1      -0.292   8.640   0.000  0.00  0.00    +0.000 OA
ENDBRANCH   6  28
BRANCH   7  31
ATOM     31  C   UNL     1       0.714   6.379   0.000  0.00  0.00    +0.000 C 
BRANCH  31  32
ATOM     32  N   UNL     1       1.050   5.625   0.000  0.00  0.00    +0.000 N 
ATOM     33  C   UNL     1       1.857   5.454   0.000  0.00  0.00    +0.000 A 
ATOM     34  C   UNL     1       1.943   4.633   0.000  0.00  0.00    +0.000 A 
ATOM     35  C   UNL     1       1.190   4.298   0.000  0.00  0.00    +0.000 A 
ATOM     36  N   UNL     1       0.637   4.911   0.000  0.00  0.00    +0.000 N 
ATOM     37  C   UNL     1      -0.183   4.824   0.000  0.00  0.00    +0.000 C 
ATOM     38  N   UNL     1       1.018   3.491   0.000  0.00  0.00    +0.000 NA
BRANCH  34  39
ATOM     39  N   UNL     1       2.658   4.221   0.000  0.00  0.00    +0.000 NA
ATOM     40  C   UNL     1       3.372   4.633   0.000  0.00  0.00    +0.000 C 
ATOM     41  O   UNL     1       3.372   5.458   0.000  0.00  0.00    +0.000 OA
ATOM     42  N   UNL     1       4.087   4.221   0.000  0.00  0.00    +0.000 NA
BRANCH  42  43
ATOM     43  C   UNL     1       4.801   4.633   0.000  0.00  0.00    +0.000 C 
BRANCH  43  44
ATOM     44  C   UNL     1       5.516   4.221   0.000  0.00  0.00    +0.000 C 
ATOM     45  N   UNL     1       6.230   4.633   0.000  0.00  0.00    +0.000 NA
ENDBRANCH  43  44
ENDBRANCH  42  43
ENDBRANCH  34  39
ENDBRANCH  31  32
ENDBRANCH   7  31
TORSDOF 12
