REMARK  Name = 
REMARK  15 active torsions:
REMARK  status: ('A' for Active; 'I' for Inactive)
REMARK    1  A    between atoms: C_5  and  C_6
REMARK    2  A    between atoms: N_8  and  C_9
REMARK    3  A    between atoms: C_9  and  C_10
REMARK    4  A    between atoms: C_14  and  C_16
REMARK    5  A    between atoms: C_16  and  N_17
REMARK    6  A    between atoms: C_16  and  C_19
REMARK    7  A    between atoms: C_18  and  C_22
REMARK    8  A    between atoms: C_22  and  C_24
REMARK    9  A    between atoms: C_22  and  N_26
REMARK   10  A    between atoms: C_24  and  C_28
REMARK   11  A    between atoms: C_27  and  C_30
REMARK   12  A    between atoms: C_30  and  C_32
REMARK   13  A    between atoms: C_32  and  C_34
REMARK   14  A    between atoms: C_34  and  C_35
REMARK   15  A    between atoms: C_35  and  N_36
REMARK                            x       y       z     vdW  Elec       q    Type
REMARK                         _______ _______ _______ _____ _____    ______ ____
ROOT
ATOM      1  N   UNL     1      -1.429   0.737   0.000  0.00  0.00    +0.000 NA
ATOM      2  C   UNL     1      -2.143   1.149   0.000  0.00  0.00    +0.000 C 
ATOM      3  O   UNL     1      -2.858   0.737   0.000  0.00  0.00    +0.000 OA
ENDROOT
BRANCH   2   4
ATOM      4  C   UNL     1      -2.143   1.974   0.000  0.00  0.00    +0.000 C 
BRANCH   4   5
ATOM      5  N   UNL     1      -1.429   2.387   0.000  0.00  0.00    +0.000 NA
ATOM      6  C   UNL     1      -0.714   1.974   0.000  0.00  0.00    +0.000 C 
ATOM      7  O   UNL     1      -0.714   1.149   0.000  0.00  0.00    +0.000 OA
BRANCH   6   8
ATOM      8  C   UNL     1       0.000   2.387   0.000  0.00  0.00    +0.000 C 
ATOM      9  N   UNL     1       0.000   3.212   0.000  0.00  0.00    +0.000 NA
BRANCH   8  10
ATOM     10  C   UNL     1       0.714   1.974   0.000  0.00  0.00    +0.000 C 
BRANCH  10  11
ATOM     11  C   UNL     1       1.429   2.387   0.000  0.00  0.00    +0.000 C 
BRANCH  11  12
ATOM     12  C   UNL     1       2.143   1.974   0.000  0.00  0.00    +0.000 C 
BRANCH  12  13
ATOM     13  N   UNL     1       2.858   2.387   0.000  0.00  0.00    +0.000 NA
ATOM     14  C   UNL     1       3.572   1.974   0.000  0.00  0.00    +0.000 C 
ATOM     15  N   UNL     1       4.287   2.387   0.000  0.00  0.00    +0.000 NA
ATOM     16  N   UNL     1       3.572   1.149   0.000  0.00  0.00    +0.000 NA
ENDBRANCH  12  13
ENDBRANCH  11  12
ENDBRANCH  10  11
ENDBRANCH   8  10
ENDBRANCH   6   8
ENDBRANCH   4   5
BRANCH   4  17
ATOM     17  C   UNL     1      -2.858   2.387   0.000  0.00  0.00    +0.000 C 
ATOM     18  C   UNL     1      -2.858   3.212   0.000  0.00  0.00    +0.000 C 
BRANCH  17  19
ATOM     19  C   UNL     1      -3.572   1.974   0.000  0.00  0.00    +0.000 C 
ATOM     20  C   UNL     1      -4.287   2.387   0.000  0.00  0.00    +0.000 C 
ENDBRANCH  17  19
ENDBRANCH   4  17
ENDBRANCH   2   4
BRANCH   1  21
ATOM     21  C   UNL     1      -1.429  -0.088   0.000  0.00  0.00    +0.000 C 
BRANCH  21  27
ATOM     22  N   UNL     1      -0.714  -1.326   0.000  0.00  0.00    +0.000 N 
ATOM     23  C   UNL     1      -1.382  -1.811   0.000  0.00  0.00    +0.000 C 
ATOM     24  C   UNL     1      -1.127  -2.595   0.000  0.00  0.00    +0.000 C 
ATOM     25  C   UNL     1      -0.302  -2.595   0.000  0.00  0.00    +0.000 C 
ATOM     26  C   UNL     1      -0.047  -1.811   0.000  0.00  0.00    +0.000 C 
ATOM     27  C   UNL     1      -0.714  -0.501   0.000  0.00  0.00    +0.000 C 
ATOM     28  O   UNL     1       0.000  -0.088   0.000  0.00  0.00    +0.000 OA
BRANCH  26  29
ATOM     29  C   UNL     1       0.738  -1.556   0.000  0.00  0.00    +0.000 C 
ATOM     30  O   UNL     1       0.909  -0.749   0.000  0.00  0.00    +0.000 OA
ATOM     31  N   UNL     1       1.351  -2.108   0.000  0.00  0.00    +0.000 NA
BRANCH  31  32
ATOM     32  C   UNL     1       2.135  -1.853   0.000  0.00  0.00    +0.000 C 
ATOM     33  C   UNL     1       2.307  -1.046   0.000  0.00  0.00    +0.000 C 
BRANCH  32  34
ATOM     34  C   UNL     1       2.748  -2.405   0.000  0.00  0.00    +0.000 C 
ATOM     35  N   UNL     1       3.533  -2.150   0.000  0.00  0.00    +0.000 NA
ATOM     36  O   UNL     1       2.577  -3.212   0.000  0.00  0.00    +0.000 OA
ENDBRANCH  32  34
ENDBRANCH  31  32
ENDBRANCH  26  29
ENDBRANCH  21  27
BRANCH  21  37
ATOM     37  C   UNL     1      -2.143  -0.501   0.000  0.00  0.00    +0.000 C 
ATOM     38  C   UNL     1      -2.858  -0.088   0.000  0.00  0.00    +0.000 C 
ATOM     39  C   UNL     1      -2.143  -1.326   0.000  0.00  0.00    +0.000 C 
ENDBRANCH  21  37
ENDBRANCH   1  21
TORSDOF 15
