REMARK  Name = 
REMARK  9 active torsions:
REMARK  status: ('A' for Active; 'I' for Inactive)
REMARK    1  A    between atoms: C_3  and  S_32
REMARK    2  A    between atoms: C_6  and  C_7
REMARK    3  A    between atoms: C_7  and  C_16
REMARK    4  A    between atoms: C_9  and  C_10
REMARK    5  A    between atoms: C_22  and  S_24
REMARK    6  A    between atoms: S_24  and  C_25
REMARK    7  A    between atoms: C_25  and  C_26
REMARK    8  A    between atoms: C_26  and  N_27
REMARK    9  A    between atoms: S_32  and  C_35
REMARK                            x       y       z     vdW  Elec       q    Type
REMARK                         _______ _______ _______ _____ _____    ______ ____
ROOT
ATOM      1  C   UNL     1       0.715  -1.238   0.000  0.00  0.00    +0.000 C 
ATOM      2  C   UNL     1       1.127  -1.952   0.000  0.00  0.00    +0.000 C 
ATOM      3  C   UNL     1       0.302  -1.952   0.000  0.00  0.00    +0.000 C 
ENDROOT
BRANCH   1   4
ATOM      4  C   UNL     1       1.347  -0.707   0.000  0.00  0.00    +0.000 C 
ATOM      5  O   UNL     1       1.203   0.105   0.000  0.00  0.00    +0.000 OA
ATOM      6  N   UNL     1       2.122  -0.989   0.000  0.00  0.00    +0.000 NA
ATOM      7  C   UNL     1       2.265  -1.802   0.000  0.00  0.00    +0.000 A 
ATOM      8  N   UNL     1       3.006  -2.163   0.000  0.00  0.00    +0.000 NA
ATOM      9  C   UNL     1       2.892  -2.981   0.000  0.00  0.00    +0.000 A 
ATOM     10  C   UNL     1       2.079  -3.124   0.000  0.00  0.00    +0.000 A 
ATOM     11  S   UNL     1       1.692  -2.395   0.000  0.00  0.00    +0.000 S 
BRANCH  10  12
ATOM     12  S   UNL     1       1.718  -3.865   0.000  0.00  0.00    +0.000 S 
BRANCH  12  13
ATOM     13  C   UNL     1       2.179  -4.549   0.000  0.00  0.00    +0.000 C 
BRANCH  13  14
ATOM     14  C   UNL     1       1.817  -5.291   0.000  0.00  0.00    +0.000 C 
BRANCH  14  15
ATOM     15  N   UNL     1       2.279  -5.975   0.000  0.00  0.00    +0.000 NA
ATOM     16  C   UNL     1       3.103  -6.003   0.000  0.00  0.00    +0.000 C 
ATOM     17  C   UNL     1       3.330  -6.796   0.000  0.00  0.00    +0.000 C 
ATOM     18  C   UNL     1       2.647  -7.258   0.000  0.00  0.00    +0.000 C 
ATOM     19  C   UNL     1       1.996  -6.750   0.000  0.00  0.00    +0.000 C 
ENDBRANCH  14  15
ENDBRANCH  13  14
ENDBRANCH  12  13
ENDBRANCH  10  12
ENDBRANCH   1   4
BRANCH   1  25
ATOM     20  C   UNL     1      -0.693  -0.989   0.000  0.00  0.00    +0.000 A 
ATOM     21  C   UNL     1      -1.325  -0.459   0.000  0.00  0.00    +0.000 A 
ATOM     22  C   UNL     1      -1.181   0.353   0.000  0.00  0.00    +0.000 A 
ATOM     23  C   UNL     1      -0.406   0.636   0.000  0.00  0.00    +0.000 A 
ATOM     24  C   UNL     1       0.226   0.105   0.000  0.00  0.00    +0.000 A 
ATOM     25  C   UNL     1       0.083  -0.707   0.000  0.00  0.00    +0.000 A 
BRANCH  22  26
ATOM     26  S   UNL     1      -1.813   0.884   0.000  0.00  0.00    +0.000 S 
ATOM     27  O   UNL     1      -1.283   1.516   0.000  0.00  0.00    +0.000 OA
ATOM     28  O   UNL     1      -2.344   0.252   0.000  0.00  0.00    +0.000 OA
BRANCH  26  29
ATOM     29  C   UNL     1      -2.446   1.414   0.000  0.00  0.00    +0.000 C 
ATOM     30  C   UNL     1      -3.258   1.557   0.000  0.00  0.00    +0.000 C 
ATOM     31  C   UNL     1      -2.728   2.189   0.000  0.00  0.00    +0.000 C 
ENDBRANCH  26  29
ENDBRANCH  22  26
ENDBRANCH   1  25
BRANCH   3  32
ATOM     32  C   UNL     1      -0.412  -2.365   0.000  0.00  0.00    +0.000 C 
ATOM     33  C   UNL     1      -0.412  -3.189   0.000  0.00  0.00    +0.000 C 
ATOM     34  C   UNL     1      -1.127  -3.602   0.000  0.00  0.00    +0.000 C 
ATOM     35  C   UNL     1      -1.841  -3.189   0.000  0.00  0.00    +0.000 C 
ATOM     36  C   UNL     1      -1.841  -2.365   0.000  0.00  0.00    +0.000 C 
ATOM     37  C   UNL     1      -1.127  -1.952   0.000  0.00  0.00    +0.000 C 
ENDBRANCH   3  32
TORSDOF 9
