REMARK  Name = 
REMARK  2 active torsions:
REMARK  status: ('A' for Active; 'I' for Inactive)
REMARK    1  A    between atoms: C_5  and  N_12
REMARK    2  A    between atoms: C_8  and  C_10
REMARK                            x       y       z     vdW  Elec       q    Type
REMARK                         _______ _______ _______ _____ _____    ______ ____
ROOT
ATOM      1  C   UNL     1       0.421   3.712   0.000  0.00  0.00    +0.000 C 
ATOM      2  C   UNL     1       1.135   3.300   0.000  0.00  0.00    +0.000 C 
ATOM      3  C   UNL     1       1.850   3.712   0.000  0.00  0.00    +0.000 C 
ATOM      4  C   UNL     1       2.564   3.300   0.000  0.00  0.00    +0.000 C 
ATOM      5  C   UNL     1       2.564   2.475   0.000  0.00  0.00    +0.000 C 
ATOM      6  C   UNL     1       1.850   2.062   0.000  0.00  0.00    +0.000 C 
ATOM      7  N   UNL     1       1.135   2.475   0.000  0.00  0.00    +0.000 N 
ATOM      8  C   UNL     1       0.421   2.062   0.000  0.00  0.00    +0.000 C 
ATOM      9  O   UNL     1       0.421   1.238   0.000  0.00  0.00    +0.000 OA
ENDROOT
BRANCH   5  10
ATOM     10  N   UNL     1       3.279   2.062   0.000  0.00  0.00    +0.000 NA
ATOM     11  C   UNL     1       3.279   1.238   0.000  0.00  0.00    +0.000 A 
ATOM     12  N   UNL     1       3.993   0.825   0.000  0.00  0.00    +0.000 NA
ATOM     13  C   UNL     1       3.993   0.000   0.000  0.00  0.00    +0.000 A 
ATOM     14  N   UNL     1       3.279  -0.412   0.000  0.00  0.00    +0.000 NA
ATOM     15  C   UNL     1       2.564   0.000   0.000  0.00  0.00    +0.000 A 
ATOM     16  C   UNL     1       2.564   0.825   0.000  0.00  0.00    +0.000 A 
ATOM     17  C   UNL     1       1.780   1.080   0.000  0.00  0.00    +0.000 A 
ATOM     18  C   UNL     1       1.295   0.412   0.000  0.00  0.00    +0.000 A 
ATOM     19  N   UNL     1       1.780  -0.255   0.000  0.00  0.00    +0.000 NA
ENDBRANCH   5  10
BRANCH   8  20
ATOM     20  C   UNL     1      -0.293   2.475   0.000  0.00  0.00    +0.000 C 
ATOM     21  C   UNL     1      -1.008   2.062   0.000  0.00  0.00    +0.000 C 
ENDBRANCH   8  20
TORSDOF 2
