REMARK  Name = 
REMARK  3 active torsions:
REMARK  status: ('A' for Active; 'I' for Inactive)
REMARK    1  A    between atoms: C_3  and  C_22
REMARK    2  A    between atoms: C_5  and  C_6
REMARK    3  A    between atoms: C_6  and  N_7
REMARK                            x       y       z     vdW  Elec       q    Type
REMARK                         _______ _______ _______ _____ _____    ______ ____
ROOT
ATOM      1  F   UNL     1       4.287  -4.125   0.000  0.00  0.00    +0.000 F 
ATOM      2  C   UNL     1       3.572  -3.712   0.000  0.00  0.00    +0.000 A 
ATOM      3  C   UNL     1       2.858  -4.125   0.000  0.00  0.00    +0.000 A 
ATOM      4  C   UNL     1       2.143  -3.712   0.000  0.00  0.00    +0.000 A 
ATOM      5  C   UNL     1       2.143  -2.888   0.000  0.00  0.00    +0.000 A 
ATOM      6  C   UNL     1       2.858  -2.475   0.000  0.00  0.00    +0.000 A 
ATOM      7  C   UNL     1       3.572  -2.888   0.000  0.00  0.00    +0.000 A 
ENDROOT
BRANCH   3   8
ATOM      8  C   UNL     1       2.858  -4.950   0.000  0.00  0.00    +0.000 C 
ATOM      9  O   UNL     1       3.572  -5.362   0.000  0.00  0.00    +0.000 OA
ATOM     10  N   UNL     1       2.143  -5.362   0.000  0.00  0.00    +0.000 N 
ATOM     11  C   UNL     1       2.143  -6.188   0.000  0.00  0.00    +0.000 C 
ATOM     12  C   UNL     1       1.429  -6.600   0.000  0.00  0.00    +0.000 C 
ATOM     13  N   UNL     1       0.715  -6.188   0.000  0.00  0.00    +0.000 N 
ATOM     14  C   UNL     1       0.715  -5.362   0.000  0.00  0.00    +0.000 C 
ATOM     15  C   UNL     1       1.429  -4.950   0.000  0.00  0.00    +0.000 C 
ATOM     16  C   UNL     1       0.000  -6.600   0.000  0.00  0.00    +0.000 A 
ATOM     17  N   UNL     1       0.000  -7.425   0.000  0.00  0.00    +0.000 NA
ATOM     18  C   UNL     1      -0.715  -7.838   0.000  0.00  0.00    +0.000 A 
ATOM     19  C   UNL     1      -1.429  -7.425   0.000  0.00  0.00    +0.000 A 
ATOM     20  C   UNL     1      -1.429  -6.600   0.000  0.00  0.00    +0.000 A 
ATOM     21  N   UNL     1      -0.715  -6.188   0.000  0.00  0.00    +0.000 NA
ENDBRANCH   3   8
BRANCH   5  22
ATOM     22  C   UNL     1       1.429  -2.475   0.000  0.00  0.00    +0.000 C 
BRANCH  22  23
ATOM     23  N   UNL     1       1.429  -1.650   0.000  0.00  0.00    +0.000 N 
ATOM     24  C   UNL     1       0.715  -1.238   0.000  0.00  0.00    +0.000 A 
ATOM     25  O   UNL     1       0.000  -1.650   0.000  0.00  0.00    +0.000 OA
ATOM     26  N   UNL     1       0.715  -0.412   0.000  0.00  0.00    +0.000 NA
ATOM     27  C   UNL     1       1.429   0.000   0.000  0.00  0.00    +0.000 A 
ATOM     28  O   UNL     1       1.429   0.825   0.000  0.00  0.00    +0.000 OA
ATOM     29  C   UNL     1       2.143  -0.412   0.000  0.00  0.00    +0.000 A 
ATOM     30  C   UNL     1       2.858   0.000   0.000  0.00  0.00    +0.000 A 
ATOM     31  F   UNL     1       2.858   0.825   0.000  0.00  0.00    +0.000 F 
ATOM     32  C   UNL     1       3.572  -0.412   0.000  0.00  0.00    +0.000 A 
ATOM     33  C   UNL     1       3.572  -1.238   0.000  0.00  0.00    +0.000 A 
ATOM     34  C   UNL     1       2.858  -1.650   0.000  0.00  0.00    +0.000 A 
ATOM     35  C   UNL     1       2.143  -1.238   0.000  0.00  0.00    +0.000 A 
ENDBRANCH  22  23
ENDBRANCH   5  22
TORSDOF 3
