REMARK  Name = 
REMARK  1 active torsions:
REMARK  status: ('A' for Active; 'I' for Inactive)
REMARK    1  A    between atoms: C_2  and  S_3
REMARK                            x       y       z     vdW  Elec       q    Type
REMARK                         _______ _______ _______ _____ _____    ______ ____
ROOT
ATOM      1  S   UNL     1       0.357  -0.151   0.000  0.00  0.00    +0.000 S 
ATOM      2  O   UNL     1       1.072  -0.563   0.000  0.00  0.00    +0.000 OA
ATOM      3  O   UNL     1       0.770   0.563   0.000  0.00  0.00    +0.000 OA
ATOM      4  O   UNL     1      -0.055   0.563   0.000  0.00  0.00    +0.000 OA
ENDROOT
BRANCH   1   6
ATOM      5  C   UNL     1      -1.072  -0.151   0.000  0.00  0.00    +0.000 C 
ATOM      6  C   UNL     1      -0.357  -0.563   0.000  0.00  0.00    +0.000 C 
ENDBRANCH   1   6
TORSDOF 1
