REMARK  Name = 
REMARK  8 active torsions:
REMARK  status: ('A' for Active; 'I' for Inactive)
REMARK    1  A    between atoms: S_2  and  O_5
REMARK    2  A    between atoms: O_5  and  C_6
REMARK    3  A    between atoms: C_6  and  C_7
REMARK    4  A    between atoms: C_9  and  N_10
REMARK    5  A    between atoms: N_10  and  C_11
REMARK    6  A    between atoms: C_17  and  C_20
REMARK    7  A    between atoms: C_24  and  S_25
REMARK    8  A    between atoms: S_25  and  C_26
REMARK                            x       y       z     vdW  Elec       q    Type
REMARK                         _______ _______ _______ _____ _____    ______ ____
ROOT
ATOM      1  C   UNL     1       3.279   1.238   0.000  0.00  0.00    +0.000 A 
ATOM      2  C   UNL     1       3.993   0.825   0.000  0.00  0.00    +0.000 A 
ATOM      3  C   UNL     1       3.993   0.000   0.000  0.00  0.00    +0.000 A 
ATOM      4  N   UNL     1       3.279  -0.412   0.000  0.00  0.00    +0.000 NA
ATOM      5  C   UNL     1       2.564   0.000   0.000  0.00  0.00    +0.000 A 
ATOM      6  C   UNL     1       1.780  -0.255   0.000  0.00  0.00    +0.000 A 
ATOM      7  C   UNL     1       1.295   0.412   0.000  0.00  0.00    +0.000 A 
ATOM      8  N   UNL     1       1.780   1.080   0.000  0.00  0.00    +0.000 NA
ATOM      9  N   UNL     1       2.564   0.825   0.000  0.00  0.00    +0.000 N 
ENDROOT
BRANCH   7  10
ATOM     10  C   UNL     1       0.470   0.412   0.000  0.00  0.00    +0.000 A 
ATOM     11  C   UNL     1       0.057  -0.302   0.000  0.00  0.00    +0.000 A 
ATOM     12  C   UNL     1      -0.768  -0.302   0.000  0.00  0.00    +0.000 A 
ATOM     13  C   UNL     1      -1.180   0.412   0.000  0.00  0.00    +0.000 A 
ATOM     14  C   UNL     1      -0.768   1.127   0.000  0.00  0.00    +0.000 A 
ATOM     15  C   UNL     1       0.057   1.127   0.000  0.00  0.00    +0.000 A 
BRANCH  14  16
ATOM     16  S   UNL     1      -1.180   1.841   0.000  0.00  0.00    +0.000 S 
BRANCH  16  17
ATOM     17  C   UNL     1      -2.005   1.841   0.000  0.00  0.00    +0.000 C 
ATOM     18  F   UNL     1      -2.830   1.841   0.000  0.00  0.00    +0.000 F 
ATOM     19  F   UNL     1      -2.005   2.666   0.000  0.00  0.00    +0.000 F 
ATOM     20  F   UNL     1      -2.005   1.016   0.000  0.00  0.00    +0.000 F 
ENDBRANCH  16  17
ENDBRANCH  14  16
ENDBRANCH   7  10
BRANCH   1  21
ATOM     21  N   UNL     1       3.279   2.062   0.000  0.00  0.00    +0.000 NA
BRANCH  21  24
ATOM     22  C   UNL     1       5.299   2.752   0.000  0.00  0.00    +0.000 C 
ATOM     23  C   UNL     1       4.747   2.139   0.000  0.00  0.00    +0.000 C 
ATOM     24  C   UNL     1       3.993   2.475   0.000  0.00  0.00    +0.000 C 
ATOM     25  C   UNL     1       4.080   3.296   0.000  0.00  0.00    +0.000 C 
ATOM     26  O   UNL     1       3.466   3.848   0.000  0.00  0.00    +0.000 OA
ATOM     27  C   UNL     1       4.887   3.467   0.000  0.00  0.00    +0.000 C 
ATOM     28  O   UNL     1       5.222   4.221   0.000  0.00  0.00    +0.000 OA
BRANCH  22  29
ATOM     29  C   UNL     1       6.120   2.666   0.000  0.00  0.00    +0.000 C 
BRANCH  29  30
ATOM     30  O   UNL     1       6.604   3.334   0.000  0.00  0.00    +0.000 OA
BRANCH  30  32
ATOM     31  N   UNL     1       8.245   3.161   0.000  0.00  0.00    +0.000 NA
ATOM     32  S   UNL     1       7.425   3.248   0.000  0.00  0.00    +0.000 S 
ATOM     33  O   UNL     1       7.511   4.068   0.000  0.00  0.00    +0.000 OA
ATOM     34  O   UNL     1       7.339   2.427   0.000  0.00  0.00    +0.000 OA
ENDBRANCH  30  32
ENDBRANCH  29  30
ENDBRANCH  22  29
ENDBRANCH  21  24
ENDBRANCH   1  21
TORSDOF 8
