REMARK  Name = 
REMARK  7 active torsions:
REMARK  status: ('A' for Active; 'I' for Inactive)
REMARK    1  A    between atoms: C_2  and  C_4
REMARK    2  A    between atoms: C_10  and  S_11
REMARK    3  A    between atoms: S_11  and  C_13
REMARK    4  A    between atoms: C_15  and  C_16
REMARK    5  A    between atoms: C_28  and  N_29
REMARK    6  A    between atoms: N_29  and  C_30
REMARK    7  A    between atoms: C_35  and  O_36
REMARK                            x       y       z     vdW  Elec       q    Type
REMARK                         _______ _______ _______ _____ _____    ______ ____
ROOT
ATOM      1  C   UNL     1      -3.215  -1.031   0.000  0.00  0.00    +0.000 A 
ATOM      2  C   UNL     1      -3.215  -1.856   0.000  0.00  0.00    +0.000 A 
ATOM      3  N   UNL     1      -2.501  -2.269   0.000  0.00  0.00    +0.000 NA
ATOM      4  C   UNL     1      -1.786  -1.856   0.000  0.00  0.00    +0.000 A 
ATOM      5  C   UNL     1      -1.786  -1.031   0.000  0.00  0.00    +0.000 A 
ATOM      6  C   UNL     1      -1.072  -0.619   0.000  0.00  0.00    +0.000 A 
ATOM      7  C   UNL     1      -0.357  -1.031   0.000  0.00  0.00    +0.000 A 
ATOM      8  C   UNL     1      -0.357  -1.856   0.000  0.00  0.00    +0.000 A 
ATOM      9  C   UNL     1      -1.072  -2.269   0.000  0.00  0.00    +0.000 A 
ATOM     10  C   UNL     1      -1.072  -3.094   0.000  0.00  0.00    +0.000 C 
ATOM     11  C   UNL     1      -2.501  -0.619   0.000  0.00  0.00    +0.000 A 
ENDROOT
BRANCH   1  13
ATOM     12  O   UNL     1      -4.644  -1.031   0.000  0.00  0.00    +0.000 OA
ATOM     13  C   UNL     1      -3.930  -0.619   0.000  0.00  0.00    +0.000 C 
ATOM     14  N   UNL     1      -3.930   0.206   0.000  0.00  0.00    +0.000 NA
ENDBRANCH   1  13
BRANCH   7  15
ATOM     15  S   UNL     1       0.357  -0.619   0.000  0.00  0.00    +0.000 S 
ATOM     16  O   UNL     1      -0.055   0.096   0.000  0.00  0.00    +0.000 OA
ATOM     17  O   UNL     1       0.770  -1.333   0.000  0.00  0.00    +0.000 OA
BRANCH  15  18
ATOM     18  C   UNL     1       1.072  -0.206   0.000  0.00  0.00    +0.000 A 
ATOM     19  C   UNL     1       1.786  -0.619   0.000  0.00  0.00    +0.000 A 
ATOM     20  C   UNL     1       2.501  -0.206   0.000  0.00  0.00    +0.000 A 
ATOM     21  C   UNL     1       2.501   0.619   0.000  0.00  0.00    +0.000 A 
ATOM     22  C   UNL     1       1.786   1.031   0.000  0.00  0.00    +0.000 A 
ATOM     23  C   UNL     1       1.072   0.619   0.000  0.00  0.00    +0.000 A 
BRANCH  20  24
ATOM     24  C   UNL     1       3.215  -0.619   0.000  0.00  0.00    +0.000 C 
ATOM     25  N   UNL     1       3.929  -0.206   0.000  0.00  0.00    +0.000 N 
ATOM     26  C   UNL     1       4.644  -0.619   0.000  0.00  0.00    +0.000 C 
ATOM     27  C   UNL     1       3.929   0.619   0.000  0.00  0.00    +0.000 C 
ATOM     28  O   UNL     1       3.215  -1.444   0.000  0.00  0.00    +0.000 OA
ENDBRANCH  20  24
ENDBRANCH  15  18
ENDBRANCH   7  15
BRANCH  11  29
ATOM     29  N   UNL     1      -2.501   0.206   0.000  0.00  0.00    +0.000 NA
BRANCH  29  30
ATOM     30  C   UNL     1      -1.786   0.619   0.000  0.00  0.00    +0.000 A 
ATOM     31  C   UNL     1      -1.786   1.444   0.000  0.00  0.00    +0.000 A 
ATOM     32  C   UNL     1      -1.072   0.206   0.000  0.00  0.00    +0.000 A 
ATOM     33  C   UNL     1      -0.357   0.619   0.000  0.00  0.00    +0.000 A 
ATOM     34  C   UNL     1      -0.357   1.444   0.000  0.00  0.00    +0.000 A 
ATOM     35  C   UNL     1      -1.072   1.856   0.000  0.00  0.00    +0.000 A 
BRANCH  35  36
ATOM     36  O   UNL     1      -1.072   2.681   0.000  0.00  0.00    +0.000 OA
ATOM     37  C   UNL     1      -0.357   3.094   0.000  0.00  0.00    +0.000 C 
ENDBRANCH  35  36
ENDBRANCH  29  30
ENDBRANCH  11  29
TORSDOF 7
