REMARK  Name = 
REMARK  2 active torsions:
REMARK  status: ('A' for Active; 'I' for Inactive)
REMARK    1  A    between atoms: C_10  and  C_17
REMARK    2  A    between atoms: C_22  and  C_25
REMARK                            x       y       z     vdW  Elec       q    Type
REMARK                         _______ _______ _______ _____ _____    ______ ____
ROOT
ATOM      1 NA   UNL     1      -3.029   2.917   0.000  0.00  0.00    +0.000 Na
ENDROOT
TORSDOF 0
REMARK  Name = 
REMARK  2 active torsions:
REMARK  status: ('A' for Active; 'I' for Inactive)
REMARK    1  A    between atoms: C_10  and  C_17
REMARK    2  A    between atoms: C_22  and  C_25
REMARK                            x       y       z     vdW  Elec       q    Type
REMARK                         _______ _______ _______ _____ _____    ______ ____
ROOT
ATOM      1 NA   UNL     1       3.029  -0.971   0.000  0.00  0.00    +0.000 Na
ENDROOT
TORSDOF 0
REMARK  Name = 
REMARK  2 active torsions:
REMARK  status: ('A' for Active; 'I' for Inactive)
REMARK    1  A    between atoms: C_10  and  C_17
REMARK    2  A    between atoms: C_22  and  C_25
REMARK                            x       y       z     vdW  Elec       q    Type
REMARK                         _______ _______ _______ _____ _____    ______ ____
ROOT
ATOM      1  C   UNL     1      -1.437   2.033   0.000  0.00  0.00    +0.000 A 
ATOM      2  C   UNL     1      -2.152   1.621   0.000  0.00  0.00    +0.000 A 
ATOM      3  C   UNL     1      -2.152   0.795   0.000  0.00  0.00    +0.000 A 
ATOM      4  C   UNL     1      -1.437   0.383   0.000  0.00  0.00    +0.000 A 
ATOM      5  C   UNL     1      -0.723   0.795   0.000  0.00  0.00    +0.000 A 
ATOM      6  C   UNL     1      -0.723   1.621   0.000  0.00  0.00    +0.000 A 
ATOM      7  O   UNL     1      -0.008   2.033   0.000  0.00  0.00    +0.000 OA
ATOM      8  C   UNL     1      -0.008   0.383   0.000  0.00  0.00    +0.000 A 
ATOM      9  C   UNL     1       0.706   0.795   0.000  0.00  0.00    +0.000 A 
ATOM     10  C   UNL     1       0.706   1.621   0.000  0.00  0.00    +0.000 A 
ATOM     11  C   UNL     1       1.421   2.033   0.000  0.00  0.00    +0.000 A 
ATOM     12  C   UNL     1       1.421   0.383   0.000  0.00  0.00    +0.000 A 
ATOM     13  C   UNL     1       2.135   0.795   0.000  0.00  0.00    +0.000 A 
ATOM     14  C   UNL     1       2.135   1.621   0.000  0.00  0.00    +0.000 A 
ATOM     15  O   UNL     1       2.849   2.033   0.000  0.00  0.00    +0.000 OA
ATOM     16  O   UNL     1      -2.866   2.033   0.000  0.00  0.00    +0.000 OA
ATOM     17 BR   UNL     1       1.421   2.858   0.000  0.00  0.00    +0.000 Br
ATOM     18 BR   UNL     1       2.849   0.383   0.000  0.00  0.00    +0.000 Br
ATOM     19 BR   UNL     1      -1.437   2.858   0.000  0.00  0.00    +0.000 Br
ATOM     20 BR   UNL     1      -2.866   0.383   0.000  0.00  0.00    +0.000 Br
ENDROOT
BRANCH   8  21
ATOM     21  C   UNL     1      -0.008  -0.442   0.000  0.00  0.00    +0.000 A 
ATOM     22  C   UNL     1      -0.723  -0.854   0.000  0.00  0.00    +0.000 A 
ATOM     23  C   UNL     1      -0.723  -1.680   0.000  0.00  0.00    +0.000 A 
ATOM     24  C   UNL     1      -0.008  -2.092   0.000  0.00  0.00    +0.000 A 
ATOM     25  C   UNL     1       0.706  -1.680   0.000  0.00  0.00    +0.000 A 
ATOM     26  C   UNL     1       0.706  -0.854   0.000  0.00  0.00    +0.000 A 
ATOM     27 CL   UNL     1      -1.437  -0.442   0.000  0.00  0.00    +0.000 Cl
ATOM     28 CL   UNL     1      -1.437  -2.092   0.000  0.00  0.00    +0.000 Cl
ATOM     29 CL   UNL     1      -0.008  -2.917   0.000  0.00  0.00    +0.000 Cl
ATOM     30 CL   UNL     1       1.420  -2.092   0.000  0.00  0.00    +0.000 Cl
BRANCH  26  31
ATOM     31  C   UNL     1       1.238  -0.570   0.000  0.00  0.00    +0.000 C 
ATOM     32  O   UNL     1       1.235   0.105   0.000  0.00  0.00    +0.000 OA
ATOM     33  O   UNL     1       1.952  -0.983   0.000  0.00  0.00    +0.000 OA
ENDBRANCH  26  31
ENDBRANCH   8  21
TORSDOF 2
