REMARK  Name = 
REMARK  8 active torsions:
REMARK  status: ('A' for Active; 'I' for Inactive)
REMARK    1  A    between atoms: P_1  and  O_5
REMARK    2  A    between atoms: P_1  and  O_7
REMARK    3  A    between atoms: P_2  and  O_7
REMARK    4  A    between atoms: O_4  and  C_17
REMARK    5  A    between atoms: O_4  and  C_25
REMARK    6  A    between atoms: O_5  and  C_21
REMARK    7  A    between atoms: N_15  and  C_20
REMARK    8  A    between atoms: C_18  and  C_21
REMARK                            x       y       z     vdW  Elec       q    Type
REMARK                         _______ _______ _______ _____ _____    ______ ____
ROOT
ATOM      1  O   UNL     1      -0.395  -0.175   0.000  0.00  0.00    +0.000 OA
ATOM      2  C   UNL     1      -1.476  -0.960   0.000  0.00  0.00    +0.000 C 
ATOM      3  C   UNL     1      -0.650  -0.960   0.000  0.00  0.00    +0.000 C 
ATOM      4  C   UNL     1      -1.730  -0.175   0.000  0.00  0.00    +0.000 C 
ATOM      5  C   UNL     1      -1.063   0.310   0.000  0.00  0.00    +0.000 C 
ENDROOT
BRANCH   5   8
ATOM      6  O   UNL     1      -2.492   1.135   0.000  0.00  0.00    +0.000 OA
ATOM      7  O   UNL     1      -1.063   3.610   0.000  0.00  0.00    +0.000 OA
ATOM      8  N   UNL     1      -1.063   1.135   0.000  0.00  0.00    +0.000 N 
ATOM      9  N   UNL     1      -1.777   2.372   0.000  0.00  0.00    +0.000 N 
ATOM     10  C   UNL     1      -0.348   1.548   0.000  0.00  0.00    +0.000 A 
ATOM     11  C   UNL     1      -1.777   1.548   0.000  0.00  0.00    +0.000 A 
ATOM     12  C   UNL     1      -0.348   2.372   0.000  0.00  0.00    +0.000 A 
ATOM     13  C   UNL     1      -1.063   2.785   0.000  0.00  0.00    +0.000 A 
ATOM     14  C   UNL     1       0.366   2.785   0.000  0.00  0.00    +0.000 C 
ATOM     15  H   UNL     1      -2.220   2.628   0.000  0.00  0.00    +0.000 HD
ENDBRANCH   5   8
BRANCH   2  16
ATOM     16  O   UNL     1      -1.960  -1.627   0.000  0.00  0.00    +0.000 OA
BRANCH  16  18
ATOM     17  O   UNL     1      -3.116  -0.787   0.000  0.00  0.00    +0.000 OA
ATOM     18  C   UNL     1      -2.781  -1.541   0.000  0.00  0.00    +0.000 C 
ATOM     19  C   UNL     1      -3.266  -2.208   0.000  0.00  0.00    +0.000 C 
ENDBRANCH  16  18
ENDBRANCH   2  16
BRANCH   3  20
ATOM     20  C   UNL     1      -0.165  -1.627   0.000  0.00  0.00    +0.000 C 
BRANCH  20  21
ATOM     21  O   UNL     1       0.655  -1.541   0.000  0.00  0.00    +0.000 OA
BRANCH  21  22
ATOM     22  P   UNL     1       1.140  -2.208   0.000  0.00  0.00    +0.000 P 
ATOM     23  O   UNL     1       1.807  -1.723   0.000  0.00  0.00    +0.000 OA
ATOM     24  O   UNL     1       0.472  -2.693   0.000  0.00  0.00    +0.000 OA
BRANCH  22  25
ATOM     25  O   UNL     1       1.625  -2.876   0.000  0.00  0.00    +0.000 OA
BRANCH  25  26
ATOM     26  P   UNL     1       2.445  -2.789   0.000  0.00  0.00    +0.000 P 
ATOM     27  O   UNL     1       2.532  -3.610   0.000  0.00  0.00    +0.000 OA
ATOM     28  O   UNL     1       3.266  -2.703   0.000  0.00  0.00    +0.000 OA
ATOM     29  O   UNL     1       2.359  -1.969   0.000  0.00  0.00    +0.000 OA
ENDBRANCH  25  26
ENDBRANCH  22  25
ENDBRANCH  21  22
ENDBRANCH  20  21
ENDBRANCH   3  20
TORSDOF 8
