REMARK  Name = 
REMARK  11 active torsions:
REMARK  status: ('A' for Active; 'I' for Inactive)
REMARK    1  A    between atoms: C_10  and  C_12
REMARK    2  A    between atoms: C_12  and  C_51
REMARK    3  A    between atoms: C_21  and  O_23
REMARK    4  A    between atoms: C_35  and  O_69
REMARK    5  A    between atoms: C_51  and  C_52
REMARK    6  A    between atoms: C_56  and  O_61
REMARK    7  A    between atoms: C_57  and  O_59
REMARK    8  A    between atoms: O_61  and  C_62
REMARK    9  A    between atoms: C_62  and  C_63
REMARK   10  A    between atoms: C_63  and  O_64
REMARK   11  A    between atoms: O_64  and  C_65
REMARK                            x       y       z     vdW  Elec       q    Type
REMARK                         _______ _______ _______ _____ _____    ______ ____
ROOT
ATOM      1  C   UNL     1       5.001   2.062   0.000  0.00  0.00    +0.000 C 
ATOM      2  N   UNL     1       4.287   1.650   0.000  0.00  0.00    +0.000 N 
ATOM      3  C   UNL     1       4.287   0.825   0.000  0.00  0.00    +0.000 C 
ATOM      4  C   UNL     1       5.001   0.412   0.000  0.00  0.00    +0.000 C 
ATOM      5  C   UNL     1       5.716   0.825   0.000  0.00  0.00    +0.000 C 
ATOM      6  C   UNL     1       5.716   1.650   0.000  0.00  0.00    +0.000 C 
ATOM      7  C   UNL     1       3.572   0.412   0.000  0.00  0.00    +0.000 C 
ATOM      8  O   UNL     1       3.572  -0.412   0.000  0.00  0.00    +0.000 OA
ATOM      9  O   UNL     1       2.858   0.825   0.000  0.00  0.00    +0.000 OA
ATOM     10  C   UNL     1       2.143   0.412   0.000  0.00  0.00    +0.000 C 
ATOM     11  C   UNL     1       1.429   0.825   0.000  0.00  0.00    +0.000 C 
ATOM     12  C   UNL     1       0.714   0.412   0.000  0.00  0.00    +0.000 C 
ATOM     13  C   UNL     1       0.000   0.825   0.000  0.00  0.00    +0.000 C 
ATOM     14  O   UNL     1       0.714  -0.412   0.000  0.00  0.00    +0.000 OA
ATOM     15  C   UNL     1      -0.714   0.412   0.000  0.00  0.00    +0.000 C 
ATOM     16  C   UNL     1       0.000   1.650   0.000  0.00  0.00    +0.000 C 
ATOM     17  C   UNL     1      -1.429   0.825   0.000  0.00  0.00    +0.000 C 
ATOM     18  C   UNL     1      -2.143   0.412   0.000  0.00  0.00    +0.000 C 
ATOM     19  C   UNL     1      -1.429   1.650   0.000  0.00  0.00    +0.000 C 
ATOM     20  C   UNL     1      -2.858   0.825   0.000  0.00  0.00    +0.000 C 
ATOM     21  O   UNL     1      -2.143  -0.412   0.000  0.00  0.00    +0.000 OA
ATOM     22  C   UNL     1       3.572   2.062   0.000  0.00  0.00    +0.000 C 
ATOM     23  O   UNL     1       2.858   1.650   0.000  0.00  0.00    +0.000 OA
ATOM     24  C   UNL     1       3.572   2.888   0.000  0.00  0.00    +0.000 C 
ATOM     25  C   UNL     1       2.858   3.300   0.000  0.00  0.00    +0.000 C 
ATOM     26  O   UNL     1       4.287   3.300   0.000  0.00  0.00    +0.000 OA
ATOM     27  C   UNL     1       2.858   4.125   0.000  0.00  0.00    +0.000 C 
ATOM     28  C   UNL     1       2.143   4.537   0.000  0.00  0.00    +0.000 C 
ATOM     29  C   UNL     1       1.429   4.125   0.000  0.00  0.00    +0.000 C 
ATOM     30  C   UNL     1       1.429   3.300   0.000  0.00  0.00    +0.000 C 
ATOM     31  O   UNL     1       2.143   2.888   0.000  0.00  0.00    +0.000 OA
ATOM     32  C   UNL     1       0.714   2.887   0.000  0.00  0.00    +0.000 C 
ATOM     33  C   UNL     1       0.000   3.300   0.000  0.00  0.00    +0.000 C 
ATOM     34  C   UNL     1      -0.715   2.887   0.000  0.00  0.00    +0.000 C 
ATOM     35  C   UNL     1      -1.429   3.300   0.000  0.00  0.00    +0.000 C 
ATOM     36  C   UNL     1      -0.715   2.062   0.000  0.00  0.00    +0.000 C 
ATOM     37  C   UNL     1      -2.143   2.887   0.000  0.00  0.00    +0.000 C 
ATOM     38  C   UNL     1      -2.858   3.300   0.000  0.00  0.00    +0.000 C 
ATOM     39  C   UNL     1      -3.572   2.887   0.000  0.00  0.00    +0.000 C 
ATOM     40  C   UNL     1      -4.287   3.300   0.000  0.00  0.00    +0.000 C 
ATOM     41  C   UNL     1      -5.001   2.887   0.000  0.00  0.00    +0.000 C 
ATOM     42  C   UNL     1      -5.001   2.062   0.000  0.00  0.00    +0.000 C 
ATOM     43  C   UNL     1      -4.287   1.650   0.000  0.00  0.00    +0.000 C 
ATOM     44  C   UNL     1      -4.287   0.825   0.000  0.00  0.00    +0.000 C 
ATOM     45  O   UNL     1      -5.001   0.412   0.000  0.00  0.00    +0.000 OA
ATOM     46  C   UNL     1      -3.572   2.062   0.000  0.00  0.00    +0.000 C 
ATOM     47  C   UNL     1      -5.716   3.300   0.000  0.00  0.00    +0.000 C 
ATOM     48  C   UNL     1       3.572   4.537   0.000  0.00  0.00    +0.000 C 
ATOM     49  O   UNL     1       2.858   2.475   0.000  0.00  0.00    +0.000 OA
ENDROOT
BRANCH  20  50
ATOM     50  O   UNL     1      -2.858   1.650   0.000  0.00  0.00    +0.000 OA
ATOM     51  C   UNL     1      -2.275   2.233   0.000  0.00  0.00    +0.000 C 
ENDBRANCH  20  50
BRANCH  10  52
ATOM     52  C   UNL     1       2.143  -0.412   0.000  0.00  0.00    +0.000 C 
ATOM     53  C   UNL     1       1.429  -0.825   0.000  0.00  0.00    +0.000 C 
BRANCH  52  54
ATOM     54  C   UNL     1       2.858  -0.825   0.000  0.00  0.00    +0.000 C 
BRANCH  54  55
ATOM     55  C   UNL     1       2.858  -1.650   0.000  0.00  0.00    +0.000 C 
ATOM     56  C   UNL     1       2.143  -2.062   0.000  0.00  0.00    +0.000 C 
ATOM     57  C   UNL     1       2.143  -2.888   0.000  0.00  0.00    +0.000 C 
ATOM     58  C   UNL     1       2.858  -3.300   0.000  0.00  0.00    +0.000 C 
ATOM     59  C   UNL     1       3.572  -2.888   0.000  0.00  0.00    +0.000 C 
ATOM     60  C   UNL     1       3.572  -2.062   0.000  0.00  0.00    +0.000 C 
BRANCH  59  61
ATOM     61  O   UNL     1       4.287  -3.300   0.000  0.00  0.00    +0.000 OA
ATOM     62  C   UNL     1       5.001  -2.888   0.000  0.00  0.00    +0.000 C 
ENDBRANCH  59  61
BRANCH  58  63
ATOM     63  O   UNL     1       2.858  -4.125   0.000  0.00  0.00    +0.000 OA
BRANCH  63  64
ATOM     64  C   UNL     1       2.143  -4.537   0.000  0.00  0.00    +0.000 C 
BRANCH  64  65
ATOM     65  C   UNL     1       1.429  -4.125   0.000  0.00  0.00    +0.000 C 
BRANCH  65  66
ATOM     66  O   UNL     1       0.714  -4.537   0.000  0.00  0.00    +0.000 OA
BRANCH  66  67
ATOM     67  C   UNL     1       0.000  -4.125   0.000  0.00  0.00    +0.000 C 
ATOM     68  C   UNL     1      -0.714  -4.537   0.000  0.00  0.00    +0.000 C 
ENDBRANCH  66  67
ENDBRANCH  65  66
ENDBRANCH  64  65
ENDBRANCH  63  64
ENDBRANCH  58  63
ENDBRANCH  54  55
ENDBRANCH  52  54
ENDBRANCH  10  52
BRANCH  33  69
ATOM     69  O   UNL     1       0.000   4.125   0.000  0.00  0.00    +0.000 OA
ATOM     70  C   UNL     1      -0.715   4.537   0.000  0.00  0.00    +0.000 C 
ENDBRANCH  33  69
TORSDOF 11
