REMARK  Name = 
REMARK  8 active torsions:
REMARK  status: ('A' for Active; 'I' for Inactive)
REMARK    1  A    between atoms: C_2  and  C_5
REMARK    2  A    between atoms: C_7  and  C_16
REMARK    3  A    between atoms: C_10  and  N_11
REMARK    4  A    between atoms: C_18  and  C_26
REMARK    5  A    between atoms: C_21  and  O_22
REMARK    6  A    between atoms: O_22  and  C_23
REMARK    7  A    between atoms: C_23  and  C_24
REMARK    8  A    between atoms: C_29  and  C_32
REMARK                            x       y       z     vdW  Elec       q    Type
REMARK                         _______ _______ _______ _____ _____    ______ ____
ROOT
ATOM      1  C   UNL     1      -3.466  -0.474   0.000  0.00  0.00    +0.000 A 
ATOM      2  C   UNL     1      -4.180  -0.062   0.000  0.00  0.00    +0.000 A 
ATOM      3  C   UNL     1      -4.180   0.763   0.000  0.00  0.00    +0.000 A 
ATOM      4  C   UNL     1      -3.466   1.176   0.000  0.00  0.00    +0.000 A 
ATOM      5  C   UNL     1      -2.751   0.763   0.000  0.00  0.00    +0.000 A 
ATOM      6  C   UNL     1      -2.751  -0.062   0.000  0.00  0.00    +0.000 A 
ENDROOT
BRANCH   1   9
ATOM      7  C   UNL     1      -4.180  -2.537   0.000  0.00  0.00    +0.000 A 
ATOM      8  C   UNL     1      -4.180  -1.712   0.000  0.00  0.00    +0.000 A 
ATOM      9  C   UNL     1      -3.466  -1.299   0.000  0.00  0.00    +0.000 A 
ATOM     10  C   UNL     1      -2.751  -1.712   0.000  0.00  0.00    +0.000 A 
ATOM     11  C   UNL     1      -2.751  -2.537   0.000  0.00  0.00    +0.000 A 
ATOM     12  C   UNL     1      -3.466  -2.949   0.000  0.00  0.00    +0.000 A 
BRANCH  12  13
ATOM     13  N   UNL     1      -3.466  -3.774   0.000  0.00  0.00    +0.000 N 
ATOM     14  C   UNL     1      -2.798  -4.259   0.000  0.00  0.00    +0.000 C 
ATOM     15  C   UNL     1      -3.053  -5.044   0.000  0.00  0.00    +0.000 C 
ATOM     16  C   UNL     1      -3.878  -5.044   0.000  0.00  0.00    +0.000 C 
ATOM     17  C   UNL     1      -4.133  -4.259   0.000  0.00  0.00    +0.000 C 
ENDBRANCH  12  13
BRANCH   7  19
ATOM     18  C   UNL     1      -5.609  -3.362   0.000  0.00  0.00    +0.000 C 
ATOM     19  C   UNL     1      -4.895  -2.949   0.000  0.00  0.00    +0.000 C 
ATOM     20  C   UNL     1      -4.482  -3.664   0.000  0.00  0.00    +0.000 C 
ATOM     21  C   UNL     1      -5.307  -2.235   0.000  0.00  0.00    +0.000 C 
ENDBRANCH   7  19
ENDBRANCH   1   9
BRANCH   3  22
ATOM     22  C   UNL     1      -4.895   1.176   0.000  0.00  0.00    +0.000 A 
ATOM     23  C   UNL     1      -5.609   0.763   0.000  0.00  0.00    +0.000 A 
ATOM     24  C   UNL     1      -6.324   1.176   0.000  0.00  0.00    +0.000 A 
ATOM     25  C   UNL     1      -6.324   2.001   0.000  0.00  0.00    +0.000 A 
ATOM     26  C   UNL     1      -5.609   2.413   0.000  0.00  0.00    +0.000 A 
ATOM     27  C   UNL     1      -4.895   2.001   0.000  0.00  0.00    +0.000 A 
BRANCH  25  28
ATOM     28  C   UNL     1      -7.038   2.413   0.000  0.00  0.00    +0.000 C 
ATOM     29  O   UNL     1      -7.753   2.001   0.000  0.00  0.00    +0.000 OA
ATOM     30  O   UNL     1      -7.038   3.238   0.000  0.00  0.00    +0.000 OA
ENDBRANCH  25  28
ENDBRANCH   3  22
BRANCH   6  31
ATOM     31  O   UNL     1      -2.037  -0.474   0.000  0.00  0.00    +0.000 OA
BRANCH  31  32
ATOM     32  C   UNL     1      -2.037  -1.299   0.000  0.00  0.00    +0.000 C 
BRANCH  32  33
ATOM     33  C   UNL     1      -1.322  -1.712   0.000  0.00  0.00    +0.000 C 
ATOM     34  O   UNL     1      -1.322  -2.537   0.000  0.00  0.00    +0.000 OA
ENDBRANCH  32  33
ENDBRANCH  31  32
ENDBRANCH   6  31
TORSDOF 8
