REMARK  Name = 
REMARK  4 active torsions:
REMARK  status: ('A' for Active; 'I' for Inactive)
REMARK    1  A    between atoms: N_6  and  C_9
REMARK    2  A    between atoms: C_16  and  C_18
REMARK    3  A    between atoms: C_23  and  C_25
REMARK    4  A    between atoms: C_26  and  C_31
REMARK                            x       y       z     vdW  Elec       q    Type
REMARK                         _______ _______ _______ _____ _____    ______ ____
ROOT
ATOM      1  C   UNL     1       1.429  -7.425   0.000  0.00  0.00    +0.000 A 
ATOM      2  C   UNL     1       0.715  -7.838   0.000  0.00  0.00    +0.000 A 
ATOM      3  C   UNL     1       0.715  -8.662   0.000  0.00  0.00    +0.000 A 
ATOM      4  C   UNL     1       1.429  -9.075   0.000  0.00  0.00    +0.000 A 
ATOM      5  N   UNL     1       2.143  -8.662   0.000  0.00  0.00    +0.000 NA
ATOM      6  C   UNL     1       2.143  -7.838   0.000  0.00  0.00    +0.000 A 
ATOM      7  N   UNL     1       2.858  -7.425   0.000  0.00  0.00    +0.000 NA
ATOM      8  C   UNL     1       3.572  -7.838   0.000  0.00  0.00    +0.000 C 
ATOM      9  O   UNL     1       3.572  -8.662   0.000  0.00  0.00    +0.000 OA
ENDROOT
BRANCH   1  15
ATOM     10  C   UNL     1       1.959  -4.318   0.000  0.00  0.00    +0.000 C 
ATOM     11  C   UNL     1       1.429  -4.950   0.000  0.00  0.00    +0.000 C 
ATOM     12  N   UNL     1       0.899  -4.318   0.000  0.00  0.00    +0.000 NA
ATOM     13  C   UNL     1       2.143  -5.362   0.000  0.00  0.00    +0.000 C 
ATOM     14  C   UNL     1       2.143  -6.188   0.000  0.00  0.00    +0.000 C 
ATOM     15  N   UNL     1       1.429  -6.600   0.000  0.00  0.00    +0.000 N 
ATOM     16  C   UNL     1       0.715  -6.188   0.000  0.00  0.00    +0.000 C 
ATOM     17  C   UNL     1       0.715  -5.362   0.000  0.00  0.00    +0.000 C 
ENDBRANCH   1  15
BRANCH   8  18
ATOM     18  C   UNL     1       4.287  -7.425   0.000  0.00  0.00    +0.000 A 
ATOM     19  C   UNL     1       4.287  -6.600   0.000  0.00  0.00    +0.000 A 
ATOM     20  N   UNL     1       3.572  -6.188   0.000  0.00  0.00    +0.000 NA
ATOM     21  N   UNL     1       5.001  -6.188   0.000  0.00  0.00    +0.000 NA
ATOM     22  C   UNL     1       5.716  -6.600   0.000  0.00  0.00    +0.000 A 
ATOM     23  C   UNL     1       5.716  -7.425   0.000  0.00  0.00    +0.000 A 
ATOM     24  N   UNL     1       5.001  -7.838   0.000  0.00  0.00    +0.000 NA
BRANCH  23  25
ATOM     25  C   UNL     1       6.430  -7.838   0.000  0.00  0.00    +0.000 A 
ATOM     26  C   UNL     1       7.145  -7.425   0.000  0.00  0.00    +0.000 A 
ATOM     27  C   UNL     1       7.859  -7.838   0.000  0.00  0.00    +0.000 A 
ATOM     28  C   UNL     1       7.859  -8.662   0.000  0.00  0.00    +0.000 A 
ATOM     29  C   UNL     1       7.145  -9.075   0.000  0.00  0.00    +0.000 A 
ATOM     30  N   UNL     1       6.430  -8.662   0.000  0.00  0.00    +0.000 NA
BRANCH  26  31
ATOM     31  C   UNL     1       7.145  -6.600   0.000  0.00  0.00    +0.000 C 
ATOM     32  F   UNL     1       7.145  -5.775   0.000  0.00  0.00    +0.000 F 
ATOM     33  F   UNL     1       7.970  -6.600   0.000  0.00  0.00    +0.000 F 
ATOM     34  F   UNL     1       6.320  -6.600   0.000  0.00  0.00    +0.000 F 
ENDBRANCH  26  31
ENDBRANCH  23  25
ENDBRANCH   8  18
TORSDOF 4
