REMARK  Name = 
REMARK  29 active torsions:
REMARK  status: ('A' for Active; 'I' for Inactive)
REMARK    1  A    between atoms: C_2  and  C_45
REMARK    2  A    between atoms: C_3  and  C_4
REMARK    3  A    between atoms: C_3  and  N_7
REMARK    4  A    between atoms: C_3  and  C_46
REMARK    5  A    between atoms: C_17  and  C_31
REMARK    6  A    between atoms: C_19  and  C_40
REMARK    7  A    between atoms: C_20  and  C_44
REMARK    8  A    between atoms: C_21  and  C_29
REMARK    9  A    between atoms: N_22  and  C_29
REMARK   10  A    between atoms: N_23  and  C_27
REMARK   11  A    between atoms: C_24  and  C_50
REMARK   12  A    between atoms: C_25  and  C_52
REMARK   13  A    between atoms: C_26  and  C_51
REMARK   14  A    between atoms: N_28  and  C_31
REMARK   15  A    between atoms: C_29  and  C_53
REMARK   16  A    between atoms: C_31  and  C_54
REMARK   17  A    between atoms: C_32  and  C_64
REMARK   18  A    between atoms: C_40  and  C_55
REMARK   19  A    between atoms: C_44  and  C_63
REMARK   20  A    between atoms: C_50  and  C_67
REMARK   21  A    between atoms: C_51  and  C_65
REMARK   22  A    between atoms: C_52  and  C_66
REMARK   23  A    between atoms: C_53  and  C_69
REMARK   24  A    between atoms: C_54  and  C_68
REMARK   25  A    between atoms: C_64  and  C_75
REMARK   26  A    between atoms: C_74  and  C_76
REMARK   27  A    between atoms: C_74  and  C_77
REMARK   28  A    between atoms: C_75  and  C_80
REMARK   29  A    between atoms: C_77  and  C_80
REMARK                            x       y       z     vdW  Elec       q    Type
REMARK                         _______ _______ _______ _____ _____    ______ ____
ROOT
ATOM      1  N   UNL     1       6.804  -2.057   0.000  0.00  0.00    +0.000 NA
ATOM      2  C   UNL     1       6.090  -2.467   0.000  0.00  0.00    +0.000 C 
ATOM      3  N   UNL     1       6.795   1.227   0.000  0.00  0.00    +0.000 NA
ATOM      4  N   UNL     1       4.665   1.642   0.000  0.00  0.00    +0.000 NA
ATOM      5  N   UNL     1       8.214   0.412   0.000  0.00  0.00    +0.000 NA
ATOM      6  C   UNL     1       7.509  -2.467   0.000  0.00  0.00    +0.000 C 
ATOM      7  N   UNL     1       8.219  -1.232   0.000  0.00  0.00    +0.000 NA
ATOM      8  N   UNL     1       2.530   1.198   0.000  0.00  0.00    +0.000 NA
ATOM      9  C   UNL     1       6.090   1.642   0.000  0.00  0.00    +0.000 C 
ATOM     10  C   UNL     1       8.219   1.237   0.000  0.00  0.00    +0.000 C 
ATOM     11  C   UNL     1       3.945   1.222   0.000  0.00  0.00    +0.000 C 
ATOM     12  C   UNL     1       8.924  -0.817   0.000  0.00  0.00    +0.000 C 
ATOM     13  C   UNL     1       2.520   0.382   0.000  0.00  0.00    +0.000 C 
ATOM     14  C   UNL     1       5.274  -2.462   0.000  0.00  0.00    +0.000 C 
ATOM     15  C   UNL     1       5.380   1.222   0.000  0.00  0.00    +0.000 C 
ATOM     16  C   UNL     1       7.509   1.642   0.000  0.00  0.00    +0.000 C 
ATOM     17  C   UNL     1       8.219  -2.047   0.000  0.00  0.00    +0.000 C 
ATOM     18  C   UNL     1       3.240   1.627   0.000  0.00  0.00    +0.000 C 
ATOM     19  C   UNL     1       8.924   0.007   0.000  0.00  0.00    +0.000 C 
ATOM     20  C   UNL     1       1.800  -0.022   0.000  0.00  0.00    +0.000 C 
ATOM     21  N   UNL     1       4.854  -3.172   0.000  0.00  0.00    +0.000 NA
ATOM     22  O   UNL     1       7.509  -3.292   0.000  0.00  0.00    +0.000 OA
ATOM     23  O   UNL     1       8.934   1.642   0.000  0.00  0.00    +0.000 OA
ATOM     24  O   UNL     1       6.090   2.467   0.000  0.00  0.00    +0.000 OA
ATOM     25  O   UNL     1       3.960   0.397   0.000  0.00  0.00    +0.000 OA
ATOM     26  O   UNL     1       9.644  -1.232   0.000  0.00  0.00    +0.000 OA
ATOM     27  O   UNL     1       3.235  -0.037   0.000  0.00  0.00    +0.000 OA
ATOM     28  O   UNL     1       4.860  -1.742   0.000  0.00  0.00    +0.000 OA
ATOM     29  C   UNL     1       1.785  -0.847   0.000  0.00  0.00    +0.000 C 
ATOM     30  C   UNL     1       4.030  -3.172   0.000  0.00  0.00    +0.000 C 
ENDROOT
BRANCH  20  32
ATOM     31  C   UNL     1       0.375   0.007   0.000  0.00  0.00    +0.000 C 
ATOM     32  N   UNL     1       1.095   0.397   0.000  0.00  0.00    +0.000 NA
ATOM     33  O   UNL     1       0.375  -0.827   0.000  0.00  0.00    +0.000 OA
BRANCH  31  34
ATOM     34  C   UNL     1      -0.345   0.412   0.000  0.00  0.00    +0.000 C 
BRANCH  34  36
ATOM     35  C   UNL     1      -1.770   0.412   0.000  0.00  0.00    +0.000 C 
ATOM     36  N   UNL     1      -1.050   0.007   0.000  0.00  0.00    +0.000 NA
ATOM     37  O   UNL     1      -1.770   1.237   0.000  0.00  0.00    +0.000 OA
BRANCH  35  38
ATOM     38  C   UNL     1      -2.490   0.007   0.000  0.00  0.00    +0.000 C 
BRANCH  38  39
ATOM     39  N   UNL     1      -3.200   0.412   0.000  0.00  0.00    +0.000 NA
ATOM     40  C   UNL     1      -3.915   0.007   0.000  0.00  0.00    +0.000 C 
ATOM     41  O   UNL     1      -3.915  -0.817   0.000  0.00  0.00    +0.000 OA
BRANCH  40  42
ATOM     42  C   UNL     1      -4.635   0.417   0.000  0.00  0.00    +0.000 C 
BRANCH  42  43
ATOM     43  N   UNL     1      -5.355   0.007   0.000  0.00  0.00    +0.000 NA
ATOM     44  C   UNL     1      -6.065   0.412   0.000  0.00  0.00    +0.000 C 
ATOM     45  O   UNL     1      -6.065   1.237   0.000  0.00  0.00    +0.000 OA
BRANCH  44  46
ATOM     46  C   UNL     1      -6.779   0.007   0.000  0.00  0.00    +0.000 C 
BRANCH  46  47
ATOM     47  C   UNL     1      -7.489   0.412   0.000  0.00  0.00    +0.000 C 
BRANCH  47  48
ATOM     48  C   UNL     1      -8.204   0.007   0.000  0.00  0.00    +0.000 C 
BRANCH  48  49
ATOM     49  C   UNL     1      -8.924   0.412   0.000  0.00  0.00    +0.000 C 
BRANCH  49  50
ATOM     50  C   UNL     1      -9.644   0.007   0.000  0.00  0.00    +0.000 C 
ATOM     51  C   UNL     1      -9.644  -0.827   0.000  0.00  0.00    +0.000 C 
BRANCH  50  52
ATOM     52  C   UNL     1     -10.354   0.412   0.000  0.00  0.00    +0.000 C 
ATOM     53  C   UNL     1     -11.069  -0.002   0.000  0.00  0.00    +0.000 C 
ENDBRANCH  50  52
ENDBRANCH  49  50
ENDBRANCH  48  49
ENDBRANCH  47  48
ENDBRANCH  46  47
ENDBRANCH  44  46
ENDBRANCH  42  43
BRANCH  42  54
ATOM     54  C   UNL     1      -4.635   1.242   0.000  0.00  0.00    +0.000 C 
BRANCH  54  56
ATOM     55  N   UNL     1      -3.915   2.482   0.000  0.00  0.00    +0.000 NA
ATOM     56  C   UNL     1      -3.915   1.657   0.000  0.00  0.00    +0.000 C 
ENDBRANCH  54  56
ENDBRANCH  42  54
ENDBRANCH  40  42
ENDBRANCH  38  39
BRANCH  38  57
ATOM     57  C   UNL     1      -2.490  -0.827   0.000  0.00  0.00    +0.000 C 
ATOM     58  O   UNL     1      -1.770  -1.237   0.000  0.00  0.00    +0.000 OA
ATOM     59  C   UNL     1      -3.200  -1.237   0.000  0.00  0.00    +0.000 C 
ENDBRANCH  38  57
ENDBRANCH  35  38
ENDBRANCH  34  36
BRANCH  34  60
ATOM     60  C   UNL     1      -0.345   1.237   0.000  0.00  0.00    +0.000 C 
BRANCH  60  62
ATOM     61  N   UNL     1       0.375   2.482   0.000  0.00  0.00    +0.000 NA
ATOM     62  C   UNL     1       0.375   1.657   0.000  0.00  0.00    +0.000 C 
ENDBRANCH  60  62
ENDBRANCH  34  60
ENDBRANCH  31  34
ENDBRANCH  20  32
BRANCH   2  63
ATOM     63  C   UNL     1       6.090  -3.292   0.000  0.00  0.00    +0.000 C 
ATOM     64  O   UNL     1       5.385  -3.712   0.000  0.00  0.00    +0.000 OA
ATOM     65  C   UNL     1       6.809  -3.712   0.000  0.00  0.00    +0.000 C 
ENDBRANCH   2  63
BRANCH  18  66
ATOM     66  C   UNL     1       3.225   2.452   0.000  0.00  0.00    +0.000 C 
BRANCH  66  68
ATOM     67  N   UNL     1       2.490   3.682   0.000  0.00  0.00    +0.000 NA
ATOM     68  C   UNL     1       2.505   2.857   0.000  0.00  0.00    +0.000 C 
ENDBRANCH  66  68
ENDBRANCH  18  66
BRANCH  19  69
ATOM     69  C   UNL     1       9.644   0.412   0.000  0.00  0.00    +0.000 C 
BRANCH  69  71
ATOM     70  N   UNL     1      11.069   0.412   0.000  0.00  0.00    +0.000 NA
ATOM     71  C   UNL     1      10.359   0.007   0.000  0.00  0.00    +0.000 C 
ENDBRANCH  69  71
ENDBRANCH  19  69
BRANCH  17  72
ATOM     72  C   UNL     1       8.939  -2.467   0.000  0.00  0.00    +0.000 C 
BRANCH  72  74
ATOM     73  N   UNL     1       9.659  -3.697   0.000  0.00  0.00    +0.000 NA
ATOM     74  C   UNL     1       8.939  -3.292   0.000  0.00  0.00    +0.000 C 
ENDBRANCH  72  74
ENDBRANCH  17  72
BRANCH  16  75
ATOM     75  C   UNL     1       7.500   2.467   0.000  0.00  0.00    +0.000 C 
BRANCH  75  76
ATOM     76  C   UNL     1       8.219   2.887   0.000  0.00  0.00    +0.000 C 
ATOM     77  C   UNL     1       8.939   2.472   0.000  0.00  0.00    +0.000 C 
ATOM     78  C   UNL     1       8.219   3.712   0.000  0.00  0.00    +0.000 C 
ENDBRANCH  75  76
ENDBRANCH  16  75
BRANCH  15  79
ATOM     79  C   UNL     1       5.380   0.397   0.000  0.00  0.00    +0.000 C 
BRANCH  79  80
ATOM     80  C   UNL     1       6.090  -0.007   0.000  0.00  0.00    +0.000 A 
ATOM     81  C   UNL     1       6.090  -0.842   0.000  0.00  0.00    +0.000 A 
ATOM     82  C   UNL     1       6.804   0.403   0.000  0.00  0.00    +0.000 A 
ATOM     83  C   UNL     1       6.804  -1.247   0.000  0.00  0.00    +0.000 A 
ATOM     84  C   UNL     1       7.514  -0.002   0.000  0.00  0.00    +0.000 A 
ATOM     85  C   UNL     1       7.524  -0.832   0.000  0.00  0.00    +0.000 A 
ENDBRANCH  79  80
ENDBRANCH  15  79
TORSDOF 29
