REMARK  Name = 
REMARK  10 active torsions:
REMARK  status: ('A' for Active; 'I' for Inactive)
REMARK    1  A    between atoms: C_1  and  C_4
REMARK    2  A    between atoms: C_2  and  C_6
REMARK    3  A    between atoms: C_3  and  C_8
REMARK    4  A    between atoms: C_5  and  C_12
REMARK    5  A    between atoms: C_6  and  O_13
REMARK    6  A    between atoms: C_8  and  O_16
REMARK    7  A    between atoms: C_12  and  O_21
REMARK    8  A    between atoms: O_13  and  C_22
REMARK    9  A    between atoms: O_21  and  C_25
REMARK   10  A    between atoms: C_25  and  C_27
REMARK                            x       y       z     vdW  Elec       q    Type
REMARK                         _______ _______ _______ _____ _____    ______ ____
ROOT
ATOM      1  C   UNL     1      -0.711  -0.693   0.000  0.00  0.00    +0.000 C 
ATOM      2  C   UNL     1       0.000  -1.112   0.000  0.00  0.00    +0.000 C 
ATOM      3  C   UNL     1      -1.421  -1.112   0.000  0.00  0.00    +0.000 C 
ATOM      4  C   UNL     1       0.000  -1.943   0.000  0.00  0.00    +0.000 C 
ATOM      5  C   UNL     1      -1.421  -1.943   0.000  0.00  0.00    +0.000 C 
ATOM      6  N   UNL     1      -0.711  -2.363   0.000  0.00  0.00    +0.000 NA
ATOM      7  C   UNL     1      -2.132  -2.363   0.000  0.00  0.00    +0.000 C 
ENDROOT
BRANCH   1   8
ATOM      8  C   UNL     1      -0.711   0.728   0.000  0.00  0.00    +0.000 A 
ATOM      9  C   UNL     1       0.000   1.147   0.000  0.00  0.00    +0.000 A 
ATOM     10  C   UNL     1      -1.421   1.147   0.000  0.00  0.00    +0.000 A 
ATOM     11  C   UNL     1       0.000   1.943   0.000  0.00  0.00    +0.000 A 
ATOM     12 CL   UNL     1       0.711   0.728   0.000  0.00  0.00    +0.000 Cl
ATOM     13  C   UNL     1      -1.421   1.943   0.000  0.00  0.00    +0.000 A 
ATOM     14  C   UNL     1      -0.711   2.363   0.000  0.00  0.00    +0.000 A 
ENDBRANCH   1   8
BRANCH   2  15
ATOM     15  C   UNL     1       0.711  -0.693   0.000  0.00  0.00    +0.000 C 
ATOM     16  O   UNL     1       0.711   0.103   0.000  0.00  0.00    +0.000 OA
BRANCH  15  17
ATOM     17  O   UNL     1       1.421  -1.112   0.000  0.00  0.00    +0.000 OA
BRANCH  17  18
ATOM     18  C   UNL     1       2.132  -0.693   0.000  0.00  0.00    +0.000 C 
ATOM     19  C   UNL     1       2.842  -1.112   0.000  0.00  0.00    +0.000 C 
ENDBRANCH  17  18
ENDBRANCH  15  17
ENDBRANCH   2  15
BRANCH   3  20
ATOM     20  C   UNL     1      -2.132  -0.735   0.000  0.00  0.00    +0.000 C 
ATOM     21  O   UNL     1      -2.132   0.103   0.000  0.00  0.00    +0.000 OA
BRANCH  20  22
ATOM     22  O   UNL     1      -2.842  -1.112   0.000  0.00  0.00    +0.000 OA
ATOM     23  C   UNL     1      -3.553  -0.735   0.000  0.00  0.00    +0.000 C 
ENDBRANCH  20  22
ENDBRANCH   3  20
BRANCH   4  24
ATOM     24  C   UNL     1       0.711  -2.363   0.000  0.00  0.00    +0.000 C 
BRANCH  24  25
ATOM     25  O   UNL     1       1.421  -1.943   0.000  0.00  0.00    +0.000 OA
BRANCH  25  26
ATOM     26  C   UNL     1       2.132  -2.363   0.000  0.00  0.00    +0.000 C 
BRANCH  26  27
ATOM     27  C   UNL     1       2.842  -1.943   0.000  0.00  0.00    +0.000 C 
ATOM     28  N   UNL     1       3.553  -2.363   0.000  0.00  0.00    +0.000 NA
ENDBRANCH  26  27
ENDBRANCH  25  26
ENDBRANCH  24  25
ENDBRANCH   4  24
TORSDOF 10
