REMARK  Name = 
REMARK  10 active torsions:
REMARK  status: ('A' for Active; 'I' for Inactive)
REMARK    1  A    between atoms: C_6  and  C_7
REMARK    2  A    between atoms: C_7  and  C_8
REMARK    3  A    between atoms: C_8  and  C_9
REMARK    4  A    between atoms: C_9  and  C_10
REMARK    5  A    between atoms: C_10  and  C_11
REMARK    6  A    between atoms: C_11  and  C_12
REMARK    7  A    between atoms: C_12  and  C_13
REMARK    8  A    between atoms: C_13  and  O_14
REMARK    9  A    between atoms: O_14  and  C_15
REMARK   10  A    between atoms: C_18  and  C_21
REMARK                            x       y       z     vdW  Elec       q    Type
REMARK                         _______ _______ _______ _____ _____    ______ ____
ROOT
ATOM      1  C   UNL     1       0.714   0.412   0.000  0.00  0.00    +0.000 C 
ENDROOT
BRANCH   1   2
ATOM      2  C   UNL     1       0.000   0.825   0.000  0.00  0.00    +0.000 C 
BRANCH   2   3
ATOM      3  C   UNL     1      -0.714   0.412   0.000  0.00  0.00    +0.000 C 
BRANCH   3   4
ATOM      4  C   UNL     1      -1.429   0.825   0.000  0.00  0.00    +0.000 C 
BRANCH   4   5
ATOM      5  C   UNL     1      -2.143   0.412   0.000  0.00  0.00    +0.000 C 
BRANCH   5   6
ATOM      6  C   UNL     1      -2.858   0.825   0.000  0.00  0.00    +0.000 C 
BRANCH   6   7
ATOM      7  C   UNL     1      -3.572   0.412   0.000  0.00  0.00    +0.000 C 
BRANCH   7  13
ATOM      8  O   UNL     1      -4.373   1.645   0.000  0.00  0.00    +0.000 OA
ATOM      9  N   UNL     1      -5.180   1.817   0.000  0.00  0.00    +0.000 NA
ATOM     10  C   UNL     1      -5.593   1.103   0.000  0.00  0.00    +0.000 A 
ATOM     11  C   UNL     1      -6.413   1.016   0.000  0.00  0.00    +0.000 C 
ATOM     12  C   UNL     1      -5.040   0.489   0.000  0.00  0.00    +0.000 A 
ATOM     13  C   UNL     1      -4.287   0.825   0.000  0.00  0.00    +0.000 A 
ENDBRANCH   7  13
ENDBRANCH   6   7
ENDBRANCH   5   6
ENDBRANCH   4   5
ENDBRANCH   3   4
ENDBRANCH   2   3
ENDBRANCH   1   2
BRANCH   1  14
ATOM     14  O   UNL     1       1.429   0.825   0.000  0.00  0.00    +0.000 OA
BRANCH  14  15
ATOM     15  C   UNL     1       2.143   0.412   0.000  0.00  0.00    +0.000 A 
ATOM     16  C   UNL     1       2.858   0.825   0.000  0.00  0.00    +0.000 A 
ATOM     17  C   UNL     1       3.572   0.412   0.000  0.00  0.00    +0.000 A 
ATOM     18  C   UNL     1       3.572  -0.412   0.000  0.00  0.00    +0.000 A 
ATOM     19  C   UNL     1       2.858  -0.825   0.000  0.00  0.00    +0.000 A 
ATOM     20  C   UNL     1       2.143  -0.412   0.000  0.00  0.00    +0.000 A 
BRANCH  18  21
ATOM     21  C   UNL     1       4.287  -0.825   0.000  0.00  0.00    +0.000 C 
ATOM     22  N   UNL     1       5.040  -0.489   0.000  0.00  0.00    +0.000 NA
ATOM     23  C   UNL     1       5.593  -1.103   0.000  0.00  0.00    +0.000 C 
ATOM     24  C   UNL     1       6.413  -1.016   0.000  0.00  0.00    +0.000 C 
ATOM     25  C   UNL     1       5.180  -1.817   0.000  0.00  0.00    +0.000 C 
ATOM     26  O   UNL     1       4.373  -1.645   0.000  0.00  0.00    +0.000 OA
ENDBRANCH  18  21
ENDBRANCH  14  15
ENDBRANCH   1  14
TORSDOF 10
