REMARK  Name = 
REMARK  6 active torsions:
REMARK  status: ('A' for Active; 'I' for Inactive)
REMARK    1  A    between atoms: C_5  and  N_7
REMARK    2  A    between atoms: C_6  and  C_18
REMARK    3  A    between atoms: N_7  and  C_8
REMARK    4  A    between atoms: C_12  and  C_14
REMARK    5  A    between atoms: C_18  and  O_19
REMARK    6  A    between atoms: O_19  and  C_21
REMARK                            x       y       z     vdW  Elec       q    Type
REMARK                         _______ _______ _______ _____ _____    ______ ____
ROOT
ATOM      1  C   UNL     1      -2.856  -1.568   0.000  0.00  0.00    +0.000 A 
ATOM      2  C   UNL     1      -2.856  -2.393   0.000  0.00  0.00    +0.000 A 
ATOM      3  C   UNL     1      -2.142  -2.806   0.000  0.00  0.00    +0.000 A 
ATOM      4  N   UNL     1      -1.427  -2.393   0.000  0.00  0.00    +0.000 NA
ATOM      5  C   UNL     1      -1.427  -1.568   0.000  0.00  0.00    +0.000 A 
ATOM      6  C   UNL     1      -2.142  -1.156   0.000  0.00  0.00    +0.000 A 
ENDROOT
BRANCH   6   7
ATOM      7  C   UNL     1      -2.142  -0.331   0.000  0.00  0.00    +0.000 C 
ATOM      8  O   UNL     1      -2.866   0.087   0.000  0.00  0.00    +0.000 OA
BRANCH   7   9
ATOM      9  O   UNL     1      -1.437   0.076   0.000  0.00  0.00    +0.000 OA
BRANCH   9  10
ATOM     10  C   UNL     1      -1.437   0.901   0.000  0.00  0.00    +0.000 C 
ATOM     11  C   UNL     1      -0.778   1.380   0.000  0.00  0.00    +0.000 A 
ATOM     12  C   UNL     1      -1.030   2.155   0.000  0.00  0.00    +0.000 A 
ATOM     13  C   UNL     1      -1.845   2.155   0.000  0.00  0.00    +0.000 C 
ATOM     14  O   UNL     1      -2.097   1.380   0.000  0.00  0.00    +0.000 OA
ATOM     15  C   UNL     1       0.029   1.209   0.000  0.00  0.00    +0.000 A 
ATOM     16  C   UNL     1       0.581   1.822   0.000  0.00  0.00    +0.000 A 
ATOM     17  C   UNL     1       0.329   2.597   0.000  0.00  0.00    +0.000 A 
ATOM     18  C   UNL     1      -0.478   2.768   0.000  0.00  0.00    +0.000 A 
ATOM     19  O   UNL     1      -2.318   2.806   0.000  0.00  0.00    +0.000 OA
ENDBRANCH   9  10
ENDBRANCH   7   9
ENDBRANCH   6   7
BRANCH   5  20
ATOM     20  N   UNL     1      -0.702  -1.149   0.000  0.00  0.00    +0.000 NA
BRANCH  20  21
ATOM     21  C   UNL     1       0.008  -1.559   0.000  0.00  0.00    +0.000 A 
ATOM     22  C   UNL     1       0.009  -2.393   0.000  0.00  0.00    +0.000 A 
ATOM     23  C   UNL     1       0.723  -2.805   0.000  0.00  0.00    +0.000 A 
ATOM     24  C   UNL     1       1.438  -2.393   0.000  0.00  0.00    +0.000 A 
ATOM     25  C   UNL     1       1.437  -1.559   0.000  0.00  0.00    +0.000 A 
ATOM     26  C   UNL     1       0.723  -1.147   0.000  0.00  0.00    +0.000 A 
BRANCH  25  27
ATOM     27  C   UNL     1       2.152  -1.146   0.000  0.00  0.00    +0.000 C 
ATOM     28  F   UNL     1       1.739  -0.432   0.000  0.00  0.00    +0.000 F 
ATOM     29  F   UNL     1       2.564  -1.861   0.000  0.00  0.00    +0.000 F 
ATOM     30  F   UNL     1       2.866  -0.734   0.000  0.00  0.00    +0.000 F 
ENDBRANCH  25  27
ENDBRANCH  20  21
ENDBRANCH   5  20
TORSDOF 6
