REMARK  Name = 
REMARK  6 active torsions:
REMARK  status: ('A' for Active; 'I' for Inactive)
REMARK    1  A    between atoms: C_2  and  C_5
REMARK    2  A    between atoms: C_5  and  C_7
REMARK    3  A    between atoms: C_7  and  C_10
REMARK    4  A    between atoms: C_10  and  C_11
REMARK    5  A    between atoms: C_11  and  C_12
REMARK    6  A    between atoms: C_12  and  N_13
REMARK                            x       y       z     vdW  Elec       q    Type
REMARK                         _______ _______ _______ _____ _____    ______ ____
ROOT
ATOM      1  N   UNL     1       2.858  -3.300   0.000  0.00  0.00    +0.000 N 
ATOM      2  C   UNL     1       2.858  -2.475   0.000  0.00  0.00    +0.000 A 
ATOM      3  O   UNL     1       2.143  -2.062   0.000  0.00  0.00    +0.000 OA
ATOM      4  N   UNL     1       3.572  -2.062   0.000  0.00  0.00    +0.000 N 
ATOM      5  C   UNL     1       3.572  -1.238   0.000  0.00  0.00    +0.000 C 
ATOM      6  C   UNL     1       4.287  -2.475   0.000  0.00  0.00    +0.000 A 
ATOM      7  C   UNL     1       4.287  -3.300   0.000  0.00  0.00    +0.000 A 
ATOM      8  N   UNL     1       5.071  -3.555   0.000  0.00  0.00    +0.000 N 
ATOM      9  C   UNL     1       5.326  -4.340   0.000  0.00  0.00    +0.000 C 
ATOM     10  C   UNL     1       5.556  -2.888   0.000  0.00  0.00    +0.000 A 
ATOM     11  N   UNL     1       5.071  -2.220   0.000  0.00  0.00    +0.000 NA
ATOM     12  C   UNL     1       3.572  -3.712   0.000  0.00  0.00    +0.000 A 
ATOM     13  O   UNL     1       3.572  -4.537   0.000  0.00  0.00    +0.000 OA
ENDROOT
BRANCH   1  14
ATOM     14  C   UNL     1       2.143  -3.712   0.000  0.00  0.00    +0.000 C 
BRANCH  14  15
ATOM     15  C   UNL     1       1.429  -3.300   0.000  0.00  0.00    +0.000 C 
BRANCH  15  16
ATOM     16  C   UNL     1       0.715  -3.712   0.000  0.00  0.00    +0.000 C 
BRANCH  16  17
ATOM     17  C   UNL     1       0.000  -3.300   0.000  0.00  0.00    +0.000 C 
ATOM     18  H   UNL     1       0.370  -2.563   0.000  0.00  0.00    +0.000 HD
ATOM     19  H   UNL     1      -0.370  -2.563   0.000  0.00  0.00    +0.000 HD
BRANCH  17  20
ATOM     20  C   UNL     1      -0.715  -3.712   0.000  0.00  0.00    +0.000 C 
ATOM     21  O   UNL     1      -0.715  -4.537   0.000  0.00  0.00    +0.000 OA
BRANCH  20  23
ATOM     22  H   UNL     1      -1.016  -2.586   0.000  0.00  0.00    +0.000 HD
ATOM     23  C   UNL     1      -1.429  -3.300   0.000  0.00  0.00    +0.000 C 
ATOM     24  H   UNL     1      -2.143  -2.888   0.000  0.00  0.00    +0.000 HD
ATOM     25  H   UNL     1      -1.841  -4.014   0.000  0.00  0.00    +0.000 HD
ENDBRANCH  20  23
ENDBRANCH  17  20
ENDBRANCH  16  17
ENDBRANCH  15  16
ENDBRANCH  14  15
ENDBRANCH   1  14
TORSDOF 6
