REMARK  Name = 
REMARK  4 active torsions:
REMARK  status: ('A' for Active; 'I' for Inactive)
REMARK    1  A    between atoms: C_2  and  C_3
REMARK    2  A    between atoms: C_3  and  O_4
REMARK    3  A    between atoms: O_4  and  C_5
REMARK    4  A    between atoms: C_5  and  C_7
REMARK                            x       y       z     vdW  Elec       q    Type
REMARK                         _______ _______ _______ _____ _____    ______ ____
ROOT
ATOM      1  C   UNL     1       3.572  -2.888   0.000  0.00  0.00    +0.000 A 
ATOM      2  C   UNL     1       4.287  -2.475   0.000  0.00  0.00    +0.000 A 
ATOM      3  C   UNL     1       5.001  -2.888   0.000  0.00  0.00    +0.000 A 
ATOM      4  C   UNL     1       5.001  -3.712   0.000  0.00  0.00    +0.000 A 
ATOM      5  C   UNL     1       4.287  -4.125   0.000  0.00  0.00    +0.000 A 
ATOM      6  C   UNL     1       3.572  -3.712   0.000  0.00  0.00    +0.000 A 
ATOM      7  O   UNL     1       2.858  -4.125   0.000  0.00  0.00    +0.000 OA
ENDROOT
BRANCH   1   8
ATOM      8  C   UNL     1       2.858  -2.475   0.000  0.00  0.00    +0.000 C 
ATOM      9  O   UNL     1       2.858  -1.650   0.000  0.00  0.00    +0.000 OA
BRANCH   8  10
ATOM     10  O   UNL     1       2.143  -2.888   0.000  0.00  0.00    +0.000 OA
BRANCH  10  11
ATOM     11  C   UNL     1       1.429  -2.475   0.000  0.00  0.00    +0.000 C 
BRANCH  11  13
ATOM     12  O   UNL     1       0.000  -2.475   0.000  0.00  0.00    +0.000 OA
ATOM     13  C   UNL     1       0.715  -2.888   0.000  0.00  0.00    +0.000 C 
ENDBRANCH  11  13
ENDBRANCH  10  11
ENDBRANCH   8  10
ENDBRANCH   1   8
TORSDOF 4
