REMARK  Name = 
REMARK  8 active torsions:
REMARK  status: ('A' for Active; 'I' for Inactive)
REMARK    1  A    between atoms: C_4  and  C_20
REMARK    2  A    between atoms: C_6  and  O_8
REMARK    3  A    between atoms: O_8  and  C_9
REMARK    4  A    between atoms: C_9  and  C_10
REMARK    5  A    between atoms: C_10  and  C_11
REMARK    6  A    between atoms: C_11  and  C_12
REMARK    7  A    between atoms: C_12  and  C_13
REMARK    8  A    between atoms: C_13  and  N_14
REMARK                            x       y       z     vdW  Elec       q    Type
REMARK                         _______ _______ _______ _____ _____    ______ ____
ROOT
ATOM      1  C   UNL     1       0.000  -5.775   0.000  0.00  0.00    +0.000 C 
ATOM      2  C   UNL     1       0.000  -4.950   0.000  0.00  0.00    +0.000 A 
ATOM      3  N   UNL     1      -0.715  -4.537   0.000  0.00  0.00    +0.000 NA
ATOM      4  C   UNL     1      -0.715  -3.712   0.000  0.00  0.00    +0.000 A 
ATOM      5  C   UNL     1       0.000  -3.300   0.000  0.00  0.00    +0.000 A 
ATOM      6  C   UNL     1       0.715  -3.712   0.000  0.00  0.00    +0.000 A 
ATOM      7  N   UNL     1       0.715  -4.537   0.000  0.00  0.00    +0.000 NA
ENDROOT
BRANCH   4   8
ATOM      8  C   UNL     1      -1.429  -3.300   0.000  0.00  0.00    +0.000 A 
ATOM      9  C   UNL     1      -2.143  -3.712   0.000  0.00  0.00    +0.000 A 
ATOM     10  C   UNL     1      -2.858  -3.300   0.000  0.00  0.00    +0.000 A 
ATOM     11  C   UNL     1      -2.858  -2.475   0.000  0.00  0.00    +0.000 A 
ATOM     12  C   UNL     1      -2.143  -2.062   0.000  0.00  0.00    +0.000 A 
ATOM     13  C   UNL     1      -1.429  -2.475   0.000  0.00  0.00    +0.000 A 
ATOM     14  F   UNL     1      -3.572  -2.062   0.000  0.00  0.00    +0.000 F 
ENDBRANCH   4   8
BRANCH   6  15
ATOM     15  O   UNL     1       1.429  -3.300   0.000  0.00  0.00    +0.000 OA
BRANCH  15  16
ATOM     16  C   UNL     1       2.143  -3.712   0.000  0.00  0.00    +0.000 C 
BRANCH  16  17
ATOM     17  C   UNL     1       2.858  -3.300   0.000  0.00  0.00    +0.000 C 
BRANCH  17  18
ATOM     18  C   UNL     1       3.572  -3.712   0.000  0.00  0.00    +0.000 C 
BRANCH  18  19
ATOM     19  C   UNL     1       4.287  -3.300   0.000  0.00  0.00    +0.000 C 
BRANCH  19  20
ATOM     20  C   UNL     1       5.001  -3.712   0.000  0.00  0.00    +0.000 C 
BRANCH  20  21
ATOM     21  N   UNL     1       5.716  -3.300   0.000  0.00  0.00    +0.000 NA
ATOM     22  C   UNL     1       5.716  -2.475   0.000  0.00  0.00    +0.000 C 
ATOM     23  C   UNL     1       6.430  -2.062   0.000  0.00  0.00    +0.000 C 
ATOM     24  C   UNL     1       7.145  -2.475   0.000  0.00  0.00    +0.000 C 
ATOM     25  C   UNL     1       7.145  -3.300   0.000  0.00  0.00    +0.000 C 
ATOM     26  C   UNL     1       6.430  -3.712   0.000  0.00  0.00    +0.000 C 
ENDBRANCH  20  21
ENDBRANCH  19  20
ENDBRANCH  18  19
ENDBRANCH  17  18
ENDBRANCH  16  17
ENDBRANCH  15  16
ENDBRANCH   6  15
TORSDOF 8
