REMARK  Name = 
REMARK  5 active torsions:
REMARK  status: ('A' for Active; 'I' for Inactive)
REMARK    1  A    between atoms: C_21  and  O_22
REMARK    2  A    between atoms: O_22  and  C_25
REMARK    3  A    between atoms: C_25  and  C_27
REMARK    4  A    between atoms: C_27  and  C_28
REMARK    5  A    between atoms: C_28  and  C_32
REMARK                            x       y       z     vdW  Elec       q    Type
REMARK                         _______ _______ _______ _____ _____    ______ ____
ROOT
ATOM      1  C   UNL     1      -1.886  -2.376   0.000  0.00  0.00    +0.000 C 
ATOM      2  C   UNL     1      -2.601  -1.964   0.000  0.00  0.00    +0.000 C 
ATOM      3  C   UNL     1      -1.172  -1.964   0.000  0.00  0.00    +0.000 C 
ATOM      4  C   UNL     1      -2.601  -1.139   0.000  0.00  0.00    +0.000 C 
ATOM      5  C   UNL     1      -1.886  -0.726   0.000  0.00  0.00    +0.000 C 
ATOM      6  C   UNL     1      -1.172  -1.139   0.000  0.00  0.00    +0.000 C 
ATOM      7  C   UNL     1      -3.315  -0.726   0.000  0.00  0.00    +0.000 C 
ATOM      8  C   UNL     1      -4.030  -1.139   0.000  0.00  0.00    +0.000 C 
ATOM      9  C   UNL     1      -3.315  -2.376   0.000  0.00  0.00    +0.000 C 
ATOM     10  C   UNL     1      -1.886   0.099   0.000  0.00  0.00    +0.000 C 
ATOM     11  C   UNL     1      -1.172   0.511   0.000  0.00  0.00    +0.000 C 
ATOM     12  C   UNL     1       0.327  -0.981   0.000  0.00  0.00    +0.000 C 
ATOM     13  C   UNL     1       0.812  -0.314   0.000  0.00  0.00    +0.000 C 
ATOM     14  C   UNL     1      -0.457  -0.726   0.000  0.00  0.00    +0.000 C 
ATOM     15  C   UNL     1      -0.457   0.099   0.000  0.00  0.00    +0.000 C 
ATOM     16  C   UNL     1      -2.601  -0.314   0.000  0.00  0.00    +0.000 C 
ATOM     17  C   UNL     1      -0.457   0.924   0.000  0.00  0.00    +0.000 C 
ATOM     18  C   UNL     1       0.327   0.354   0.000  0.00  0.00    +0.000 C 
ATOM     19  C   UNL     1      -4.030  -1.964   0.000  0.00  0.00    +0.000 C 
ATOM     20  O   UNL     1      -4.744  -2.376   0.000  0.00  0.00    +0.000 OA
ENDROOT
BRANCH  18  21
ATOM     21  O   UNL     1       0.582   1.138   0.000  0.00  0.00    +0.000 OA
BRANCH  21  22
ATOM     22  C   UNL     1       1.297   1.551   0.000  0.00  0.00    +0.000 C 
ATOM     23  O   UNL     1       1.297   2.376   0.000  0.00  0.00    +0.000 OA
BRANCH  22  24
ATOM     24  C   UNL     1       2.011   1.138   0.000  0.00  0.00    +0.000 C 
BRANCH  24  25
ATOM     25  C   UNL     1       2.725   1.551   0.000  0.00  0.00    +0.000 C 
BRANCH  25  29
ATOM     26  C   UNL     1       4.328   0.142   0.000  0.00  0.00    +0.000 C 
ATOM     27  C   UNL     1       4.744   0.855   0.000  0.00  0.00    +0.000 C 
ATOM     28  C   UNL     1       4.195   1.470   0.000  0.00  0.00    +0.000 C 
ATOM     29  C   UNL     1       3.440   1.138   0.000  0.00  0.00    +0.000 C 
ATOM     30  C   UNL     1       3.522   0.318   0.000  0.00  0.00    +0.000 C 
ENDBRANCH  25  29
ENDBRANCH  24  25
ENDBRANCH  22  24
ENDBRANCH  21  22
ENDBRANCH  18  21
TORSDOF 5
