REMARK  Name = 
REMARK  6 active torsions:
REMARK  status: ('A' for Active; 'I' for Inactive)
REMARK    1  A    between atoms: C_3  and  C_15
REMARK    2  A    between atoms: C_5  and  O_7
REMARK    3  A    between atoms: O_7  and  C_8
REMARK    4  A    between atoms: C_8  and  C_9
REMARK    5  A    between atoms: C_15  and  C_16
REMARK    6  A    between atoms: C_16  and  C_17
REMARK                            x       y       z     vdW  Elec       q    Type
REMARK                         _______ _______ _______ _____ _____    ______ ____
ROOT
ATOM      1  C   UNL     1       0.715  -3.712   0.000  0.00  0.00    +0.000 A 
ATOM      2  C   UNL     1       0.000  -4.125   0.000  0.00  0.00    +0.000 A 
ATOM      3  C   UNL     1      -0.715  -3.712   0.000  0.00  0.00    +0.000 A 
ATOM      4  C   UNL     1      -0.715  -2.888   0.000  0.00  0.00    +0.000 A 
ATOM      5  C   UNL     1       0.000  -2.475   0.000  0.00  0.00    +0.000 A 
ATOM      6  C   UNL     1       0.715  -2.888   0.000  0.00  0.00    +0.000 A 
ENDROOT
BRANCH   3   7
ATOM      7  C   UNL     1      -1.429  -4.125   0.000  0.00  0.00    +0.000 C 
ATOM      8  O   UNL     1      -2.143  -3.712   0.000  0.00  0.00    +0.000 OA
BRANCH   7   9
ATOM      9  C   UNL     1      -1.429  -4.950   0.000  0.00  0.00    +0.000 C 
BRANCH   9  10
ATOM     10  C   UNL     1      -2.143  -5.362   0.000  0.00  0.00    +0.000 C 
ATOM     11  N   UNL     1      -2.143  -6.188   0.000  0.00  0.00    +0.000 NA
ENDBRANCH   9  10
ENDBRANCH   7   9
ENDBRANCH   3   7
BRANCH   5  12
ATOM     12  O   UNL     1       0.000  -1.650   0.000  0.00  0.00    +0.000 OA
BRANCH  12  13
ATOM     13  C   UNL     1       0.715  -1.238   0.000  0.00  0.00    +0.000 C 
BRANCH  13  14
ATOM     14  C   UNL     1       0.715  -0.412   0.000  0.00  0.00    +0.000 C 
ATOM     15  C   UNL     1       0.000   0.000   0.000  0.00  0.00    +0.000 C 
ATOM     16  C   UNL     1       0.000   0.825   0.000  0.00  0.00    +0.000 C 
ATOM     17  C   UNL     1       0.715   1.238   0.000  0.00  0.00    +0.000 C 
ATOM     18  C   UNL     1       1.429   0.825   0.000  0.00  0.00    +0.000 C 
ATOM     19  C   UNL     1       1.429   0.000   0.000  0.00  0.00    +0.000 C 
ENDBRANCH  13  14
ENDBRANCH  12  13
ENDBRANCH   5  12
TORSDOF 6
