REMARK  Name = 
REMARK  1 active torsions:
REMARK  status: ('A' for Active; 'I' for Inactive)
REMARK    1  A    between atoms: C_9  and  S_12
REMARK                            x       y       z     vdW  Elec       q    Type
REMARK                         _______ _______ _______ _____ _____    ______ ____
ROOT
ATOM      1  C   UNL     1       0.000  -0.770   0.000  0.00  0.00    +0.000 A 
ATOM      2  C   UNL     1       0.715  -0.357   0.000  0.00  0.00    +0.000 A 
ATOM      3  C   UNL     1      -1.429  -0.770   0.000  0.00  0.00    +0.000 A 
ATOM      4  C   UNL     1      -2.143  -0.357   0.000  0.00  0.00    +0.000 A 
ATOM      5  C   UNL     1      -2.143   0.468   0.000  0.00  0.00    +0.000 A 
ATOM      6  C   UNL     1      -1.429   0.880   0.000  0.00  0.00    +0.000 A 
ATOM      7  C   UNL     1      -0.715   0.468   0.000  0.00  0.00    +0.000 A 
ATOM      8  C   UNL     1       0.000   0.880   0.000  0.00  0.00    +0.000 A 
ATOM      9  C   UNL     1       0.715   0.468   0.000  0.00  0.00    +0.000 A 
ATOM     10  C   UNL     1      -0.715  -0.357   0.000  0.00  0.00    +0.000 A 
ATOM     11  N   UNL     1      -1.429  -1.595   0.000  0.00  0.00    +0.000 NA
ENDROOT
BRANCH   9  12
ATOM     12  S   UNL     1       1.429   0.880   0.000  0.00  0.00    +0.000 S 
ATOM     13  O   UNL     1       1.841   0.166   0.000  0.00  0.00    +0.000 OA
ATOM     14  O   UNL     1       1.016   1.595   0.000  0.00  0.00    +0.000 OA
ATOM     15  O   UNL     1       2.143   1.293   0.000  0.00  0.00    +0.000 OA
ENDBRANCH   9  12
TORSDOF 1
