REMARK  Name = 
REMARK  2 active torsions:
REMARK  status: ('A' for Active; 'I' for Inactive)
REMARK    1  A    between atoms: N_12  and  C_16
REMARK    2  A    between atoms: C_16  and  C_17
REMARK                            x       y       z     vdW  Elec       q    Type
REMARK                         _______ _______ _______ _____ _____    ______ ____
ROOT
ATOM      1  C   UNL     1      -1.136  -0.281   0.000  0.00  0.00    +0.000 A 
ATOM      2  C   UNL     1      -1.889   0.056   0.000  0.00  0.00    +0.000 A 
ATOM      3  C   UNL     1      -1.973   0.877   0.000  0.00  0.00    +0.000 A 
ATOM      4  C   UNL     1      -1.304   1.360   0.000  0.00  0.00    +0.000 A 
ATOM      5  N   UNL     1      -1.172   2.174   0.000  0.00  0.00    +0.000 NA
ATOM      6  C   UNL     1      -0.351   2.258   0.000  0.00  0.00    +0.000 A 
ATOM      7  C   UNL     1      -0.551   1.022   0.000  0.00  0.00    +0.000 A 
ATOM      8  N   UNL     1       0.118   1.505   0.000  0.00  0.00    +0.000 N 
ATOM      9  C   UNL     1       0.918   1.303   0.000  0.00  0.00    +0.000 C 
ATOM     10  C   UNL     1       1.277   0.561   0.000  0.00  0.00    +0.000 C 
ATOM     11  C   UNL     1      -0.467   0.201   0.000  0.00  0.00    +0.000 A 
ATOM     12  N   UNL     1       0.939  -0.192   0.000  0.00  0.00    +0.000 NA
ATOM     13  C   UNL     1       0.146  -0.417   0.000  0.00  0.00    +0.000 C 
ATOM     14  S   UNL     1       0.012   2.999   0.000  0.00  0.00    +0.000 S 
ATOM     15  C   UNL     1       2.102   0.573   0.000  0.00  0.00    +0.000 C 
ATOM     16 CL   UNL     1      -2.558  -0.427   0.000  0.00  0.00    +0.000 Cl
ENDROOT
BRANCH  12  17
ATOM     17  C   UNL     1       1.479  -0.816   0.000  0.00  0.00    +0.000 C 
BRANCH  17  18
ATOM     18  C   UNL     1       1.208  -1.595   0.000  0.00  0.00    +0.000 C 
ATOM     19  C   UNL     1       1.747  -2.220   0.000  0.00  0.00    +0.000 C 
ATOM     20  C   UNL     1       1.476  -2.999   0.000  0.00  0.00    +0.000 C 
ATOM     21  C   UNL     1       2.558  -2.065   0.000  0.00  0.00    +0.000 C 
ENDBRANCH  17  18
ENDBRANCH  12  17
TORSDOF 2
