REMARK  Name = 
REMARK  7 active torsions:
REMARK  status: ('A' for Active; 'I' for Inactive)
REMARK    1  A    between atoms: C_11  and  C_13
REMARK    2  A    between atoms: C_12  and  C_18
REMARK    3  A    between atoms: C_14  and  C_24
REMARK    4  A    between atoms: C_16  and  C_25
REMARK    5  A    between atoms: C_20  and  C_23
REMARK    6  A    between atoms: C_21  and  C_23
REMARK    7  A    between atoms: C_22  and  C_26
REMARK                            x       y       z     vdW  Elec       q    Type
REMARK                         _______ _______ _______ _____ _____    ______ ____
ROOT
ATOM      1  C   UNL     1       0.714   0.825   0.000  0.00  0.00    +0.000 C 
ATOM      2  C   UNL     1       1.429   0.412   0.000  0.00  0.00    +0.000 C 
ENDROOT
BRANCH   2   7
ATOM      3  C   UNL     1       0.714  -1.650   0.000  0.00  0.00    +0.000 A 
ATOM      4  C   UNL     1       0.714  -0.825   0.000  0.00  0.00    +0.000 A 
ATOM      5  C   UNL     1       1.429  -2.062   0.000  0.00  0.00    +0.000 A 
ATOM      6  C   UNL     1       2.143  -0.825   0.000  0.00  0.00    +0.000 A 
ATOM      7  C   UNL     1       1.429  -0.412   0.000  0.00  0.00    +0.000 A 
ATOM      8  C   UNL     1       2.143  -1.650   0.000  0.00  0.00    +0.000 A 
BRANCH   8   9
ATOM      9  C   UNL     1       2.858  -2.062   0.000  0.00  0.00    +0.000 C 
ATOM     10  O   UNL     1       2.858  -2.888   0.000  0.00  0.00    +0.000 OA
ATOM     11  O   UNL     1       3.572  -1.650   0.000  0.00  0.00    +0.000 OA
ENDBRANCH   8   9
ENDBRANCH   2   7
BRANCH   2  14
ATOM     12  C   UNL     1       2.858   0.412   0.000  0.00  0.00    +0.000 C 
ATOM     13  C   UNL     1       2.143   1.650   0.000  0.00  0.00    +0.000 C 
ATOM     14  C   UNL     1       2.143   0.825   0.000  0.00  0.00    +0.000 C 
BRANCH  13  15
ATOM     15  C   UNL     1       1.429   2.062   0.000  0.00  0.00    +0.000 C 
ATOM     16  O   UNL     1       0.714   1.650   0.000  0.00  0.00    +0.000 OA
ATOM     17  O   UNL     1       1.429   2.888   0.000  0.00  0.00    +0.000 OA
ENDBRANCH  13  15
ENDBRANCH   2  14
BRANCH   1  19
ATOM     18  C   UNL     1      -0.714   1.650   0.000  0.00  0.00    +0.000 C 
ATOM     19  C   UNL     1       0.000   0.412   0.000  0.00  0.00    +0.000 C 
ATOM     20  C   UNL     1      -0.714   0.825   0.000  0.00  0.00    +0.000 C 
BRANCH  20  21
ATOM     21  C   UNL     1      -1.429   0.412   0.000  0.00  0.00    +0.000 C 
ATOM     22  C   UNL     1      -1.429  -0.412   0.000  0.00  0.00    +0.000 C 
BRANCH  22  30
ATOM     23  C   UNL     1      -1.429  -2.062   0.000  0.00  0.00    +0.000 C 
ATOM     24  C   UNL     1      -3.388   0.219   0.000  0.00  0.00    +0.000 C 
ATOM     25  C   UNL     1      -2.328   0.219   0.000  0.00  0.00    +0.000 C 
ATOM     26  C   UNL     1      -3.572  -1.650   0.000  0.00  0.00    +0.000 C 
ATOM     27  C   UNL     1      -2.858  -2.062   0.000  0.00  0.00    +0.000 C 
ATOM     28  C   UNL     1      -3.572  -0.825   0.000  0.00  0.00    +0.000 C 
ATOM     29  C   UNL     1      -2.143  -1.650   0.000  0.00  0.00    +0.000 C 
ATOM     30  C   UNL     1      -2.143  -0.825   0.000  0.00  0.00    +0.000 C 
ATOM     31  C   UNL     1      -2.858  -0.412   0.000  0.00  0.00    +0.000 C 
ENDBRANCH  22  30
ENDBRANCH  20  21
ENDBRANCH   1  19
TORSDOF 7
