REMARK  Name = 
REMARK  4 active torsions:
REMARK  status: ('A' for Active; 'I' for Inactive)
REMARK    1  A    between atoms: C_2  and  C_3
REMARK    2  A    between atoms: C_2  and  N_21
REMARK    3  A    between atoms: N_13  and  C_14
REMARK    4  A    between atoms: N_21  and  C_22
REMARK                            x       y       z     vdW  Elec       q    Type
REMARK                         _______ _______ _______ _____ _____    ______ ____
ROOT
ATOM      1  C   UNL     1       5.422  -7.425   0.000  0.00  0.00    +0.000 A 
ATOM      2  C   UNL     1       6.137  -7.838   0.000  0.00  0.00    +0.000 A 
ATOM      3  C   UNL     1       6.137  -8.662   0.000  0.00  0.00    +0.000 A 
ATOM      4  C   UNL     1       6.851  -9.075   0.000  0.00  0.00    +0.000 A 
ATOM      5  C   UNL     1       6.851  -9.900   0.000  0.00  0.00    +0.000 A 
ATOM      6  C   UNL     1       6.137 -10.312   0.000  0.00  0.00    +0.000 A 
ATOM      7  C   UNL     1       5.422  -9.900   0.000  0.00  0.00    +0.000 A 
ATOM      8  C   UNL     1       5.422  -9.075   0.000  0.00  0.00    +0.000 A 
ATOM      9  C   UNL     1       4.708  -8.662   0.000  0.00  0.00    +0.000 A 
ATOM     10  O   UNL     1       3.993  -9.075   0.000  0.00  0.00    +0.000 OA
ATOM     11  N   UNL     1       4.708  -7.838   0.000  0.00  0.00    +0.000 N 
ATOM     12 CL   UNL     1       4.708 -10.312   0.000  0.00  0.00    +0.000 Cl
ENDROOT
BRANCH  11  13
ATOM     13  C   UNL     1       3.993  -7.425   0.000  0.00  0.00    +0.000 A 
ATOM     14  C   UNL     1       3.279  -7.838   0.000  0.00  0.00    +0.000 A 
ATOM     15  C   UNL     1       2.564  -7.425   0.000  0.00  0.00    +0.000 A 
ATOM     16  C   UNL     1       2.564  -6.600   0.000  0.00  0.00    +0.000 A 
ATOM     17  C   UNL     1       3.279  -6.188   0.000  0.00  0.00    +0.000 A 
ATOM     18  C   UNL     1       3.993  -6.600   0.000  0.00  0.00    +0.000 A 
ENDBRANCH  11  13
BRANCH   1  20
ATOM     19  C   UNL     1       6.137  -6.188   0.000  0.00  0.00    +0.000 C 
ATOM     20  C   UNL     1       5.422  -6.600   0.000  0.00  0.00    +0.000 C 
BRANCH  20  21
ATOM     21  N   UNL     1       4.708  -6.188   0.000  0.00  0.00    +0.000 NA
BRANCH  21  22
ATOM     22  C   UNL     1       4.708  -5.362   0.000  0.00  0.00    +0.000 A 
ATOM     23  C   UNL     1       3.993  -4.950   0.000  0.00  0.00    +0.000 A 
ATOM     24  C   UNL     1       3.993  -4.125   0.000  0.00  0.00    +0.000 A 
ATOM     25  N   UNL     1       3.209  -3.870   0.000  0.00  0.00    +0.000 NA
ATOM     26  C   UNL     1       2.724  -4.537   0.000  0.00  0.00    +0.000 A 
ATOM     27  N   UNL     1       3.209  -5.205   0.000  0.00  0.00    +0.000 NA
ATOM     28  N   UNL     1       4.708  -3.712   0.000  0.00  0.00    +0.000 NA
ATOM     29  C   UNL     1       5.422  -4.125   0.000  0.00  0.00    +0.000 A 
ATOM     30  N   UNL     1       5.422  -4.950   0.000  0.00  0.00    +0.000 NA
ENDBRANCH  21  22
ENDBRANCH  20  21
ENDBRANCH   1  20
TORSDOF 4
