REMARK  Name = 
REMARK  10 active torsions:
REMARK  status: ('A' for Active; 'I' for Inactive)
REMARK    1  A    between atoms: C_1  and  C_5
REMARK    2  A    between atoms: C_11  and  C_13
REMARK    3  A    between atoms: C_15  and  C_17
REMARK    4  A    between atoms: C_18  and  C_19
REMARK    5  A    between atoms: C_20  and  C_22
REMARK    6  A    between atoms: C_23  and  C_24
REMARK    7  A    between atoms: C_25  and  C_26
REMARK    8  A    between atoms: C_28  and  C_29
REMARK    9  A    between atoms: C_30  and  C_31
REMARK   10  A    between atoms: C_33  and  C_34
REMARK                            x       y       z     vdW  Elec       q    Type
REMARK                         _______ _______ _______ _____ _____    ______ ____
ROOT
ATOM      1  C   UNL     1       0.541   0.277   0.000  0.00  0.00    +0.000 C 
ATOM      2  C   UNL     1      -0.173   0.690   0.000  0.00  0.00    +0.000 C 
ENDROOT
BRANCH   1   4
ATOM      3  C   UNL     1       1.970   0.277   0.000  0.00  0.00    +0.000 C 
ATOM      4  C   UNL     1       1.256   0.690   0.000  0.00  0.00    +0.000 C 
ATOM      5  C   UNL     1       1.970  -0.548   0.000  0.00  0.00    +0.000 C 
BRANCH   3   7
ATOM      6  C   UNL     1       3.399   0.277   0.000  0.00  0.00    +0.000 C 
ATOM      7  C   UNL     1       2.684   0.690   0.000  0.00  0.00    +0.000 C 
BRANCH   6   9
ATOM      8  C   UNL     1       4.828   0.277   0.000  0.00  0.00    +0.000 C 
ATOM      9  C   UNL     1       4.113   0.690   0.000  0.00  0.00    +0.000 C 
ATOM     10  C   UNL     1       4.828  -0.548   0.000  0.00  0.00    +0.000 C 
BRANCH   8  12
ATOM     11  C   UNL     1       6.257   0.277   0.000  0.00  0.00    +0.000 C 
ATOM     12  C   UNL     1       5.542   0.690   0.000  0.00  0.00    +0.000 C 
BRANCH  11  13
ATOM     13  C   UNL     1       6.971   0.690   0.000  0.00  0.00    +0.000 C 
ATOM     14  C   UNL     1       6.959   1.553   0.000  0.00  0.00    +0.000 C 
ATOM     15  O   UNL     1       6.245   1.142   0.000  0.00  0.00    +0.000 OA
ATOM     16  C   UNL     1       7.684   0.319   0.000  0.00  0.00    +0.000 C 
ATOM     17  C   UNL     1       7.674   1.969   0.000  0.00  0.00    +0.000 C 
ATOM     18  C   UNL     1       6.239   1.965   0.000  0.00  0.00    +0.000 C 
ATOM     19  C   UNL     1       8.394   0.734   0.000  0.00  0.00    +0.000 C 
ATOM     20  C   UNL     1       8.100  -0.391   0.000  0.00  0.00    +0.000 C 
ATOM     21  C   UNL     1       7.272  -0.396   0.000  0.00  0.00    +0.000 C 
ATOM     22  C   UNL     1       8.394   1.557   0.000  0.00  0.00    +0.000 C 
ATOM     23  O   UNL     1       9.103   1.988   0.000  0.00  0.00    +0.000 OA
ENDBRANCH  11  13
ENDBRANCH   8  12
ENDBRANCH   6   9
ENDBRANCH   3   7
ENDBRANCH   1   4
BRANCH   2  24
ATOM     24  C   UNL     1      -0.888   0.277   0.000  0.00  0.00    +0.000 C 
ATOM     25  C   UNL     1      -1.602   0.690   0.000  0.00  0.00    +0.000 C 
ATOM     26  C   UNL     1      -1.602   1.515   0.000  0.00  0.00    +0.000 C 
BRANCH  25  27
ATOM     27  C   UNL     1      -2.317   0.278   0.000  0.00  0.00    +0.000 C 
ATOM     28  C   UNL     1      -3.031   0.690   0.000  0.00  0.00    +0.000 C 
BRANCH  28  29
ATOM     29  C   UNL     1      -3.746   0.278   0.000  0.00  0.00    +0.000 C 
ATOM     30  C   UNL     1      -4.460   0.690   0.000  0.00  0.00    +0.000 C 
ATOM     31  C   UNL     1      -4.460   1.515   0.000  0.00  0.00    +0.000 C 
BRANCH  30  32
ATOM     32  C   UNL     1      -5.175   0.278   0.000  0.00  0.00    +0.000 C 
ATOM     33  C   UNL     1      -5.889   0.690   0.000  0.00  0.00    +0.000 C 
BRANCH  33  34
ATOM     34  C   UNL     1      -6.604   0.278   0.000  0.00  0.00    +0.000 C 
ATOM     35  C   UNL     1      -6.590  -0.567   0.000  0.00  0.00    +0.000 C 
ATOM     36  O   UNL     1      -5.880  -0.147   0.000  0.00  0.00    +0.000 OA
ATOM     37  C   UNL     1      -7.310   0.667   0.000  0.00  0.00    +0.000 C 
ATOM     38  C   UNL     1      -7.300  -0.988   0.000  0.00  0.00    +0.000 C 
ATOM     39  C   UNL     1      -5.870  -0.974   0.000  0.00  0.00    +0.000 C 
ATOM     40  C   UNL     1      -8.030   0.252   0.000  0.00  0.00    +0.000 C 
ATOM     41  C   UNL     1      -7.741   1.382   0.000  0.00  0.00    +0.000 C 
ATOM     42  C   UNL     1      -6.913   1.387   0.000  0.00  0.00    +0.000 C 
ATOM     43  C   UNL     1      -8.024  -0.576   0.000  0.00  0.00    +0.000 C 
ATOM     44  O   UNL     1      -8.734  -0.997   0.000  0.00  0.00    +0.000 OA
ENDBRANCH  33  34
ENDBRANCH  30  32
ENDBRANCH  28  29
ENDBRANCH  25  27
ENDBRANCH   2  24
TORSDOF 10
