REMARK  Name = 
REMARK  8 active torsions:
REMARK  status: ('A' for Active; 'I' for Inactive)
REMARK    1  A    between atoms: O_2  and  C_3
REMARK    2  A    between atoms: C_8  and  O_9
REMARK    3  A    between atoms: O_9  and  C_10
REMARK    4  A    between atoms: C_10  and  C_11
REMARK    5  A    between atoms: C_11  and  C_12
REMARK    6  A    between atoms: C_12  and  O_13
REMARK    7  A    between atoms: O_13  and  C_14
REMARK    8  A    between atoms: C_19  and  O_20
REMARK                            x       y       z     vdW  Elec       q    Type
REMARK                         _______ _______ _______ _____ _____    ______ ____
ROOT
ATOM      1  C   UNL     1      -0.061  -7.332   0.000  0.00  0.00    +0.000 C 
ENDROOT
BRANCH   1   2
ATOM      2  C   UNL     1      -0.847  -7.080   0.000  0.00  0.00    +0.000 C 
BRANCH   2   3
ATOM      3  O   UNL     1      -1.458  -7.635   0.000  0.00  0.00    +0.000 OA
BRANCH   3   9
ATOM      4  C   UNL     1      -2.418  -6.577   0.000  0.00  0.00    +0.000 A 
ATOM      5  C   UNL     1      -3.204  -6.324   0.000  0.00  0.00    +0.000 A 
ATOM      6  C   UNL     1      -3.815  -6.879   0.000  0.00  0.00    +0.000 A 
ATOM      7  C   UNL     1      -3.640  -7.685   0.000  0.00  0.00    +0.000 A 
ATOM      8  C   UNL     1      -2.854  -7.937   0.000  0.00  0.00    +0.000 A 
ATOM      9  C   UNL     1      -2.244  -7.383   0.000  0.00  0.00    +0.000 A 
ATOM     10  N   UNL     1      -4.162  -8.324   0.000  0.00  0.00    +0.000 NA
ATOM     11  C   UNL     1      -4.987  -8.315   0.000  0.00  0.00    +0.000 C 
ATOM     12  C   UNL     1      -5.494  -7.665   0.000  0.00  0.00    +0.000 C 
ATOM     13  C   UNL     1      -6.316  -7.729   0.000  0.00  0.00    +0.000 C 
ATOM     14  C   UNL     1      -6.632  -6.967   0.000  0.00  0.00    +0.000 C 
ATOM     15  C   UNL     1      -7.434  -6.774   0.000  0.00  0.00    +0.000 C 
ATOM     16  C   UNL     1      -6.005  -6.431   0.000  0.00  0.00    +0.000 C 
ATOM     17  N   UNL     1      -5.301  -6.862   0.000  0.00  0.00    +0.000 N 
ATOM     18  C   UNL     1      -4.554  -6.513   0.000  0.00  0.00    +0.000 C 
ATOM     19  O   UNL     1      -4.545  -5.688   0.000  0.00  0.00    +0.000 OA
BRANCH   4  21
ATOM     20  C   UNL     1      -1.022  -6.274   0.000  0.00  0.00    +0.000 C 
ATOM     21  O   UNL     1      -1.807  -6.022   0.000  0.00  0.00    +0.000 OA
ENDBRANCH   4  21
ENDBRANCH   3   9
ENDBRANCH   2   3
ENDBRANCH   1   2
BRANCH   1  22
ATOM     22  C   UNL     1       0.550  -6.778   0.000  0.00  0.00    +0.000 C 
BRANCH  22  23
ATOM     23  O   UNL     1       1.335  -7.030   0.000  0.00  0.00    +0.000 OA
BRANCH  23  24
ATOM     24  C   UNL     1       1.946  -6.476   0.000  0.00  0.00    +0.000 A 
ATOM     25  C   UNL     1       2.732  -6.728   0.000  0.00  0.00    +0.000 A 
ATOM     26  C   UNL     1       3.343  -6.173   0.000  0.00  0.00    +0.000 A 
ATOM     27  C   UNL     1       3.168  -5.367   0.000  0.00  0.00    +0.000 A 
ATOM     28  C   UNL     1       2.383  -5.115   0.000  0.00  0.00    +0.000 A 
ATOM     29  C   UNL     1       1.772  -5.669   0.000  0.00  0.00    +0.000 A 
ATOM     30  C   UNL     1       3.690  -4.728   0.000  0.00  0.00    +0.000 C 
ATOM     31  O   UNL     1       3.340  -3.981   0.000  0.00  0.00    +0.000 OA
ATOM     32  N   UNL     1       4.515  -4.737   0.000  0.00  0.00    +0.000 N 
ATOM     33  C   UNL     1       4.977  -4.054   0.000  0.00  0.00    +0.000 C 
ATOM     34  C   UNL     1       5.770  -4.282   0.000  0.00  0.00    +0.000 C 
ATOM     35  C   UNL     1       6.420  -3.775   0.000  0.00  0.00    +0.000 C 
ATOM     36  C   UNL     1       5.798  -5.106   0.000  0.00  0.00    +0.000 C 
ATOM     37  C   UNL     1       5.022  -5.388   0.000  0.00  0.00    +0.000 C 
ATOM     38  C   UNL     1       4.829  -6.190   0.000  0.00  0.00    +0.000 C 
ATOM     39  N   UNL     1       4.082  -6.540   0.000  0.00  0.00    +0.000 NA
BRANCH  29  40
ATOM     40  O   UNL     1       0.986  -5.417   0.000  0.00  0.00    +0.000 OA
ATOM     41  C   UNL     1       0.375  -5.972   0.000  0.00  0.00    +0.000 C 
ENDBRANCH  29  40
ENDBRANCH  23  24
ENDBRANCH  22  23
ENDBRANCH   1  22
TORSDOF 8
