REMARK  Name = 
REMARK  2 active torsions:
REMARK  status: ('A' for Active; 'I' for Inactive)
REMARK    1  A    between atoms: C_3  and  N_12
REMARK    2  A    between atoms: C_8  and  C_10
REMARK                            x       y       z     vdW  Elec       q    Type
REMARK                         _______ _______ _______ _____ _____    ______ ____
ROOT
ATOM      1  C   UNL     1       0.363   0.835   0.000  0.00  0.00    +0.000 C 
ATOM      2  O   UNL     1       1.072   1.248   0.000  0.00  0.00    +0.000 OA
ATOM      3  C   UNL     1       0.363   0.000   0.000  0.00  0.00    +0.000 C 
ATOM      4  C   UNL     1      -0.354  -0.427   0.000  0.00  0.00    +0.000 C 
ATOM      5  O   UNL     1      -0.346  -1.248   0.000  0.00  0.00    +0.000 OA
ATOM      6  C   UNL     1      -1.072  -0.020   0.000  0.00  0.00    +0.000 C 
ATOM      7  O   UNL     1      -1.781  -0.433   0.000  0.00  0.00    +0.000 OA
ATOM      8  C   UNL     1      -1.072   0.815   0.000  0.00  0.00    +0.000 C 
ATOM      9  O   UNL     1      -0.354   1.242   0.000  0.00  0.00    +0.000 OA
ENDROOT
BRANCH   3  10
ATOM     10  N   UNL     1       1.080  -0.407   0.000  0.00  0.00    +0.000 NA
ATOM     11  C   UNL     1       1.789   0.005   0.000  0.00  0.00    +0.000 C 
ATOM     12  O   UNL     1       1.789   0.841   0.000  0.00  0.00    +0.000 OA
ATOM     13  C   UNL     1       2.506  -0.402   0.000  0.00  0.00    +0.000 C 
ENDBRANCH   3  10
BRANCH   8  14
ATOM     14  C   UNL     1      -1.789   1.223   0.000  0.00  0.00    +0.000 C 
ATOM     15  O   UNL     1      -2.506   0.795   0.000  0.00  0.00    +0.000 OA
ENDBRANCH   8  14
TORSDOF 2
