REMARK  Name = 
REMARK  5 active torsions:
REMARK  status: ('A' for Active; 'I' for Inactive)
REMARK    1  A    between atoms: C_6  and  C_8
REMARK    2  A    between atoms: C_18  and  C_19
REMARK    3  A    between atoms: C_18  and  C_26
REMARK    4  A    between atoms: C_20  and  C_24
REMARK    5  A    between atoms: C_22  and  C_24
REMARK                            x       y       z     vdW  Elec       q    Type
REMARK                         _______ _______ _______ _____ _____    ______ ____
ROOT
ATOM      1  C   UNL     1      -1.464   1.734   0.000  0.00  0.00    +0.000 C 
ATOM      2  C   UNL     1      -1.464   0.084   0.000  0.00  0.00    +0.000 C 
ATOM      3  C   UNL     1       0.035   0.241   0.000  0.00  0.00    +0.000 C 
ATOM      4  C   UNL     1       0.520   0.909   0.000  0.00  0.00    +0.000 C 
ATOM      5  C   UNL     1      -2.179   1.321   0.000  0.00  0.00    +0.000 C 
ATOM      6  C   UNL     1      -1.464  -0.741   0.000  0.00  0.00    +0.000 C 
ATOM      7  C   UNL     1      -2.179   0.496   0.000  0.00  0.00    +0.000 C 
ATOM      8  C   UNL     1       0.035   1.576   0.000  0.00  0.00    +0.000 C 
ATOM      9  C   UNL     1      -0.750   0.496   0.000  0.00  0.00    +0.000 C 
ATOM     10  C   UNL     1      -0.750   1.321   0.000  0.00  0.00    +0.000 C 
ATOM     11  C   UNL     1      -0.750   2.146   0.000  0.00  0.00    +0.000 C 
ENDROOT
BRANCH   6  12
ATOM     12  C   UNL     1      -2.179  -1.154   0.000  0.00  0.00    +0.000 C 
ATOM     13  C   UNL     1      -2.179  -1.979   0.000  0.00  0.00    +0.000 C 
ATOM     14  C   UNL     1      -1.464  -2.392   0.000  0.00  0.00    +0.000 C 
ATOM     15  C   UNL     1      -2.893  -2.392   0.000  0.00  0.00    +0.000 C 
ATOM     16  C   UNL     1      -1.464  -3.216   0.000  0.00  0.00    +0.000 C 
ATOM     17  C   UNL     1      -0.750  -1.979   0.000  0.00  0.00    +0.000 C 
ATOM     18  C   UNL     1      -2.893  -3.216   0.000  0.00  0.00    +0.000 C 
ATOM     19  C   UNL     1      -2.179  -3.629   0.000  0.00  0.00    +0.000 C 
ATOM     20  O   UNL     1      -3.608  -3.629   0.000  0.00  0.00    +0.000 OA
ATOM     21  O   UNL     1      -0.749  -3.639   0.000  0.00  0.00    +0.000 OA
ENDBRANCH   6  12
BRANCH   8  23
ATOM     22  C   UNL     1      -0.679   2.814   0.000  0.00  0.00    +0.000 C 
ATOM     23  C   UNL     1       0.035   2.401   0.000  0.00  0.00    +0.000 C 
BRANCH  23  24
ATOM     24  C   UNL     1       0.750   2.814   0.000  0.00  0.00    +0.000 C 
ATOM     25  C   UNL     1       1.464   2.401   0.000  0.00  0.00    +0.000 C 
BRANCH  25  26
ATOM     26  C   UNL     1       2.179   2.814   0.000  0.00  0.00    +0.000 C 
ATOM     27  C   UNL     1       2.179   3.639   0.000  0.00  0.00    +0.000 C 
BRANCH  26  29
ATOM     28  C   UNL     1       3.608   2.814   0.000  0.00  0.00    +0.000 C 
ATOM     29  C   UNL     1       2.893   2.401   0.000  0.00  0.00    +0.000 C 
ATOM     30  C   UNL     1       2.893   1.576   0.000  0.00  0.00    +0.000 C 
ENDBRANCH  26  29
ENDBRANCH  25  26
ENDBRANCH  23  24
ENDBRANCH   8  23
TORSDOF 5
