REMARK  Name = 
REMARK  6 active torsions:
REMARK  status: ('A' for Active; 'I' for Inactive)
REMARK    1  A    between atoms: C_9  and  C_12
REMARK    2  A    between atoms: C_15  and  C_16
REMARK    3  A    between atoms: C_16  and  C_17
REMARK    4  A    between atoms: C_17  and  N_18
REMARK    5  A    between atoms: C_17  and  C_28
REMARK    6  A    between atoms: C_19  and  C_21
REMARK                            x       y       z     vdW  Elec       q    Type
REMARK                         _______ _______ _______ _____ _____    ______ ____
ROOT
ATOM      1  C   UNL     1       4.067  -1.523   0.000  0.00  0.00    +0.000 A 
ATOM      2  C   UNL     1       4.781  -1.110   0.000  0.00  0.00    +0.000 A 
ATOM      3  C   UNL     1       5.496  -1.523   0.000  0.00  0.00    +0.000 A 
ATOM      4  C   UNL     1       5.496  -2.348   0.000  0.00  0.00    +0.000 A 
ATOM      5  C   UNL     1       4.781  -2.760   0.000  0.00  0.00    +0.000 A 
ATOM      6  C   UNL     1       4.067  -2.348   0.000  0.00  0.00    +0.000 A 
ENDROOT
BRANCH   1  15
ATOM      7  C   UNL     1       0.884  -2.150   0.000  0.00  0.00    +0.000 C 
ATOM      8  N   UNL     1       1.139  -1.365   0.000  0.00  0.00    +0.000 N 
ATOM      9  C   UNL     1       0.654  -0.698   0.000  0.00  0.00    +0.000 A 
ATOM     10  O   UNL     1      -0.171  -0.698   0.000  0.00  0.00    +0.000 OA
ATOM     11  O   UNL     1       1.139  -0.030   0.000  0.00  0.00    +0.000 OA
ATOM     12  C   UNL     1       1.923  -0.285   0.000  0.00  0.00    +0.000 A 
ATOM     13  C   UNL     1       2.638   0.127   0.000  0.00  0.00    +0.000 A 
ATOM     14  C   UNL     1       3.352  -0.285   0.000  0.00  0.00    +0.000 A 
ATOM     15  C   UNL     1       3.352  -1.110   0.000  0.00  0.00    +0.000 A 
ATOM     16  C   UNL     1       2.638  -1.523   0.000  0.00  0.00    +0.000 A 
ATOM     17  C   UNL     1       1.923  -1.110   0.000  0.00  0.00    +0.000 A 
ENDBRANCH   1  15
BRANCH   4  18
ATOM     18  C   UNL     1       6.210  -2.760   0.000  0.00  0.00    +0.000 C 
BRANCH  18  19
ATOM     19  C   UNL     1       6.925  -2.348   0.000  0.00  0.00    +0.000 C 
BRANCH  19  20
ATOM     20  N   UNL     1       7.639  -2.760   0.000  0.00  0.00    +0.000 NA
ATOM     21  C   UNL     1       8.354  -2.348   0.000  0.00  0.00    +0.000 C 
ATOM     22  O   UNL     1       8.354  -1.523   0.000  0.00  0.00    +0.000 OA
BRANCH  21  23
ATOM     23  C   UNL     1       9.068  -2.760   0.000  0.00  0.00    +0.000 C 
ATOM     24  C   UNL     1       9.750  -2.296   0.000  0.00  0.00    +0.000 C 
ATOM     25  N   UNL     1      10.538  -2.539   0.000  0.00  0.00    +0.000 NA
ATOM     26  C   UNL     1      10.839  -3.307   0.000  0.00  0.00    +0.000 C 
ATOM     27  C   UNL     1      10.427  -4.021   0.000  0.00  0.00    +0.000 C 
ATOM     28  C   UNL     1       9.611  -4.144   0.000  0.00  0.00    +0.000 C 
ATOM     29  O   UNL     1       9.006  -3.583   0.000  0.00  0.00    +0.000 OA
ENDBRANCH  21  23
ENDBRANCH  19  20
BRANCH  19  30
ATOM     30  C   UNL     1       6.925  -1.523   0.000  0.00  0.00    +0.000 C 
ATOM     31  N   UNL     1       6.925  -0.698   0.000  0.00  0.00    +0.000 NA
ENDBRANCH  19  30
ENDBRANCH  18  19
ENDBRANCH   4  18
TORSDOF 6
