REMARK  Name = 
REMARK  3 active torsions:
REMARK  status: ('A' for Active; 'I' for Inactive)
REMARK    1  A    between atoms: C_10  and  N_16
REMARK    2  A    between atoms: C_13  and  N_24
REMARK    3  A    between atoms: N_17  and  C_18
REMARK                            x       y       z     vdW  Elec       q    Type
REMARK                         _______ _______ _______ _____ _____    ______ ____
ROOT
ATOM      1  C   UNL     1       0.774   0.833   0.000  0.00  0.00    +0.000 A 
ATOM      2  C   UNL     1       0.774   1.690   0.000  0.00  0.00    +0.000 A 
ATOM      3  N   UNL     1       1.553   1.924   0.000  0.00  0.00    +0.000 NA
ATOM      4  N   UNL     1       1.553   0.600   0.000  0.00  0.00    +0.000 NA
ATOM      5  C   UNL     1       2.046   1.275   0.000  0.00  0.00    +0.000 A 
ATOM      6  N   UNL     1       0.047   0.444   0.000  0.00  0.00    +0.000 NA
ATOM      7  N   UNL     1      -0.629   1.690   0.000  0.00  0.00    +0.000 NA
ATOM      8  C   UNL     1      -0.629   0.833   0.000  0.00  0.00    +0.000 A 
ATOM      9  C   UNL     1       0.047   2.080   0.000  0.00  0.00    +0.000 A 
ATOM     10  N   UNL     1      -1.330   0.418   0.000  0.00  0.00    +0.000 NA
ATOM     11  N   UNL     1       0.047   2.911   0.000  0.00  0.00    +0.000 NA
ENDROOT
BRANCH  10  12
ATOM     12  C   UNL     1      -1.321  -0.407   0.000  0.00  0.00    +0.000 A 
ATOM     13  C   UNL     1      -0.602  -0.811   0.000  0.00  0.00    +0.000 A 
ATOM     14  C   UNL     1      -0.592  -1.637   0.000  0.00  0.00    +0.000 A 
ATOM     15  C   UNL     1      -1.302  -2.057   0.000  0.00  0.00    +0.000 A 
ATOM     16  C   UNL     1      -2.021  -1.653   0.000  0.00  0.00    +0.000 A 
ATOM     17  C   UNL     1      -2.030  -0.828   0.000  0.00  0.00    +0.000 A 
BRANCH  15  18
ATOM     18  N   UNL     1      -1.293  -2.872   0.000  0.00  0.00    +0.000 N 
ATOM     19  O   UNL     1      -1.293  -4.522   0.000  0.00  0.00    +0.000 OA
ATOM     20  C   UNL     1      -0.578  -3.285   0.000  0.00  0.00    +0.000 C 
ATOM     21  C   UNL     1      -2.007  -3.285   0.000  0.00  0.00    +0.000 C 
ATOM     22  C   UNL     1      -0.578  -4.110   0.000  0.00  0.00    +0.000 C 
ATOM     23  C   UNL     1      -2.007  -4.110   0.000  0.00  0.00    +0.000 C 
ENDBRANCH  15  18
ENDBRANCH  10  12
BRANCH  11  24
ATOM     24  C   UNL     1      -0.651   3.314   0.000  0.00  0.00    +0.000 C 
ATOM     25  C   UNL     1      -1.349   2.911   0.000  0.00  0.00    +0.000 C 
ATOM     26  C   UNL     1      -2.046   3.314   0.000  0.00  0.00    +0.000 C 
ATOM     27  C   UNL     1      -2.046   4.120   0.000  0.00  0.00    +0.000 C 
ATOM     28  C   UNL     1      -1.349   4.522   0.000  0.00  0.00    +0.000 C 
ATOM     29  C   UNL     1      -0.651   4.120   0.000  0.00  0.00    +0.000 C 
ENDBRANCH  11  24
TORSDOF 3
