REMARK  Name = 
REMARK  3 active torsions:
REMARK  status: ('A' for Active; 'I' for Inactive)
REMARK    1  A    between atoms: C_4  and  C_7
REMARK    2  A    between atoms: C_7  and  C_15
REMARK    3  A    between atoms: C_9  and  C_10
REMARK                            x       y       z     vdW  Elec       q    Type
REMARK                         _______ _______ _______ _____ _____    ______ ____
ROOT
ATOM      1  C   UNL     1       1.079  -1.067   0.000  0.00  0.00    +0.000 C 
ATOM      2  C   UNL     1       1.492  -1.782   0.000  0.00  0.00    +0.000 C 
ATOM      3  C   UNL     1       0.667  -1.782   0.000  0.00  0.00    +0.000 C 
ENDROOT
BRANCH   1   7
ATOM      4  C   UNL     1      -0.817   0.523   0.000  0.00  0.00    +0.000 A 
ATOM      5  C   UNL     1      -0.041   0.806   0.000  0.00  0.00    +0.000 A 
ATOM      6  C   UNL     1       0.591   0.275   0.000  0.00  0.00    +0.000 A 
ATOM      7  C   UNL     1       0.447  -0.537   0.000  0.00  0.00    +0.000 A 
ATOM      8  C   UNL     1      -0.328  -0.819   0.000  0.00  0.00    +0.000 A 
ATOM      9  C   UNL     1      -0.960  -0.289   0.000  0.00  0.00    +0.000 A 
ENDBRANCH   1   7
BRANCH   1  10
ATOM     10  C   UNL     1       1.711  -0.537   0.000  0.00  0.00    +0.000 A 
ATOM     11  C   UNL     1       1.568   0.275   0.000  0.00  0.00    +0.000 A 
ATOM     12  C   UNL     1       2.200   0.806   0.000  0.00  0.00    +0.000 A 
ATOM     13  C   UNL     1       2.975   0.523   0.000  0.00  0.00    +0.000 A 
ATOM     14  C   UNL     1       3.119  -0.289   0.000  0.00  0.00    +0.000 A 
ATOM     15  C   UNL     1       2.487  -0.819   0.000  0.00  0.00    +0.000 A 
ENDBRANCH   1  10
BRANCH   3  16
ATOM     16  C   UNL     1      -0.048  -2.194   0.000  0.00  0.00    +0.000 C 
ATOM     17  N   UNL     1      -0.134  -3.015   0.000  0.00  0.00    +0.000 NA
ATOM     18  C   UNL     1      -0.941  -3.186   0.000  0.00  0.00    +0.000 C 
ATOM     19  C   UNL     1      -1.353  -2.472   0.000  0.00  0.00    +0.000 C 
ATOM     20  N   UNL     1      -0.801  -1.859   0.000  0.00  0.00    +0.000 NA
ENDBRANCH   3  16
TORSDOF 3
