REMARK  Name = 
REMARK  5 active torsions:
REMARK  status: ('A' for Active; 'I' for Inactive)
REMARK    1  A    between atoms: CB_2  and  CG_3
REMARK    2  A    between atoms: CB_2  and  CA_9
REMARK    3  A    between atoms: CG_3  and  CD_4
REMARK    4  A    between atoms: CD_4  and  CE_5
REMARK    5  A    between atoms: C_7  and  CA_9
REMARK                            x       y       z     vdW  Elec       q    Type
REMARK                         _______ _______ _______ _____ _____    ______ ____
ROOT
ATOM      1  CB  LYS A   1       0.357   0.206   0.000  0.00  0.00    +0.000 C 
ENDROOT
BRANCH   1   2
ATOM      2  CA  LYS A   1       1.072  -0.206   0.000  0.00  0.00    +0.000 C 
ATOM      3  N   LYS A   1       1.072  -1.031   0.000  0.00  0.00    +0.000 NA
BRANCH   2   5
ATOM      4  O   LYS A   1       2.501  -0.206   0.000  0.00  0.00    +0.000 OA
ATOM      5  C   LYS A   1       1.786   0.206   0.000  0.00  0.00    +0.000 C 
ATOM      6  OXT LYS A   1       1.786   1.031   0.000  0.00  0.00    +0.000 OA
ENDBRANCH   2   5
ENDBRANCH   1   2
BRANCH   1   7
ATOM      7  CG  LYS A   1      -0.357  -0.206   0.000  0.00  0.00    +0.000 C 
BRANCH   7   8
ATOM      8  CD  LYS A   1      -1.072   0.206   0.000  0.00  0.00    +0.000 C 
BRANCH   8   9
ATOM      9  CE  LYS A   1      -1.786  -0.206   0.000  0.00  0.00    +0.000 C 
ATOM     10  NZ  LYS A   1      -2.501   0.206   0.000  0.00  0.00    +0.000 NA
ENDBRANCH   8   9
ENDBRANCH   7   8
ENDBRANCH   1   7
TORSDOF 5
