REMARK  Name = 
REMARK  12 active torsions:
REMARK  status: ('A' for Active; 'I' for Inactive)
REMARK    1  A    between atoms: P_1  and  O_2
REMARK    2  A    between atoms: P_1  and  N_11
REMARK    3  A    between atoms: P_1  and  C_19
REMARK    4  A    between atoms: O_2  and  C_22
REMARK    5  A    between atoms: O_3  and  C_18
REMARK    6  A    between atoms: O_3  and  C_19
REMARK    7  A    between atoms: O_5  and  C_23
REMARK    8  A    between atoms: O_5  and  C_31
REMARK    9  A    between atoms: N_7  and  C_17
REMARK   10  A    between atoms: N_11  and  C_21
REMARK   11  A    between atoms: C_17  and  C_18
REMARK   12  A    between atoms: C_21  and  C_23
REMARK                            x       y       z     vdW  Elec       q    Type
REMARK                         _______ _______ _______ _____ _____    ______ ____
ROOT
ATOM      1  P   UNL     1      -0.774  -0.204   0.000  0.00  0.00    +0.000 P 
ATOM      2  O   UNL     1      -0.366   0.536   0.000  0.00  0.00    +0.000 OA
ENDROOT
BRANCH   1   3
ATOM      3  C   UNL     1      -0.034  -0.621   0.000  0.00  0.00    +0.000 C 
BRANCH   3   4
ATOM      4  O   UNL     1       0.587  -0.204   0.000  0.00  0.00    +0.000 OA
BRANCH   4   5
ATOM      5  C   UNL     1       1.327  -0.621   0.000  0.00  0.00    +0.000 C 
ATOM      6  C   UNL     1       1.327  -1.403   0.000  0.00  0.00    +0.000 C 
BRANCH   5   7
ATOM      7  C   UNL     1       2.024  -0.204   0.000  0.00  0.00    +0.000 C 
BRANCH   7   8
ATOM      8  N   UNL     1       2.024   0.621   0.000  0.00  0.00    +0.000 N 
ATOM      9  N   UNL     1       2.024   1.973   0.000  0.00  0.00    +0.000 NA
ATOM     10  N   UNL     1       3.555   0.451   0.000  0.00  0.00    +0.000 NA
ATOM     11  N   UNL     1       4.252   1.726   0.000  0.00  0.00    +0.000 NA
ATOM     12  N   UNL     1       3.555   2.968   0.000  0.00  0.00    +0.000 NA
ATOM     13  C   UNL     1       2.807   0.867   0.000  0.00  0.00    +0.000 A 
ATOM     14  C   UNL     1       2.807   1.726   0.000  0.00  0.00    +0.000 A 
ATOM     15  C   UNL     1       3.555   2.143   0.000  0.00  0.00    +0.000 A 
ATOM     16  C   UNL     1       1.573   1.276   0.000  0.00  0.00    +0.000 A 
ATOM     17  C   UNL     1       4.252   0.867   0.000  0.00  0.00    +0.000 A 
ENDBRANCH   7   8
ENDBRANCH   5   7
ENDBRANCH   4   5
ENDBRANCH   3   4
ENDBRANCH   1   3
BRANCH   1  18
ATOM     18  O   UNL     1      -1.514   0.204   0.000  0.00  0.00    +0.000 OA
BRANCH  18  19
ATOM     19  C   UNL     1      -2.339   0.204   0.000  0.00  0.00    +0.000 A 
ATOM     20  C   UNL     1      -2.756   0.918   0.000  0.00  0.00    +0.000 A 
ATOM     21  C   UNL     1      -2.756  -0.510   0.000  0.00  0.00    +0.000 A 
ATOM     22  C   UNL     1      -3.580   0.918   0.000  0.00  0.00    +0.000 A 
ATOM     23  C   UNL     1      -3.580  -0.510   0.000  0.00  0.00    +0.000 A 
ATOM     24  C   UNL     1      -3.989   0.204   0.000  0.00  0.00    +0.000 A 
ENDBRANCH  18  19
ENDBRANCH   1  18
BRANCH   1  25
ATOM     25  N   UNL     1      -1.437  -0.910   0.000  0.00  0.00    +0.000 NA
BRANCH  25  26
ATOM     26  C   UNL     1      -1.437  -1.735   0.000  0.00  0.00    +0.000 C 
ATOM     27  C   UNL     1      -0.723  -2.143   0.000  0.00  0.00    +0.000 C 
BRANCH  26  29
ATOM     28  O   UNL     1      -2.152  -2.968   0.000  0.00  0.00    +0.000 OA
ATOM     29  C   UNL     1      -2.152  -2.143   0.000  0.00  0.00    +0.000 C 
BRANCH  29  30
ATOM     30  O   UNL     1      -2.849  -1.735   0.000  0.00  0.00    +0.000 OA
BRANCH  30  31
ATOM     31  C   UNL     1      -3.555  -2.143   0.000  0.00  0.00    +0.000 C 
ATOM     32  C   UNL     1      -4.252  -1.735   0.000  0.00  0.00    +0.000 C 
ATOM     33  C   UNL     1      -3.555  -2.968   0.000  0.00  0.00    +0.000 C 
ENDBRANCH  30  31
ENDBRANCH  29  30
ENDBRANCH  26  29
ENDBRANCH  25  26
ENDBRANCH   1  25
TORSDOF 12
