REMARK  Name = 
REMARK  2 active torsions:
REMARK  status: ('A' for Active; 'I' for Inactive)
REMARK    1  A    between atoms: C_1  and  C_2
REMARK    2  A    between atoms: C_1  and  C_3
REMARK                            x       y       z     vdW  Elec       q    Type
REMARK                         _______ _______ _______ _____ _____    ______ ____
ROOT
ATOM      1  C   UNL     1       0.825  -0.825   0.000  0.00  0.00    +0.000 C 
ENDROOT
BRANCH   1   2
ATOM      2  C   UNL     1       0.825   0.000   0.000  0.00  0.00    +0.000 C 
ATOM      3  F   UNL     1       0.825   0.825   0.000  0.00  0.00    +0.000 F 
ATOM      4  F   UNL     1       1.650   0.000   0.000  0.00  0.00    +0.000 F 
ATOM      5  F   UNL     1       0.000   0.000   0.000  0.00  0.00    +0.000 F 
ENDBRANCH   1   2
BRANCH   1   6
ATOM      6  C   UNL     1       0.111  -1.238   0.000  0.00  0.00    +0.000 C 
ATOM      7  F   UNL     1       0.111  -2.062   0.000  0.00  0.00    +0.000 F 
ATOM      8  F   UNL     1      -0.604  -0.825   0.000  0.00  0.00    +0.000 F 
ENDBRANCH   1   6
TORSDOF 2
