REMARK  Name = 
REMARK  6 active torsions:
REMARK  status: ('A' for Active; 'I' for Inactive)
REMARK    1  A    between atoms: O_2  and  N_3
REMARK    2  A    between atoms: C_4  and  C_6
REMARK    3  A    between atoms: C_11  and  N_12
REMARK    4  A    between atoms: N_12  and  C_13
REMARK    5  A    between atoms: N_16  and  C_17
REMARK    6  A    between atoms: N_22  and  C_23
REMARK                            x       y       z     vdW  Elec       q    Type
REMARK                         _______ _______ _______ _____ _____    ______ ____
ROOT
ATOM      1  C   UNL     1      -2.143   5.941   0.000  0.00  0.00    +0.000 A 
ATOM      2  C   UNL     1      -1.429   5.529   0.000  0.00  0.00    +0.000 A 
ATOM      3  C   UNL     1      -1.429   4.704   0.000  0.00  0.00    +0.000 A 
ATOM      4  N   UNL     1      -0.715   4.291   0.000  0.00  0.00    +0.000 NA
ATOM      5  N   UNL     1      -2.143   4.291   0.000  0.00  0.00    +0.000 NA
ATOM      6  C   UNL     1      -2.858   4.704   0.000  0.00  0.00    +0.000 A 
ATOM      7  C   UNL     1      -2.858   5.529   0.000  0.00  0.00    +0.000 A 
ATOM      8 CL   UNL     1      -3.572   5.941   0.000  0.00  0.00    +0.000 Cl
ENDROOT
BRANCH   4   9
ATOM      9  C   UNL     1      -0.715   3.466   0.000  0.00  0.00    +0.000 A 
ATOM     10  C   UNL     1      -1.382   2.981   0.000  0.00  0.00    +0.000 A 
ATOM     11  C   UNL     1      -1.127   2.196   0.000  0.00  0.00    +0.000 A 
ATOM     12  C   UNL     1      -1.612   1.529   0.000  0.00  0.00    +0.000 C 
ATOM     13  N   UNL     1      -0.302   2.196   0.000  0.00  0.00    +0.000 NA
ATOM     14  N   UNL     1      -0.047   2.981   0.000  0.00  0.00    +0.000 N 
BRANCH  14  15
ATOM     15  C   UNL     1       0.738   3.236   0.000  0.00  0.00    +0.000 C 
ATOM     16  C   UNL     1       1.351   2.684   0.000  0.00  0.00    +0.000 C 
ATOM     17  C   UNL     1       0.909   4.043   0.000  0.00  0.00    +0.000 C 
ENDBRANCH  14  15
ENDBRANCH   4   9
BRANCH   1  18
ATOM     18  N   UNL     1      -2.143   6.766   0.000  0.00  0.00    +0.000 NA
BRANCH  18  24
ATOM     19  C   UNL     1      -2.858   8.004   0.000  0.00  0.00    +0.000 A 
ATOM     20  C   UNL     1      -3.572   8.416   0.000  0.00  0.00    +0.000 A 
ATOM     21  C   UNL     1      -4.287   8.004   0.000  0.00  0.00    +0.000 A 
ATOM     22  C   UNL     1      -4.287   7.179   0.000  0.00  0.00    +0.000 A 
ATOM     23  C   UNL     1      -3.572   6.766   0.000  0.00  0.00    +0.000 A 
ATOM     24  C   UNL     1      -2.858   7.179   0.000  0.00  0.00    +0.000 A 
BRANCH  19  26
ATOM     25  N   UNL     1      -1.429   8.004   0.000  0.00  0.00    +0.000 NA
ATOM     26  C   UNL     1      -2.143   8.416   0.000  0.00  0.00    +0.000 C 
ATOM     27  O   UNL     1      -2.143   9.241   0.000  0.00  0.00    +0.000 OA
BRANCH  25  29
ATOM     28  C   UNL     1       0.000   8.004   0.000  0.00  0.00    +0.000 C 
ATOM     29  O   UNL     1      -0.715   8.416   0.000  0.00  0.00    +0.000 OA
ENDBRANCH  25  29
ENDBRANCH  19  26
ENDBRANCH  18  24
ENDBRANCH   1  18
TORSDOF 6
