REMARK  Name = 
REMARK  3 active torsions:
REMARK  status: ('A' for Active; 'I' for Inactive)
REMARK    1  A    between atoms: C_2  and  C_7
REMARK    2  A    between atoms: C_3  and  C_4
REMARK    3  A    between atoms: C_10  and  C_12
REMARK                            x       y       z     vdW  Elec       q    Type
REMARK                         _______ _______ _______ _____ _____    ______ ____
ROOT
ATOM      1  C   UNL     1      -2.902   0.930   0.000  0.00  0.00    +0.000 C 
ATOM      2  C   UNL     1      -2.077   0.930   0.000  0.00  0.00    +0.000 C 
ATOM      3  C   UNL     1      -2.077   0.105   0.000  0.00  0.00    +0.000 C 
ATOM      4  C   UNL     1      -2.902   0.105   0.000  0.00  0.00    +0.000 C 
ENDROOT
BRANCH   3   5
ATOM      5  C   UNL     1      -1.674  -0.603   0.000  0.00  0.00    +0.000 C 
ATOM      6  N   UNL     1      -1.077  -0.603   0.000  0.00  0.00    +0.000 NA
ENDBRANCH   3   5
BRANCH   2   7
ATOM      7  C   UNL     1      -1.369   1.352   0.000  0.00  0.00    +0.000 C 
ATOM      8  N   UNL     1      -0.656   0.940   0.000  0.00  0.00    +0.000 NA
ENDBRANCH   2   7
TORSDOF 2
REMARK  Name = 
REMARK  3 active torsions:
REMARK  status: ('A' for Active; 'I' for Inactive)
REMARK    1  A    between atoms: C_2  and  C_7
REMARK    2  A    between atoms: C_3  and  C_4
REMARK    3  A    between atoms: C_10  and  C_12
REMARK                            x       y       z     vdW  Elec       q    Type
REMARK                         _______ _______ _______ _____ _____    ______ ____
ROOT
ATOM      1 PT   UNL     1      -0.134   0.013   0.000  0.00  0.00    +0.000 Pt
ENDROOT
TORSDOF 0
REMARK  Name = 
REMARK  3 active torsions:
REMARK  status: ('A' for Active; 'I' for Inactive)
REMARK    1  A    between atoms: C_2  and  C_7
REMARK    2  A    between atoms: C_3  and  C_4
REMARK    3  A    between atoms: C_10  and  C_12
REMARK                            x       y       z     vdW  Elec       q    Type
REMARK                         _______ _______ _______ _____ _____    ______ ____
ROOT
ATOM      1  C   UNL     1       1.914  -0.709   0.000  0.00  0.00    +0.000 C 
ATOM      2  O   UNL     1       1.085  -0.709   0.000  0.00  0.00    +0.000 OA
ATOM      3  O   UNL     1       2.429  -1.352   0.000  0.00  0.00    +0.000 OA
ENDROOT
BRANCH   1   4
ATOM      4  C   UNL     1       2.130   0.085   0.000  0.00  0.00    +0.000 C 
ATOM      5  O   UNL     1       1.442   0.541   0.000  0.00  0.00    +0.000 OA
ATOM      6  C   UNL     1       2.902   0.381   0.000  0.00  0.00    +0.000 C 
ENDBRANCH   1   4
TORSDOF 1
