REMARK  Name = 
REMARK  7 active torsions:
REMARK  status: ('A' for Active; 'I' for Inactive)
REMARK    1  A    between atoms: O_2  and  C_3
REMARK    2  A    between atoms: C_3  and  C_5
REMARK    3  A    between atoms: C_12  and  C_14
REMARK    4  A    between atoms: C_18  and  C_20
REMARK    5  A    between atoms: C_20  and  C_21
REMARK    6  A    between atoms: C_21  and  C_23
REMARK    7  A    between atoms: C_23  and  C_24
REMARK                            x       y       z     vdW  Elec       q    Type
REMARK                         _______ _______ _______ _____ _____    ______ ____
ROOT
ATOM      1  C   UNL     1      -3.744   2.869   0.000  0.00  0.00    +0.000 A 
ATOM      2  C   UNL     1      -3.572   2.062   0.000  0.00  0.00    +0.000 A 
ATOM      3  C   UNL     1      -2.858   1.650   0.000  0.00  0.00    +0.000 C 
ATOM      4  N   UNL     1      -2.858   0.825   0.000  0.00  0.00    +0.000 N 
ATOM      5  C   UNL     1      -3.572   0.412   0.000  0.00  0.00    +0.000 C 
ATOM      6  C   UNL     1      -4.287   0.825   0.000  0.00  0.00    +0.000 C 
ATOM      7  N   UNL     1      -4.287   1.650   0.000  0.00  0.00    +0.000 N 
ATOM      8  C   UNL     1      -4.900   2.202   0.000  0.00  0.00    +0.000 A 
ATOM      9  N   UNL     1      -4.564   2.956   0.000  0.00  0.00    +0.000 NA
ATOM     10  C   UNL     1      -2.143   0.412   0.000  0.00  0.00    +0.000 C 
ATOM     11  O   UNL     1      -2.143  -0.412   0.000  0.00  0.00    +0.000 OA
ENDROOT
BRANCH   8  12
ATOM     12  C   UNL     1      -5.707   2.030   0.000  0.00  0.00    +0.000 C 
ATOM     13  F   UNL     1      -6.514   1.859   0.000  0.00  0.00    +0.000 F 
ATOM     14  F   UNL     1      -5.878   2.837   0.000  0.00  0.00    +0.000 F 
ATOM     15  F   UNL     1      -5.535   1.224   0.000  0.00  0.00    +0.000 F 
ENDBRANCH   8  12
BRANCH   1  16
ATOM     16  C   UNL     1      -3.192   3.483   0.000  0.00  0.00    +0.000 C 
ATOM     17  O   UNL     1      -2.385   3.311   0.000  0.00  0.00    +0.000 OA
BRANCH  16  19
ATOM     18  C   UNL     1      -2.895   4.880   0.000  0.00  0.00    +0.000 C 
ATOM     19  O   UNL     1      -3.447   4.267   0.000  0.00  0.00    +0.000 OA
ENDBRANCH  16  19
ENDBRANCH   1  16
BRANCH  10  20
ATOM     20  C   UNL     1      -1.429   0.825   0.000  0.00  0.00    +0.000 C 
BRANCH  20  21
ATOM     21  C   UNL     1      -0.715   0.412   0.000  0.00  0.00    +0.000 C 
ATOM     22  N   UNL     1      -0.715  -0.412   0.000  0.00  0.00    +0.000 NA
BRANCH  21  23
ATOM     23  C   UNL     1       0.000   0.825   0.000  0.00  0.00    +0.000 C 
BRANCH  23  24
ATOM     24  C   UNL     1       0.715   0.412   0.000  0.00  0.00    +0.000 A 
ATOM     25  C   UNL     1       1.429   0.825   0.000  0.00  0.00    +0.000 A 
ATOM     26  C   UNL     1       2.143   0.412   0.000  0.00  0.00    +0.000 A 
ATOM     27  F   UNL     1       2.858   0.825   0.000  0.00  0.00    +0.000 F 
ATOM     28  C   UNL     1       2.143  -0.412   0.000  0.00  0.00    +0.000 A 
ATOM     29  F   UNL     1       2.858  -0.825   0.000  0.00  0.00    +0.000 F 
ATOM     30  C   UNL     1       1.429  -0.825   0.000  0.00  0.00    +0.000 A 
ATOM     31  C   UNL     1       0.715  -0.412   0.000  0.00  0.00    +0.000 A 
ATOM     32  F   UNL     1       0.000  -0.825   0.000  0.00  0.00    +0.000 F 
ENDBRANCH  23  24
ENDBRANCH  21  23
ENDBRANCH  20  21
ENDBRANCH  10  20
TORSDOF 7
