REMARK  Name = 
REMARK  9 active torsions:
REMARK  status: ('A' for Active; 'I' for Inactive)
REMARK    1  A    between atoms: S_1  and  O_5
REMARK    2  A    between atoms: S_1  and  N_13
REMARK    3  A    between atoms: O_5  and  C_21
REMARK    4  A    between atoms: N_10  and  C_19
REMARK    5  A    between atoms: N_15  and  C_25
REMARK    6  A    between atoms: N_16  and  CA_28
REMARK    7  A    between atoms: C_20  and  C_21
REMARK    8  A    between atoms: C_27  and  CA_28
REMARK    9  A    between atoms: CA_28  and  C_29
REMARK                            x       y       z     vdW  Elec       q    Type
REMARK                         _______ _______ _______ _____ _____    ______ ____
ROOT
ATOM      1  O   UNL     1      -1.049   0.108   0.000  0.00  0.00    +0.000 OA
ATOM      2  O   UNL     1      -3.143   0.525   0.000  0.00  0.00    +0.000 OA
ATOM      3  O   UNL     1      -2.085   1.975   0.000  0.00  0.00    +0.000 OA
ATOM      4  C   UNL     1      -2.318   0.523   0.000  0.00  0.00    +0.000 C 
ATOM      5  C   UNL     1      -1.831   1.190   0.000  0.00  0.00    +0.000 C 
ATOM      6  C   UNL     1      -1.834  -0.145   0.000  0.00  0.00    +0.000 C 
ATOM      7  C   UNL     1      -1.047   0.933   0.000  0.00  0.00    +0.000 C 
ENDROOT
BRANCH   6   8
ATOM      8  N   UNL     1      -2.090  -0.929   0.000  0.00  0.00    +0.000 N 
ATOM      9  N   UNL     1      -2.090  -2.257   0.000  0.00  0.00    +0.000 NA
ATOM     10  N   UNL     1      -3.585  -0.768   0.000  0.00  0.00    +0.000 NA
ATOM     11  N   UNL     1      -4.300  -2.006   0.000  0.00  0.00    +0.000 NA
ATOM     12  C   UNL     1      -2.871  -1.181   0.000  0.00  0.00    +0.000 A 
ATOM     13  C   UNL     1      -1.609  -1.593   0.000  0.00  0.00    +0.000 A 
ATOM     14  C   UNL     1      -2.871  -2.006   0.000  0.00  0.00    +0.000 A 
ATOM     15  C   UNL     1      -3.585  -2.418   0.000  0.00  0.00    +0.000 A 
ATOM     16  C   UNL     1      -4.300  -1.181   0.000  0.00  0.00    +0.000 A 
BRANCH  15  17
ATOM     17  N   UNL     1      -3.585  -3.244   0.000  0.00  0.00    +0.000 N 
ATOM     18  H   UNL     1      -3.142  -3.499   0.000  0.00  0.00    +0.000 HD
ATOM     19  H   UNL     1      -4.028  -3.499   0.000  0.00  0.00    +0.000 HD
ENDBRANCH  15  17
ENDBRANCH   6   8
BRANCH   7  20
ATOM     20  C   UNL     1      -0.379   1.417   0.000  0.00  0.00    +0.000 C 
BRANCH  20  21
ATOM     21  O   UNL     1       0.374   1.080   0.000  0.00  0.00    +0.000 OA
BRANCH  21  22
ATOM     22  S   UNL     1       1.042   1.564   0.000  0.00  0.00    +0.000 S 
ATOM     23  O   UNL     1       0.559   2.232   0.000  0.00  0.00    +0.000 OA
ATOM     24  O   UNL     1       1.526   0.896   0.000  0.00  0.00    +0.000 OA
BRANCH  22  26
ATOM     25  O   UNL     1       2.549   0.890   0.000  0.00  0.00    +0.000 OA
ATOM     26  N   UNL     1       1.711   2.048   0.000  0.00  0.00    +0.000 N 
ATOM     27  C   UNL     1       2.464   1.711   0.000  0.00  0.00    +0.000 C 
ATOM     28  H   UNL     1       1.658   2.557   0.000  0.00  0.00    +0.000 HD
BRANCH  27  29
ATOM     29  CA  UNL     1       3.132   2.195   0.000  0.00  0.00    +0.000 C 
BRANCH  29  30
ATOM     30  N   UNL     1       3.885   1.858   0.000  0.00  0.00    +0.000 NA
ATOM     31  H1  UNL     1       3.938   1.349   0.000  0.00  0.00    +0.000 HD
ATOM     32  H2  UNL     1       4.300   2.158   0.000  0.00  0.00    +0.000 HD
ENDBRANCH  29  30
BRANCH  29  34
ATOM     33  O   UNL     1       3.716   3.499   0.000  0.00  0.00    +0.000 OA
ATOM     34  C   UNL     1       3.047   3.015   0.000  0.00  0.00    +0.000 C 
ENDBRANCH  29  34
ENDBRANCH  27  29
ENDBRANCH  22  26
ENDBRANCH  21  22
ENDBRANCH  20  21
ENDBRANCH   7  20
TORSDOF 9
