REMARK  Name = 
REMARK  11 active torsions:
REMARK  status: ('A' for Active; 'I' for Inactive)
REMARK    1  A    between atoms: O_2  and  C_3
REMARK    2  A    between atoms: C_8  and  O_9
REMARK    3  A    between atoms: N_12  and  C_15
REMARK    4  A    between atoms: C_15  and  C_16
REMARK    5  A    between atoms: C_16  and  C_17
REMARK    6  A    between atoms: C_20  and  N_23
REMARK    7  A    between atoms: C_24  and  C_26
REMARK    8  A    between atoms: C_28  and  O_47
REMARK    9  A    between atoms: C_29  and  O_45
REMARK   10  A    between atoms: C_31  and  N_32
REMARK   11  A    between atoms: C_33  and  C_35
REMARK                            x       y       z     vdW  Elec       q    Type
REMARK                         _______ _______ _______ _____ _____    ______ ____
ROOT
ATOM      1  N   UNL     1       0.000   3.300   0.000  0.00  0.00    +0.000 NA
ATOM      2  C   UNL     1       0.000   2.475   0.000  0.00  0.00    +0.000 C 
ATOM      3  O   UNL     1      -0.715   2.062   0.000  0.00  0.00    +0.000 OA
ENDROOT
BRANCH   2   4
ATOM      4  C   UNL     1       0.715   2.062   0.000  0.00  0.00    +0.000 A 
ATOM      5  C   UNL     1       1.429   2.475   0.000  0.00  0.00    +0.000 A 
ATOM      6  C   UNL     1       2.143   2.062   0.000  0.00  0.00    +0.000 A 
ATOM      7  C   UNL     1       2.143   1.238   0.000  0.00  0.00    +0.000 A 
ATOM      8  C   UNL     1       1.429   0.825   0.000  0.00  0.00    +0.000 A 
ATOM      9  C   UNL     1       0.715   1.238   0.000  0.00  0.00    +0.000 A 
BRANCH   9  10
ATOM     10  N   UNL     1       0.000   0.825   0.000  0.00  0.00    +0.000 NA
ATOM     11  C   UNL     1       0.000   0.000   0.000  0.00  0.00    +0.000 C 
ATOM     12  O   UNL     1      -0.715  -0.412   0.000  0.00  0.00    +0.000 OA
BRANCH  11  13
ATOM     13  C   UNL     1       0.715  -0.412   0.000  0.00  0.00    +0.000 A 
ATOM     14  C   UNL     1       1.429   0.000   0.000  0.00  0.00    +0.000 A 
ATOM     15  C   UNL     1       2.143  -0.412   0.000  0.00  0.00    +0.000 A 
ATOM     16  C   UNL     1       2.858   0.000   0.000  0.00  0.00    +0.000 A 
ATOM     17  C   UNL     1       3.572  -0.412   0.000  0.00  0.00    +0.000 A 
ATOM     18  C   UNL     1       3.572  -1.238   0.000  0.00  0.00    +0.000 A 
ATOM     19  C   UNL     1       2.858  -1.650   0.000  0.00  0.00    +0.000 A 
ATOM     20  C   UNL     1       2.143  -1.238   0.000  0.00  0.00    +0.000 A 
ATOM     21  N   UNL     1       1.429  -1.650   0.000  0.00  0.00    +0.000 NA
ATOM     22  C   UNL     1       0.715  -1.238   0.000  0.00  0.00    +0.000 A 
ENDBRANCH  11  13
ENDBRANCH   9  10
BRANCH   7  23
ATOM     23  O   UNL     1       2.858   0.825   0.000  0.00  0.00    +0.000 OA
ATOM     24  C   UNL     1       3.572   1.238   0.000  0.00  0.00    +0.000 C 
ENDBRANCH   7  23
BRANCH   6  25
ATOM     25  O   UNL     1       2.858   2.475   0.000  0.00  0.00    +0.000 OA
ATOM     26  C   UNL     1       3.572   2.062   0.000  0.00  0.00    +0.000 C 
ENDBRANCH   6  25
ENDBRANCH   2   4
BRANCH   1  30
ATOM     27  C   UNL     1      -2.143   4.537   0.000  0.00  0.00    +0.000 A 
ATOM     28  C   UNL     1      -1.429   4.950   0.000  0.00  0.00    +0.000 A 
ATOM     29  C   UNL     1      -0.715   4.537   0.000  0.00  0.00    +0.000 A 
ATOM     30  C   UNL     1      -0.715   3.712   0.000  0.00  0.00    +0.000 A 
ATOM     31  C   UNL     1      -1.429   3.300   0.000  0.00  0.00    +0.000 A 
ATOM     32  C   UNL     1      -2.143   3.712   0.000  0.00  0.00    +0.000 A 
BRANCH  27  33
ATOM     33  C   UNL     1      -2.858   4.950   0.000  0.00  0.00    +0.000 C 
BRANCH  33  34
ATOM     34  C   UNL     1      -3.572   4.537   0.000  0.00  0.00    +0.000 C 
BRANCH  34  42
ATOM     35  C   UNL     1      -6.430   7.013   0.000  0.00  0.00    +0.000 A 
ATOM     36  C   UNL     1      -6.430   6.188   0.000  0.00  0.00    +0.000 A 
ATOM     37  C   UNL     1      -5.716   5.775   0.000  0.00  0.00    +0.000 A 
ATOM     38  C   UNL     1      -5.001   6.188   0.000  0.00  0.00    +0.000 A 
ATOM     39  C   UNL     1      -5.001   7.013   0.000  0.00  0.00    +0.000 A 
ATOM     40  C   UNL     1      -5.716   7.425   0.000  0.00  0.00    +0.000 A 
ATOM     41  C   UNL     1      -4.287   5.775   0.000  0.00  0.00    +0.000 C 
ATOM     42  N   UNL     1      -4.287   4.950   0.000  0.00  0.00    +0.000 NA
ATOM     43  C   UNL     1      -5.001   4.537   0.000  0.00  0.00    +0.000 C 
ATOM     44  C   UNL     1      -5.716   4.950   0.000  0.00  0.00    +0.000 C 
BRANCH  35  46
ATOM     45  C   UNL     1      -7.145   8.250   0.000  0.00  0.00    +0.000 C 
ATOM     46  O   UNL     1      -7.145   7.425   0.000  0.00  0.00    +0.000 OA
ENDBRANCH  35  46
BRANCH  40  47
ATOM     47  O   UNL     1      -5.716   8.250   0.000  0.00  0.00    +0.000 OA
ATOM     48  C   UNL     1      -6.430   8.662   0.000  0.00  0.00    +0.000 C 
ENDBRANCH  40  47
ENDBRANCH  34  42
ENDBRANCH  33  34
ENDBRANCH  27  33
ENDBRANCH   1  30
TORSDOF 11
