REMARK  Name = 
REMARK  1 active torsions:
REMARK  status: ('A' for Active; 'I' for Inactive)
REMARK    1  A    between atoms: N_13  and  C_14
REMARK                            x       y       z     vdW  Elec       q    Type
REMARK                         _______ _______ _______ _____ _____    ______ ____
ROOT
ATOM      1  C   UNL     1      -1.429  -1.650   0.000  0.00  0.00    +0.000 C 
ATOM      2  C   UNL     1      -0.715  -1.238   0.000  0.00  0.00    +0.000 A 
ATOM      3  N   UNL     1       0.000  -1.650   0.000  0.00  0.00    +0.000 NA
ATOM      4  C   UNL     1       0.715  -1.238   0.000  0.00  0.00    +0.000 A 
ATOM      5  C   UNL     1       0.715  -0.412   0.000  0.00  0.00    +0.000 A 
ATOM      6  C   UNL     1       1.429   0.000   0.000  0.00  0.00    +0.000 A 
ATOM      7  N   UNL     1       1.429   0.825   0.000  0.00  0.00    +0.000 NA
ATOM      8  C   UNL     1       2.143  -0.412   0.000  0.00  0.00    +0.000 A 
ATOM      9  C   UNL     1       2.143  -1.238   0.000  0.00  0.00    +0.000 A 
ATOM     10  C   UNL     1       1.429  -1.650   0.000  0.00  0.00    +0.000 A 
ATOM     11  C   UNL     1       0.000   0.000   0.000  0.00  0.00    +0.000 A 
ATOM     12  O   UNL     1       0.000   0.825   0.000  0.00  0.00    +0.000 OA
ATOM     13  N   UNL     1      -0.715  -0.412   0.000  0.00  0.00    +0.000 N 
ENDROOT
BRANCH  13  14
ATOM     14  C   UNL     1      -1.429   0.000   0.000  0.00  0.00    +0.000 C 
ATOM     15  C   UNL     1      -2.143  -0.412   0.000  0.00  0.00    +0.000 C 
ATOM     16  C   UNL     1      -2.858   0.000   0.000  0.00  0.00    +0.000 C 
ATOM     17  C   UNL     1      -2.858   0.825   0.000  0.00  0.00    +0.000 C 
ATOM     18  O   UNL     1      -3.572   1.238   0.000  0.00  0.00    +0.000 OA
ATOM     19  N   UNL     1      -2.143   1.238   0.000  0.00  0.00    +0.000 NA
ATOM     20  C   UNL     1      -1.429   0.825   0.000  0.00  0.00    +0.000 C 
ATOM     21  O   UNL     1      -0.715   1.238   0.000  0.00  0.00    +0.000 OA
ENDBRANCH  13  14
TORSDOF 1
