REMARK  Name = 
REMARK  4 active torsions:
REMARK  status: ('A' for Active; 'I' for Inactive)
REMARK    1  A    between atoms: C_14  and  C_16
REMARK    2  A    between atoms: C_14  and  C_21
REMARK    3  A    between atoms: C_19  and  N_25
REMARK    4  A    between atoms: C_20  and  N_26
REMARK                            x       y       z     vdW  Elec       q    Type
REMARK                         _______ _______ _______ _____ _____    ______ ____
ROOT
ATOM      1  C   UNL     1       0.000   0.000   0.000  0.00  0.00    +0.000 C 
ATOM      2  C   UNL     1       2.507   1.127   0.000  0.00  0.00    +0.000 C 
ATOM      3  C   UNL     1       0.785  -0.255   0.000  0.00  0.00    +0.000 C 
ATOM      4  C   UNL     1       1.682   1.127   0.000  0.00  0.00    +0.000 C 
ATOM      5  C   UNL     1       0.000   0.825   0.000  0.00  0.00    +0.000 C 
ATOM      6  C   UNL     1       1.682  -0.302   0.000  0.00  0.00    +0.000 C 
ATOM      7  C   UNL     1       2.920   0.412   0.000  0.00  0.00    +0.000 C 
ATOM      8  C   UNL     1       2.507  -0.302   0.000  0.00  0.00    +0.000 C 
ATOM      9  C   UNL     1       1.270   0.412   0.000  0.00  0.00    +0.000 C 
ATOM     10  O   UNL     1       0.785   1.080   0.000  0.00  0.00    +0.000 OA
ENDROOT
BRANCH   8  15
ATOM     11  C   UNL     1       3.197  -2.322   0.000  0.00  0.00    +0.000 C 
ATOM     12  C   UNL     1       3.912  -1.910   0.000  0.00  0.00    +0.000 C 
ATOM     13  C   UNL     1       2.584  -1.770   0.000  0.00  0.00    +0.000 C 
ATOM     14  C   UNL     1       3.740  -1.103   0.000  0.00  0.00    +0.000 C 
ATOM     15  N   UNL     1       2.920  -1.016   0.000  0.00  0.00    +0.000 NA
ENDBRANCH   8  15
BRANCH   7  18
ATOM     16  C   UNL     1       4.157  -0.302   0.000  0.00  0.00    +0.000 C 
ATOM     17  C   UNL     1       4.157   1.127   0.000  0.00  0.00    +0.000 C 
ATOM     18  N   UNL     1       3.744   0.412   0.000  0.00  0.00    +0.000 N 
ATOM     19  O   UNL     1       3.744   1.841   0.000  0.00  0.00    +0.000 OA
BRANCH  17  20
ATOM     20  C   UNL     1       4.982   1.127   0.000  0.00  0.00    +0.000 C 
BRANCH  20  24
ATOM     21  C   UNL     1       6.220   1.841   0.000  0.00  0.00    +0.000 A 
ATOM     22  C   UNL     1       6.632   2.556   0.000  0.00  0.00    +0.000 A 
ATOM     23  C   UNL     1       4.982   2.556   0.000  0.00  0.00    +0.000 A 
ATOM     24  C   UNL     1       5.394   1.841   0.000  0.00  0.00    +0.000 A 
ATOM     25  C   UNL     1       6.220   3.270   0.000  0.00  0.00    +0.000 A 
ATOM     26  C   UNL     1       5.394   3.270   0.000  0.00  0.00    +0.000 A 
ATOM     27 CL   UNL     1       6.632   3.985   0.000  0.00  0.00    +0.000 Cl
ATOM     28 CL   UNL     1       4.982   3.985   0.000  0.00  0.00    +0.000 Cl
ENDBRANCH  20  24
ENDBRANCH  17  20
ENDBRANCH   7  18
TORSDOF 4
