REMARK  Name = 
REMARK  12 active torsions:
REMARK  status: ('A' for Active; 'I' for Inactive)
REMARK    1  A    between atoms: N_6  and  C_50
REMARK    2  A    between atoms: N_7  and  C_18
REMARK    3  A    between atoms: C_15  and  S_38
REMARK    4  A    between atoms: C_19  and  N_25
REMARK    5  A    between atoms: C_21  and  S_39
REMARK    6  A    between atoms: C_22  and  N_26
REMARK    7  A    between atoms: C_24  and  S_40
REMARK    8  A    between atoms: C_47  and  S_70
REMARK    9  A    between atoms: C_51  and  N_57
REMARK   10  A    between atoms: C_53  and  S_71
REMARK   11  A    between atoms: C_54  and  N_58
REMARK   12  A    between atoms: C_56  and  S_72
REMARK                            x       y       z     vdW  Elec       q    Type
REMARK                         _______ _______ _______ _____ _____    ______ ____
ROOT
ATOM      1  C   UNL     1       0.001   4.095   0.000  0.00  0.00    +0.000 A 
ATOM      2  C   UNL     1       0.714   2.858   0.000  0.00  0.00    +0.000 A 
ATOM      3  C   UNL     1      -0.714   2.859   0.000  0.00  0.00    +0.000 A 
ATOM      4  N   UNL     1       0.715   3.683   0.000  0.00  0.00    +0.000 NA
ATOM      5  N   UNL     1      -0.714   3.683   0.000  0.00  0.00    +0.000 NA
ATOM      6  N   UNL     1       1.429   2.445   0.000  0.00  0.00    +0.000 NA
ATOM      7  N   UNL     1      -1.429   2.446   0.000  0.00  0.00    +0.000 NA
ATOM      8  N   UNL     1       0.000   2.446   0.000  0.00  0.00    +0.000 NA
ENDROOT
BRANCH   7  14
ATOM      9  C   UNL     1      -1.841   0.303   0.000  0.00  0.00    +0.000 A 
ATOM     10  C   UNL     1      -1.428   1.017   0.000  0.00  0.00    +0.000 A 
ATOM     11  C   UNL     1      -3.904   1.017   0.000  0.00  0.00    +0.000 A 
ATOM     12  C   UNL     1      -2.666   0.303   0.000  0.00  0.00    +0.000 A 
ATOM     13  C   UNL     1      -3.078   1.017   0.000  0.00  0.00    +0.000 A 
ATOM     14  C   UNL     1      -1.841   1.732   0.000  0.00  0.00    +0.000 A 
ATOM     15  C   UNL     1      -4.316   0.303   0.000  0.00  0.00    +0.000 A 
ATOM     16  C   UNL     1      -3.903  -0.411   0.000  0.00  0.00    +0.000 A 
ATOM     17  C   UNL     1      -3.078  -0.411   0.000  0.00  0.00    +0.000 A 
ATOM     18  C   UNL     1      -2.666   1.732   0.000  0.00  0.00    +0.000 A 
ATOM     19  O   UNL     1      -2.666  -1.126   0.000  0.00  0.00    +0.000 OA
BRANCH  15  23
ATOM     20  O   UNL     1      -5.141   1.128   0.000  0.00  0.00    +0.000 OA
ATOM     21  O   UNL     1      -5.141  -0.522   0.000  0.00  0.00    +0.000 OA
ATOM     22  O   UNL     1      -5.966   0.303   0.000  0.00  0.00    +0.000 OA
ATOM     23  S   UNL     1      -5.141   0.303   0.000  0.00  0.00    +0.000 S 
ENDBRANCH  15  23
BRANCH  18  27
ATOM     24  O   UNL     1      -2.364   2.859   0.000  0.00  0.00    +0.000 OA
ATOM     25  O   UNL     1      -3.793   2.034   0.000  0.00  0.00    +0.000 OA
ATOM     26  O   UNL     1      -3.491   3.161   0.000  0.00  0.00    +0.000 OA
ATOM     27  S   UNL     1      -3.079   2.446   0.000  0.00  0.00    +0.000 S 
ENDBRANCH  18  27
BRANCH  16  29
ATOM     28  N   UNL     1      -3.903  -1.840   0.000  0.00  0.00    +0.000 NA
ATOM     29  N   UNL     1      -4.316  -1.126   0.000  0.00  0.00    +0.000 NA
BRANCH  28  34
ATOM     30  C   UNL     1      -5.140  -3.984   0.000  0.00  0.00    +0.000 A 
ATOM     31  C   UNL     1      -4.315  -3.984   0.000  0.00  0.00    +0.000 A 
ATOM     32  C   UNL     1      -5.140  -2.555   0.000  0.00  0.00    +0.000 A 
ATOM     33  C   UNL     1      -5.553  -3.269   0.000  0.00  0.00    +0.000 A 
ATOM     34  C   UNL     1      -4.315  -2.555   0.000  0.00  0.00    +0.000 A 
ATOM     35  C   UNL     1      -3.903  -3.269   0.000  0.00  0.00    +0.000 A 
ATOM     36  O   UNL     1      -3.078  -3.269   0.000  0.00  0.00    +0.000 OA
BRANCH  33  40
ATOM     37  O   UNL     1      -6.378  -2.444   0.000  0.00  0.00    +0.000 OA
ATOM     38  O   UNL     1      -6.378  -4.094   0.000  0.00  0.00    +0.000 OA
ATOM     39  O   UNL     1      -7.203  -3.269   0.000  0.00  0.00    +0.000 OA
ATOM     40  S   UNL     1      -6.378  -3.269   0.000  0.00  0.00    +0.000 S 
ENDBRANCH  33  40
ENDBRANCH  28  34
ENDBRANCH  16  29
ENDBRANCH   7  14
BRANCH   6  46
ATOM     41  C   UNL     1       1.841   0.302   0.000  0.00  0.00    +0.000 A 
ATOM     42  C   UNL     1       1.429   1.016   0.000  0.00  0.00    +0.000 A 
ATOM     43  C   UNL     1       3.904   1.016   0.000  0.00  0.00    +0.000 A 
ATOM     44  C   UNL     1       2.666   0.302   0.000  0.00  0.00    +0.000 A 
ATOM     45  C   UNL     1       3.079   1.016   0.000  0.00  0.00    +0.000 A 
ATOM     46  C   UNL     1       1.841   1.731   0.000  0.00  0.00    +0.000 A 
ATOM     47  C   UNL     1       4.316   0.302   0.000  0.00  0.00    +0.000 A 
ATOM     48  C   UNL     1       3.903  -0.413   0.000  0.00  0.00    +0.000 A 
ATOM     49  C   UNL     1       3.078  -0.413   0.000  0.00  0.00    +0.000 A 
ATOM     50  C   UNL     1       2.666   1.731   0.000  0.00  0.00    +0.000 A 
ATOM     51  O   UNL     1       2.666  -1.127   0.000  0.00  0.00    +0.000 OA
BRANCH  47  55
ATOM     52  O   UNL     1       5.141   1.127   0.000  0.00  0.00    +0.000 OA
ATOM     53  O   UNL     1       5.141  -0.523   0.000  0.00  0.00    +0.000 OA
ATOM     54  O   UNL     1       5.966   0.302   0.000  0.00  0.00    +0.000 OA
ATOM     55  S   UNL     1       5.141   0.302   0.000  0.00  0.00    +0.000 S 
ENDBRANCH  47  55
BRANCH  50  59
ATOM     56  O   UNL     1       2.364   2.858   0.000  0.00  0.00    +0.000 OA
ATOM     57  O   UNL     1       3.793   2.032   0.000  0.00  0.00    +0.000 OA
ATOM     58  O   UNL     1       3.491   3.159   0.000  0.00  0.00    +0.000 OA
ATOM     59  S   UNL     1       3.079   2.445   0.000  0.00  0.00    +0.000 S 
ENDBRANCH  50  59
BRANCH  48  61
ATOM     60  N   UNL     1       3.903  -1.841   0.000  0.00  0.00    +0.000 NA
ATOM     61  N   UNL     1       4.316  -1.127   0.000  0.00  0.00    +0.000 NA
BRANCH  60  66
ATOM     62  C   UNL     1       5.140  -3.985   0.000  0.00  0.00    +0.000 A 
ATOM     63  C   UNL     1       4.315  -3.985   0.000  0.00  0.00    +0.000 A 
ATOM     64  C   UNL     1       5.141  -2.556   0.000  0.00  0.00    +0.000 A 
ATOM     65  C   UNL     1       5.553  -3.270   0.000  0.00  0.00    +0.000 A 
ATOM     66  C   UNL     1       4.316  -2.556   0.000  0.00  0.00    +0.000 A 
ATOM     67  C   UNL     1       3.903  -3.270   0.000  0.00  0.00    +0.000 A 
ATOM     68  O   UNL     1       3.078  -3.270   0.000  0.00  0.00    +0.000 OA
BRANCH  65  72
ATOM     69  O   UNL     1       6.378  -2.445   0.000  0.00  0.00    +0.000 OA
ATOM     70  O   UNL     1       6.378  -4.095   0.000  0.00  0.00    +0.000 OA
ATOM     71  O   UNL     1       7.203  -3.271   0.000  0.00  0.00    +0.000 OA
ATOM     72  S   UNL     1       6.378  -3.270   0.000  0.00  0.00    +0.000 S 
ENDBRANCH  65  72
ENDBRANCH  60  66
ENDBRANCH  48  61
ENDBRANCH   6  46
TORSDOF 12
