REMARK  Name = 
REMARK  9 active torsions:
REMARK  status: ('A' for Active; 'I' for Inactive)
REMARK    1  A    between atoms: C_2  and  C_7
REMARK    2  A    between atoms: C_5  and  C_19
REMARK    3  A    between atoms: C_7  and  C_8
REMARK    4  A    between atoms: C_8  and  C_9
REMARK    5  A    between atoms: N_20  and  CA_21
REMARK    6  A    between atoms: CA_21  and  CB_22
REMARK    7  A    between atoms: CA_21  and  C_27
REMARK    8  A    between atoms: CB_22  and  CG_23
REMARK    9  A    between atoms: CG_23  and  CD_24
REMARK                            x       y       z     vdW  Elec       q    Type
REMARK                         _______ _______ _______ _____ _____    ______ ____
ROOT
ATOM      1  C   UNK A   0      -0.536  -0.330   0.000  0.00  0.00    +0.000 A 
ATOM      2  C   UNK A   0      -0.536   0.454   0.000  0.00  0.00    +0.000 A 
ATOM      3  C   UNK A   0       0.165   0.907   0.000  0.00  0.00    +0.000 A 
ATOM      4  C   UNK A   0       0.907   0.454   0.000  0.00  0.00    +0.000 A 
ATOM      5  C   UNK A   0       0.907  -0.330   0.000  0.00  0.00    +0.000 A 
ATOM      6  C   UNK A   0       0.165  -0.743   0.000  0.00  0.00    +0.000 A 
ENDROOT
BRANCH   5   7
ATOM      7  C   UNK A   0       1.609  -0.743   0.000  0.00  0.00    +0.000 C 
ATOM      8  N   GLU A   1       2.351  -0.330   0.000  0.00  0.00    +0.000 NA
ATOM      9  O   UNK A   0       1.609  -1.567   0.000  0.00  0.00    +0.000 OA
BRANCH   8  10
ATOM     10  CA  GLU A   1       3.052  -0.743   0.000  0.00  0.00    +0.000 C 
BRANCH  10  11
ATOM     11  C   GLU A   1       3.052  -1.567   0.000  0.00  0.00    +0.000 C 
ATOM     12  O   GLU A   1       3.754  -1.980   0.000  0.00  0.00    +0.000 OA
ATOM     13  OXT GLU A   1       2.351  -1.980   0.000  0.00  0.00    +0.000 OA
ENDBRANCH  10  11
BRANCH  10  14
ATOM     14  CB  GLU A   1       3.754  -0.330   0.000  0.00  0.00    +0.000 C 
BRANCH  14  15
ATOM     15  CG  GLU A   1       4.496  -0.743   0.000  0.00  0.00    +0.000 C 
BRANCH  15  16
ATOM     16  CD  GLU A   1       5.197  -0.330   0.000  0.00  0.00    +0.000 C 
ATOM     17  OE1 GLU A   1       5.899  -0.743   0.000  0.00  0.00    +0.000 OA
ATOM     18  OE2 GLU A   1       5.197   0.454   0.000  0.00  0.00    +0.000 OA
ENDBRANCH  15  16
ENDBRANCH  14  15
ENDBRANCH  10  14
ENDBRANCH   8  10
ENDBRANCH   5   7
BRANCH   2  19
ATOM     19  C   UNK A   0      -1.238   0.907   0.000  0.00  0.00    +0.000 C 
BRANCH  19  20
ATOM     20  C   UNK A   0      -1.980   0.454   0.000  0.00  0.00    +0.000 C 
BRANCH  20  21
ATOM     21  C   UNK A   0      -2.681   0.907   0.000  0.00  0.00    +0.000 A 
ATOM     22  C   UNK A   0      -3.465   0.660   0.000  0.00  0.00    +0.000 A 
ATOM     23  C   UNK A   0      -3.960   1.320   0.000  0.00  0.00    +0.000 A 
ATOM     24  N   UNK A   0      -3.465   1.980   0.000  0.00  0.00    +0.000 NA
ATOM     25  C   UNK A   0      -2.681   1.732   0.000  0.00  0.00    +0.000 A 
ATOM     26  C   UNK A   0      -3.836  -0.124   0.000  0.00  0.00    +0.000 A 
ATOM     27  N   UNK A   0      -4.661  -0.123   0.000  0.00  0.00    +0.000 NA
ATOM     28  C   UNK A   0      -5.074   0.536   0.000  0.00  0.00    +0.000 A 
ATOM     29  N   UNK A   0      -4.785   1.279   0.000  0.00  0.00    +0.000 NA
ATOM     30  N   UNK A   0      -5.899   0.495   0.000  0.00  0.00    +0.000 NA
ATOM     31  O   UNK A   0      -3.382  -0.743   0.000  0.00  0.00    +0.000 OA
ENDBRANCH  20  21
ENDBRANCH  19  20
ENDBRANCH   2  19
TORSDOF 9
