REMARK  Name = 
REMARK  2 active torsions:
REMARK  status: ('A' for Active; 'I' for Inactive)
REMARK    1  A    between atoms: C_3  and  N_8
REMARK    2  A    between atoms: C_5  and  N_11
REMARK                            x       y       z     vdW  Elec       q    Type
REMARK                         _______ _______ _______ _____ _____    ______ ____
ROOT
ATOM      1  C   UNL     1       0.000   0.413   0.000  0.00  0.00    +0.000 A 
ATOM      2  C   UNL     1       0.000  -0.412   0.000  0.00  0.00    +0.000 A 
ATOM      3  C   UNL     1       0.715   0.825   0.000  0.00  0.00    +0.000 A 
ATOM      4  C   UNL     1      -0.715   0.825   0.000  0.00  0.00    +0.000 A 
ATOM      5  C   UNL     1       0.714  -0.825   0.000  0.00  0.00    +0.000 A 
ATOM      6  C   UNL     1      -0.715  -0.825   0.000  0.00  0.00    +0.000 A 
ATOM      7  N   UNL     1       1.429   0.412   0.000  0.00  0.00    +0.000 NA
ATOM      8  C   UNL     1      -1.429   0.413   0.000  0.00  0.00    +0.000 A 
ATOM      9  N   UNL     1       1.429  -0.412   0.000  0.00  0.00    +0.000 NA
ATOM     10  C   UNL     1      -1.429  -0.412   0.000  0.00  0.00    +0.000 A 
ENDROOT
BRANCH   3  11
ATOM     11  N   UNL     1       0.715   1.650   0.000  0.00  0.00    +0.000 NA
ATOM     12  N   UNL     1       1.429   2.063   0.000  0.00  0.00    +0.000 NA
ENDBRANCH   3  11
BRANCH   5  13
ATOM     13  N   UNL     1       0.714  -1.650   0.000  0.00  0.00    +0.000 NA
ATOM     14  N   UNL     1       1.429  -2.063   0.000  0.00  0.00    +0.000 NA
ENDBRANCH   5  13
TORSDOF 2
