REMARK  Name = 
REMARK  4 active torsions:
REMARK  status: ('A' for Active; 'I' for Inactive)
REMARK    1  A    between atoms: C_2  and  C_4
REMARK    2  A    between atoms: C_4  and  C_5
REMARK    3  A    between atoms: C_4  and  C_8
REMARK    4  A    between atoms: C_5  and  C_6
REMARK                            x       y       z     vdW  Elec       q    Type
REMARK                         _______ _______ _______ _____ _____    ______ ____
ROOT
ATOM      1  C   UNL     1       3.189   1.841   0.000  0.00  0.00    +0.000 C 
ENDROOT
BRANCH   1   2
ATOM      2  C   UNL     1       3.904   1.429   0.000  0.00  0.00    +0.000 C 
ATOM      3  O   UNL     1       3.904   0.604   0.000  0.00  0.00    +0.000 OA
ATOM      4  N   UNL     1       4.618   1.841   0.000  0.00  0.00    +0.000 NA
ATOM      5  C   UNL     1       5.333   1.429   0.000  0.00  0.00    +0.000 C 
ATOM      6  O   UNL     1       6.047   1.841   0.000  0.00  0.00    +0.000 OA
ATOM      7  N   UNL     1       5.333   0.604   0.000  0.00  0.00    +0.000 NA
ENDBRANCH   1   2
BRANCH   1   9
ATOM      8  C   UNL     1       3.904   3.079   0.000  0.00  0.00    +0.000 C 
ATOM      9  C   UNL     1       3.189   2.666   0.000  0.00  0.00    +0.000 C 
ATOM     10  C   UNL     1       2.475   3.079   0.000  0.00  0.00    +0.000 C 
ENDBRANCH   1   9
BRANCH   1  11
ATOM     11  C   UNL     1       2.475   1.429   0.000  0.00  0.00    +0.000 C 
BRANCH  11  12
ATOM     12  C   UNL     1       1.760   1.841   0.000  0.00  0.00    +0.000 C 
ATOM     13  C   UNL     1       1.046   1.429   0.000  0.00  0.00    +0.000 C 
ENDBRANCH  11  12
ENDBRANCH   1  11
TORSDOF 4
