REMARK  Name = 
REMARK  12 active torsions:
REMARK  status: ('A' for Active; 'I' for Inactive)
REMARK    1  A    between atoms: C_1  and  C_2
REMARK    2  A    between atoms: C_1  and  O_6
REMARK    3  A    between atoms: C_3  and  C_4
REMARK    4  A    between atoms: O_6  and  C_18
REMARK    5  A    between atoms: N_8  and  C_9
REMARK    6  A    between atoms: C_16  and  C_26
REMARK    7  A    between atoms: C_20  and  C_22
REMARK    8  A    between atoms: C_26  and  C_27
REMARK    9  A    between atoms: C_27  and  C_28
REMARK   10  A    between atoms: C_28  and  C_32
REMARK   11  A    between atoms: C_33  and  O_54
REMARK   12  A    between atoms: C_45  and  O_52
REMARK                            x       y       z     vdW  Elec       q    Type
REMARK                         _______ _______ _______ _____ _____    ______ ____
ROOT
ATOM      1  C   UNL     1      -1.528  -1.540   0.000  0.00  0.00    +0.000 C 
ATOM      2  O   UNL     1      -1.671  -2.353   0.000  0.00  0.00    +0.000 OA
ENDROOT
BRANCH   1   3
ATOM      3  C   UNL     1      -0.753  -1.258   0.000  0.00  0.00    +0.000 C 
ATOM      4  C   UNL     1      -0.610  -0.445   0.000  0.00  0.00    +0.000 C 
BRANCH   3   6
ATOM      5  O   UNL     1       0.712  -1.431   0.000  0.00  0.00    +0.000 OA
ATOM      6  C   UNL     1       0.076  -1.952   0.000  0.00  0.00    +0.000 C 
ATOM      7  C   UNL     1      -0.336  -2.666   0.000  0.00  0.00    +0.000 C 
ATOM      8  C   UNL     1      -0.418  -3.491   0.000  0.00  0.00    +0.000 C 
ATOM      9  C   UNL     1      -0.187  -4.283   0.000  0.00  0.00    +0.000 C 
ATOM     10  C   UNL     1       0.334  -4.918   0.000  0.00  0.00    +0.000 C 
ATOM     11  C   UNL     1       1.048  -5.331   0.000  0.00  0.00    +0.000 C 
ATOM     12  C   UNL     1       1.873  -5.413   0.000  0.00  0.00    +0.000 C 
ATOM     13  C   UNL     1       2.649  -5.191   0.000  0.00  0.00    +0.000 C 
ATOM     14  C   UNL     1       3.300  -4.661   0.000  0.00  0.00    +0.000 C 
ATOM     15  C   UNL     1       3.713  -3.947   0.000  0.00  0.00    +0.000 C 
ATOM     16  C   UNL     1       3.795  -3.122   0.000  0.00  0.00    +0.000 C 
ATOM     17  C   UNL     1       3.573  -2.346   0.000  0.00  0.00    +0.000 C 
ATOM     18  C   UNL     1       3.043  -1.694   0.000  0.00  0.00    +0.000 C 
ATOM     19  C   UNL     1       2.329  -1.282   0.000  0.00  0.00    +0.000 C 
ATOM     20  C   UNL     1       1.504  -1.200   0.000  0.00  0.00    +0.000 C 
ATOM     21  O   UNL     1       1.432  -0.378   0.000  0.00  0.00    +0.000 OA
ATOM     22  C   UNL     1       4.287  -1.933   0.000  0.00  0.00    +0.000 C 
ATOM     23  C   UNL     1       4.492  -4.190   0.000  0.00  0.00    +0.000 C 
ATOM     24  C   UNL     1       3.062  -5.905   0.000  0.00  0.00    +0.000 C 
ATOM     25  C   UNL     1       0.805  -6.110   0.000  0.00  0.00    +0.000 C 
ATOM     26  O   UNL     1       3.940  -5.196   0.000  0.00  0.00    +0.000 OA
BRANCH   7  27
ATOM     27  O   UNL     1      -1.115  -2.422   0.000  0.00  0.00    +0.000 OA
ATOM     28  C   UNL     1      -1.698  -3.006   0.000  0.00  0.00    +0.000 C 
ENDBRANCH   7  27
BRANCH  19  29
ATOM     29  O   UNL     1       2.572  -0.503   0.000  0.00  0.00    +0.000 OA
ATOM     30  C   UNL     1       3.378  -0.324   0.000  0.00  0.00    +0.000 C 
ENDBRANCH  19  29
ENDBRANCH   3   6
ENDBRANCH   1   3
BRANCH   1  31
ATOM     31  C   UNL     1      -2.160  -1.010   0.000  0.00  0.00    +0.000 C 
ATOM     32  C   UNL     1      -2.935  -1.292   0.000  0.00  0.00    +0.000 C 
BRANCH  31  33
ATOM     33  C   UNL     1      -2.017  -0.197   0.000  0.00  0.00    +0.000 C 
ATOM     34  C   UNL     1      -1.604   0.517   0.000  0.00  0.00    +0.000 C 
ATOM     35  C   UNL     1      -2.017   1.232   0.000  0.00  0.00    +0.000 C 
ATOM     36  C   UNL     1      -2.842   1.232   0.000  0.00  0.00    +0.000 C 
ATOM     37  C   UNL     1      -3.254   0.517   0.000  0.00  0.00    +0.000 C 
ATOM     38  O   UNL     1      -2.842  -0.197   0.000  0.00  0.00    +0.000 OA
ATOM     39  C   UNL     1      -3.254   1.946   0.000  0.00  0.00    +0.000 C 
ATOM     40  O   UNL     1      -1.242  -0.479   0.000  0.00  0.00    +0.000 OA
BRANCH  37  41
ATOM     41  C   UNL     1      -4.079   0.517   0.000  0.00  0.00    +0.000 C 
ATOM     42  C   UNL     1      -4.492  -0.197   0.000  0.00  0.00    +0.000 C 
ATOM     43  C   UNL     1      -4.492   1.232   0.000  0.00  0.00    +0.000 C 
ENDBRANCH  37  41
BRANCH  35  44
ATOM     44  O   UNL     1      -1.604   1.946   0.000  0.00  0.00    +0.000 OA
BRANCH  44  45
ATOM     45  C   UNL     1      -2.017   2.661   0.000  0.00  0.00    +0.000 C 
ATOM     46  O   UNL     1      -2.842   2.661   0.000  0.00  0.00    +0.000 OA
BRANCH  45  47
ATOM     47  C   UNL     1      -1.604   3.375   0.000  0.00  0.00    +0.000 C 
ATOM     48  C   UNL     1      -0.779   3.375   0.000  0.00  0.00    +0.000 C 
BRANCH  48  49
ATOM     49  C   UNL     1      -0.367   4.090   0.000  0.00  0.00    +0.000 C 
ATOM     50  O   UNL     1      -0.779   4.804   0.000  0.00  0.00    +0.000 OA
ATOM     51  N   UNL     1       0.458   4.090   0.000  0.00  0.00    +0.000 NA
BRANCH  51  52
ATOM     52  C   UNL     1       0.871   4.804   0.000  0.00  0.00    +0.000 C 
ATOM     53  C   UNL     1       1.691   4.890   0.000  0.00  0.00    +0.000 C 
ATOM     54  C   UNL     1       1.863   5.697   0.000  0.00  0.00    +0.000 C 
ATOM     55  C   UNL     1       1.148   6.110   0.000  0.00  0.00    +0.000 C 
ATOM     56  C   UNL     1       0.535   5.558   0.000  0.00  0.00    +0.000 C 
ATOM     57  O   UNL     1      -0.272   5.729   0.000  0.00  0.00    +0.000 OA
ATOM     58  O   UNL     1       2.243   4.277   0.000  0.00  0.00    +0.000 OA
ENDBRANCH  51  52
ENDBRANCH  48  49
ENDBRANCH  45  47
ENDBRANCH  44  45
ENDBRANCH  35  44
ENDBRANCH  31  33
ENDBRANCH   1  31
TORSDOF 12
