REMARK  Name = 
REMARK  5 active torsions:
REMARK  status: ('A' for Active; 'I' for Inactive)
REMARK    1  A    between atoms: C_3  and  C_4
REMARK    2  A    between atoms: C_4  and  S_5
REMARK    3  A    between atoms: S_5  and  C_6
REMARK    4  A    between atoms: C_10  and  C_11
REMARK    5  A    between atoms: C_15  and  N_17
REMARK                            x       y       z     vdW  Elec       q    Type
REMARK                         _______ _______ _______ _____ _____    ______ ____
ROOT
ATOM      1  C   UNL     1       0.978   0.206   0.000  0.00  0.00    +0.000 A 
ATOM      2  O   UNL     1       0.310  -0.279   0.000  0.00  0.00    +0.000 OA
ATOM      3  N   UNL     1      -0.102   0.991   0.000  0.00  0.00    +0.000 NA
ATOM      4  N   UNL     1       0.723   0.991   0.000  0.00  0.00    +0.000 NA
ATOM      5  C   UNL     1      -0.357   0.206   0.000  0.00  0.00    +0.000 A 
ENDROOT
BRANCH   5   6
ATOM      6  C   UNL     1      -1.072  -0.206   0.000  0.00  0.00    +0.000 A 
ATOM      7  C   UNL     1      -2.152  -0.991   0.000  0.00  0.00    +0.000 A 
ATOM      8  C   UNL     1      -1.327  -0.991   0.000  0.00  0.00    +0.000 A 
ATOM      9  O   UNL     1      -1.739   0.279   0.000  0.00  0.00    +0.000 OA
ATOM     10  C   UNL     1      -2.407  -0.206   0.000  0.00  0.00    +0.000 A 
BRANCH  10  12
ATOM     11  O   UNL     1      -3.121   1.031   0.000  0.00  0.00    +0.000 OA
ATOM     12  N   UNL     1      -3.121   0.206   0.000  0.00  0.00    +0.000 N 
ATOM     13  O   UNL     1      -3.836  -0.206   0.000  0.00  0.00    +0.000 OA
ENDBRANCH  10  12
ENDBRANCH   5   6
BRANCH   1  14
ATOM     14  S   UNL     1       1.692  -0.206   0.000  0.00  0.00    +0.000 S 
BRANCH  14  15
ATOM     15  C   UNL     1       2.406   0.206   0.000  0.00  0.00    +0.000 C 
BRANCH  15  18
ATOM     16  O   UNL     1       3.836   0.206   0.000  0.00  0.00    +0.000 OA
ATOM     17  O   UNL     1       3.121  -1.031   0.000  0.00  0.00    +0.000 OA
ATOM     18  C   UNL     1       3.121  -0.206   0.000  0.00  0.00    +0.000 C 
ENDBRANCH  15  18
ENDBRANCH  14  15
ENDBRANCH   1  14
TORSDOF 5
