REMARK  Name = 
REMARK  15 active torsions:
REMARK  status: ('A' for Active; 'I' for Inactive)
REMARK    1  A    between atoms: C_2  and  CA_3
REMARK    2  A    between atoms: CA_3  and  CB_5
REMARK    3  A    between atoms: CA_3  and  N_6
REMARK    4  A    between atoms: CB_5  and  CG_7
REMARK    5  A    between atoms: C_10  and  CA_11
REMARK    6  A    between atoms: CA_11  and  CB_13
REMARK    7  A    between atoms: CA_11  and  N_14
REMARK    8  A    between atoms: CB_13  and  CG_15
REMARK    9  A    between atoms: C_21  and  CA_23
REMARK   10  A    between atoms: CA_23  and  N_24
REMARK   11  A    between atoms: C_25  and  CA_27
REMARK   12  A    between atoms: CA_27  and  N_28
REMARK   13  A    between atoms: C_30  and  CA_31
REMARK   14  A    between atoms: CA_31  and  CB_33
REMARK   15  A    between atoms: CB_33  and  CG_34
REMARK                            x       y       z     vdW  Elec       q    Type
REMARK                         _______ _______ _______ _____ _____    ______ ____
ROOT
ATOM      1  N   PHE A   4      -0.352   2.473   0.000  0.00  0.00    +0.000 NA
ATOM      2  C   GLY A   3       0.352   2.052   0.000  0.00  0.00    +0.000 C 
ATOM      3  O   GLY A   3       1.069   2.473   0.000  0.00  0.00    +0.000 OA
ENDROOT
BRANCH   1   4
ATOM      4  CA  PHE A   4      -0.352   3.289   0.000  0.00  0.00    +0.000 C 
BRANCH   4   6
ATOM      5  N   LEU A   5      -1.786   3.289   0.000  0.00  0.00    +0.000 NA
ATOM      6  C   PHE A   4      -1.069   3.709   0.000  0.00  0.00    +0.000 C 
ATOM      7  O   PHE A   4      -1.069   4.537   0.000  0.00  0.00    +0.000 OA
BRANCH   5   8
ATOM      8  CA  LEU A   5      -2.491   3.709   0.000  0.00  0.00    +0.000 C 
BRANCH   8  10
ATOM      9  O   LEU A   5      -3.208   2.473   0.000  0.00  0.00    +0.000 OA
ATOM     10  C   LEU A   5      -3.208   3.289   0.000  0.00  0.00    +0.000 C 
ATOM     11  OXT LEU A   5      -3.925   3.709   0.000  0.00  0.00    +0.000 OA
ENDBRANCH   8  10
BRANCH   8  12
ATOM     12  CB  LEU A   5      -2.491   4.537   0.000  0.00  0.00    +0.000 C 
BRANCH  12  13
ATOM     13  CG  LEU A   5      -3.208   4.945   0.000  0.00  0.00    +0.000 C 
ATOM     14  CD1 LEU A   5      -3.925   4.537   0.000  0.00  0.00    +0.000 C 
ATOM     15  CD2 LEU A   5      -3.208   5.774   0.000  0.00  0.00    +0.000 C 
ENDBRANCH  12  13
ENDBRANCH   8  12
ENDBRANCH   5   8
ENDBRANCH   4   6
BRANCH   4  16
ATOM     16  CB  PHE A   4       0.352   3.709   0.000  0.00  0.00    +0.000 C 
BRANCH  16  17
ATOM     17  CG  PHE A   4       0.352   4.537   0.000  0.00  0.00    +0.000 A 
ATOM     18  CD1 PHE A   4      -0.352   4.945   0.000  0.00  0.00    +0.000 A 
ATOM     19  CD2 PHE A   4       1.069   4.945   0.000  0.00  0.00    +0.000 A 
ATOM     20  CE2 PHE A   4       1.069   5.774   0.000  0.00  0.00    +0.000 A 
ATOM     21  CE1 PHE A   4      -0.352   5.774   0.000  0.00  0.00    +0.000 A 
ATOM     22  CZ  PHE A   4       0.352   6.182   0.000  0.00  0.00    +0.000 A 
ENDBRANCH  16  17
ENDBRANCH   4  16
ENDBRANCH   1   4
BRANCH   2  23
ATOM     23  CA  GLY A   3       0.352   1.236   0.000  0.00  0.00    +0.000 C 
BRANCH  23  24
ATOM     24  N   GLY A   3       1.069   0.816   0.000  0.00  0.00    +0.000 NA
ATOM     25  C   ALA A   2       1.069   0.000   0.000  0.00  0.00    +0.000 C 
ATOM     26  O   ALA A   2       0.352  -0.408   0.000  0.00  0.00    +0.000 OA
BRANCH  25  27
ATOM     27  CA  ALA A   2       1.786  -0.408   0.000  0.00  0.00    +0.000 C 
ATOM     28  CB  ALA A   2       2.503   0.000   0.000  0.00  0.00    +0.000 C 
BRANCH  27  29
ATOM     29  N   ALA A   2       1.786  -1.236   0.000  0.00  0.00    +0.000 NA
ATOM     30  C   TYR A   1       2.503  -1.644   0.000  0.00  0.00    +0.000 C 
ATOM     31  O   TYR A   1       3.208  -1.236   0.000  0.00  0.00    +0.000 OA
BRANCH  30  32
ATOM     32  CA  TYR A   1       2.503  -2.473   0.000  0.00  0.00    +0.000 C 
ATOM     33  N   TYR A   1       1.786  -2.893   0.000  0.00  0.00    +0.000 NA
BRANCH  32  34
ATOM     34  CB  TYR A   1       3.208  -2.881   0.000  0.00  0.00    +0.000 C 
BRANCH  34  35
ATOM     35  CG  TYR A   1       3.208  -3.709   0.000  0.00  0.00    +0.000 A 
ATOM     36  CZ  TYR A   1       3.208  -5.353   0.000  0.00  0.00    +0.000 A 
ATOM     37  CD1 TYR A   1       2.503  -4.117   0.000  0.00  0.00    +0.000 A 
ATOM     38  CD2 TYR A   1       3.925  -4.117   0.000  0.00  0.00    +0.000 A 
ATOM     39  CE1 TYR A   1       2.503  -4.945   0.000  0.00  0.00    +0.000 A 
ATOM     40  CE2 TYR A   1       3.925  -4.945   0.000  0.00  0.00    +0.000 A 
ATOM     41  OH  TYR A   1       3.208  -6.182   0.000  0.00  0.00    +0.000 OA
ENDBRANCH  34  35
ENDBRANCH  32  34
ENDBRANCH  30  32
ENDBRANCH  27  29
ENDBRANCH  25  27
ENDBRANCH  23  24
ENDBRANCH   2  23
TORSDOF 15
