REMARK  Name = 
REMARK  8 active torsions:
REMARK  status: ('A' for Active; 'I' for Inactive)
REMARK    1  A    between atoms: N_1  and  C_2
REMARK    2  A    between atoms: N_1  and  C_5
REMARK    3  A    between atoms: C_2  and  C_3
REMARK    4  A    between atoms: C_10  and  C_14
REMARK    5  A    between atoms: C_16  and  C_19
REMARK    6  A    between atoms: C_21  and  C_22
REMARK    7  A    between atoms: C_24  and  O_27
REMARK    8  A    between atoms: O_27  and  C_28
REMARK                            x       y       z     vdW  Elec       q    Type
REMARK                         _______ _______ _______ _____ _____    ______ ____
ROOT
ATOM      1  C   UNL     1       0.017  -0.318   0.000  0.00  0.00    +0.000 A 
ATOM      2  N   UNL     1      -0.650   0.167   0.000  0.00  0.00    +0.000 NA
ATOM      3  C   UNL     1      -0.395   0.952   0.000  0.00  0.00    +0.000 A 
ATOM      4  O   UNL     1       0.430   0.952   0.000  0.00  0.00    +0.000 OA
ATOM      5  N   UNL     1       0.685   0.167   0.000  0.00  0.00    +0.000 NA
ENDROOT
BRANCH   1  11
ATOM      6  C   UNL     1       1.516  -2.635   0.000  0.00  0.00    +0.000 C 
ATOM      7  C   UNL     1       0.732  -2.380   0.000  0.00  0.00    +0.000 A 
ATOM      8  C   UNL     1       0.732  -1.555   0.000  0.00  0.00    +0.000 A 
ATOM      9  C   UNL     1       1.516  -1.300   0.000  0.00  0.00    +0.000 C 
ATOM     10  C   UNL     1       2.001  -1.968   0.000  0.00  0.00    +0.000 C 
ATOM     11  C   UNL     1       0.017  -1.143   0.000  0.00  0.00    +0.000 A 
ATOM     12  C   UNL     1      -0.697  -1.555   0.000  0.00  0.00    +0.000 A 
ATOM     13  C   UNL     1      -0.697  -2.380   0.000  0.00  0.00    +0.000 A 
ATOM     14  C   UNL     1       0.017  -2.793   0.000  0.00  0.00    +0.000 A 
BRANCH   6  15
ATOM     15  N   UNL     1       1.771  -3.420   0.000  0.00  0.00    +0.000 NA
BRANCH  15  16
ATOM     16  C   UNL     1       2.578  -3.591   0.000  0.00  0.00    +0.000 C 
BRANCH  16  17
ATOM     17  C   UNL     1       2.833  -4.376   0.000  0.00  0.00    +0.000 C 
ATOM     18  O   UNL     1       3.640  -4.548   0.000  0.00  0.00    +0.000 OA
ENDBRANCH  16  17
ENDBRANCH  15  16
ENDBRANCH   6  15
ENDBRANCH   1  11
BRANCH   3  19
ATOM     19  C   UNL     1      -0.880   1.619   0.000  0.00  0.00    +0.000 A 
ATOM     20  C   UNL     1      -0.544   2.373   0.000  0.00  0.00    +0.000 A 
ATOM     21  C   UNL     1      -1.029   3.040   0.000  0.00  0.00    +0.000 A 
ATOM     22  C   UNL     1      -1.850   2.954   0.000  0.00  0.00    +0.000 A 
ATOM     23  C   UNL     1      -2.185   2.200   0.000  0.00  0.00    +0.000 A 
ATOM     24  C   UNL     1      -1.700   1.533   0.000  0.00  0.00    +0.000 A 
BRANCH  21  25
ATOM     25  C   UNL     1      -0.694   3.794   0.000  0.00  0.00    +0.000 C 
ATOM     26  N   UNL     1      -0.358   4.548   0.000  0.00  0.00    +0.000 NA
ENDBRANCH  21  25
BRANCH  22  27
ATOM     27  O   UNL     1      -2.335   3.621   0.000  0.00  0.00    +0.000 OA
BRANCH  27  28
ATOM     28  C   UNL     1      -3.155   3.535   0.000  0.00  0.00    +0.000 C 
ATOM     29  C   UNL     1      -3.640   4.202   0.000  0.00  0.00    +0.000 C 
ATOM     30  C   UNL     1      -3.491   2.781   0.000  0.00  0.00    +0.000 C 
ENDBRANCH  27  28
ENDBRANCH  22  27
ENDBRANCH   3  19
TORSDOF 8
