REMARK  Name = 
REMARK  4 active torsions:
REMARK  status: ('A' for Active; 'I' for Inactive)
REMARK    1  A    between atoms: O_2  and  C_3
REMARK    2  A    between atoms: C_7  and  C_9
REMARK    3  A    between atoms: C_16  and  C_17
REMARK    4  A    between atoms: C_17  and  N_18
REMARK                            x       y       z     vdW  Elec       q    Type
REMARK                         _______ _______ _______ _____ _____    ______ ____
ROOT
ATOM      1  C   UNL     1      -1.775  -2.502   0.000  0.00  0.00    +0.000 C 
ATOM      2  O   UNL     1      -2.057  -1.726   0.000  0.00  0.00    +0.000 OA
ATOM      3  C   UNL     1      -1.245  -3.134   0.000  0.00  0.00    +0.000 C 
ATOM      4  C   UNL     1      -1.527  -3.909   0.000  0.00  0.00    +0.000 C 
ATOM      5  O   UNL     1      -0.997  -4.541   0.000  0.00  0.00    +0.000 OA
ATOM      6  C   UNL     1      -2.339  -4.052   0.000  0.00  0.00    +0.000 C 
ATOM      7  C   UNL     1      -2.870  -3.420   0.000  0.00  0.00    +0.000 C 
ATOM      8  C   UNL     1      -2.587  -2.645   0.000  0.00  0.00    +0.000 C 
ENDROOT
BRANCH   1  13
ATOM      9  C   UNL     1      -0.346  -0.852   0.000  0.00  0.00    +0.000 A 
ATOM     10  C   UNL     1       0.368  -1.264   0.000  0.00  0.00    +0.000 A 
ATOM     11  C   UNL     1       0.368  -2.089   0.000  0.00  0.00    +0.000 A 
ATOM     12  C   UNL     1      -0.346  -2.502   0.000  0.00  0.00    +0.000 A 
ATOM     13  C   UNL     1      -1.061  -2.089   0.000  0.00  0.00    +0.000 A 
ATOM     14  C   UNL     1      -1.061  -1.264   0.000  0.00  0.00    +0.000 A 
BRANCH   9  16
ATOM     15  C   UNL     1       0.368   0.386   0.000  0.00  0.00    +0.000 C 
ATOM     16  O   UNL     1      -0.346  -0.026   0.000  0.00  0.00    +0.000 OA
ENDBRANCH   9  16
ENDBRANCH   1  13
BRANCH   8  17
ATOM     17  C   UNL     1      -3.118  -2.013   0.000  0.00  0.00    +0.000 C 
BRANCH  17  18
ATOM     18  N   UNL     1      -2.836  -1.238   0.000  0.00  0.00    +0.000 NA
ATOM     19  C   UNL     1      -3.366  -0.606   0.000  0.00  0.00    +0.000 C 
ATOM     20  C   UNL     1      -2.023  -1.094   0.000  0.00  0.00    +0.000 C 
ENDBRANCH  17  18
ENDBRANCH   8  17
TORSDOF 4
