REMARK  Name = 
REMARK  6 active torsions:
REMARK  status: ('A' for Active; 'I' for Inactive)
REMARK    1  A    between atoms: C_3  and  C_13
REMARK    2  A    between atoms: C_5  and  C_7
REMARK    3  A    between atoms: N_9  and  C_10
REMARK    4  A    between atoms: C_10  and  C_11
REMARK    5  A    between atoms: N_15  and  C_16
REMARK    6  A    between atoms: C_16  and  C_17
REMARK                            x       y       z     vdW  Elec       q    Type
REMARK                         _______ _______ _______ _____ _____    ______ ____
ROOT
ATOM      1  C   UNL     1      -3.572   2.062   0.000  0.00  0.00    +0.000 A 
ATOM      2  C   UNL     1      -2.858   2.475   0.000  0.00  0.00    +0.000 A 
ATOM      3  C   UNL     1      -2.143   2.062   0.000  0.00  0.00    +0.000 A 
ATOM      4  C   UNL     1      -2.143   1.238   0.000  0.00  0.00    +0.000 A 
ATOM      5  C   UNL     1      -2.858   0.825   0.000  0.00  0.00    +0.000 A 
ATOM      6  C   UNL     1      -3.572   1.238   0.000  0.00  0.00    +0.000 A 
ENDROOT
BRANCH   5   7
ATOM      7  C   UNL     1      -2.858   0.000   0.000  0.00  0.00    +0.000 C 
ATOM      8  O   UNL     1      -2.143  -0.412   0.000  0.00  0.00    +0.000 OA
ATOM      9  N   UNL     1      -3.572  -0.412   0.000  0.00  0.00    +0.000 NA
BRANCH   9  10
ATOM     10  C   UNL     1      -3.572  -1.238   0.000  0.00  0.00    +0.000 C 
BRANCH  10  11
ATOM     11  C   UNL     1      -4.287  -1.650   0.000  0.00  0.00    +0.000 C 
ATOM     12  S   UNL     1      -4.287  -2.475   0.000  0.00  0.00    +0.000 S 
ENDBRANCH  10  11
ENDBRANCH   9  10
ENDBRANCH   5   7
BRANCH   3  13
ATOM     13  C   UNL     1      -1.429   2.475   0.000  0.00  0.00    +0.000 C 
ATOM     14  O   UNL     1      -1.429   3.300   0.000  0.00  0.00    +0.000 OA
ATOM     15  N   UNL     1      -0.715   2.062   0.000  0.00  0.00    +0.000 NA
BRANCH  15  16
ATOM     16  C   UNL     1       0.000   2.475   0.000  0.00  0.00    +0.000 C 
BRANCH  16  17
ATOM     17  C   UNL     1       0.715   2.062   0.000  0.00  0.00    +0.000 C 
ATOM     18  S   UNL     1       1.429   2.475   0.000  0.00  0.00    +0.000 S 
ENDBRANCH  16  17
ENDBRANCH  15  16
ENDBRANCH   3  13
TORSDOF 6
