REMARK  Name = 
REMARK  10 active torsions:
REMARK  status: ('A' for Active; 'I' for Inactive)
REMARK    1  A    between atoms: C_2  and  N_14
REMARK    2  A    between atoms: C_4  and  C_35
REMARK    3  A    between atoms: C_6  and  C_7
REMARK    4  A    between atoms: C_7  and  C_8
REMARK    5  A    between atoms: C_10  and  C_34
REMARK    6  A    between atoms: C_12  and  N_15
REMARK    7  A    between atoms: C_34  and  C_38
REMARK    8  A    between atoms: C_35  and  C_45
REMARK    9  A    between atoms: C_38  and  C_41
REMARK   10  A    between atoms: C_45  and  C_46
REMARK                            x       y       z     vdW  Elec       q    Type
REMARK                         _______ _______ _______ _____ _____    ______ ____
ROOT
ATOM      1  C   UNL     1       0.000   0.590   0.000  0.00  0.00    +0.000 C 
ENDROOT
BRANCH   1   7
ATOM      2  C   UNL     1      -1.429   0.590   0.000  0.00  0.00    +0.000 A 
ATOM      3  C   UNL     1      -2.143   0.178   0.000  0.00  0.00    +0.000 A 
ATOM      4  C   UNL     1      -2.143  -0.647   0.000  0.00  0.00    +0.000 A 
ATOM      5  C   UNL     1      -1.429  -1.060   0.000  0.00  0.00    +0.000 A 
ATOM      6  C   UNL     1      -0.714  -0.647   0.000  0.00  0.00    +0.000 A 
ATOM      7  C   UNL     1      -0.714   0.178   0.000  0.00  0.00    +0.000 A 
ATOM      8  O   UNL     1      -1.429   1.415   0.000  0.00  0.00    +0.000 OA
BRANCH   3   9
ATOM      9  N   UNL     1      -2.858   0.590   0.000  0.00  0.00    +0.000 N 
ATOM     10  N   UNL     1      -2.944   1.411   0.000  0.00  0.00    +0.000 NA
ATOM     11  C   UNL     1      -3.751   1.582   0.000  0.00  0.00    +0.000 A 
ATOM     12  C   UNL     1      -4.163   0.868   0.000  0.00  0.00    +0.000 A 
ATOM     13  N   UNL     1      -3.612   0.255   0.000  0.00  0.00    +0.000 NA
ATOM     14  C   UNL     1      -4.163   2.297   0.000  0.00  0.00    +0.000 A 
ATOM     15  C   UNL     1      -4.989   2.297   0.000  0.00  0.00    +0.000 A 
ATOM     16  C   UNL     1      -5.401   1.583   0.000  0.00  0.00    +0.000 A 
ATOM     17  C   UNL     1      -4.989   0.868   0.000  0.00  0.00    +0.000 A 
ENDBRANCH   3   9
BRANCH   5  18
ATOM     18  C   UNL     1      -1.429  -1.885   0.000  0.00  0.00    +0.000 C 
ATOM     19  C   UNL     1      -0.714  -2.297   0.000  0.00  0.00    +0.000 C 
ATOM     20  C   UNL     1      -0.714  -1.472   0.000  0.00  0.00    +0.000 C 
BRANCH  18  21
ATOM     21  C   UNL     1      -2.143  -2.297   0.000  0.00  0.00    +0.000 C 
BRANCH  21  22
ATOM     22  C   UNL     1      -2.858  -1.885   0.000  0.00  0.00    +0.000 C 
ATOM     23  C   UNL     1      -3.572  -2.297   0.000  0.00  0.00    +0.000 C 
ATOM     24  C   UNL     1      -2.858  -1.060   0.000  0.00  0.00    +0.000 C 
ATOM     25  C   UNL     1      -3.572  -1.472   0.000  0.00  0.00    +0.000 C 
ENDBRANCH  21  22
ENDBRANCH  18  21
ENDBRANCH   5  18
ENDBRANCH   1   7
BRANCH   1  26
ATOM     26  C   UNL     1       0.715   0.178   0.000  0.00  0.00    +0.000 A 
ATOM     27  C   UNL     1       0.715  -0.647   0.000  0.00  0.00    +0.000 A 
ATOM     28  C   UNL     1       1.429  -1.060   0.000  0.00  0.00    +0.000 A 
ATOM     29  C   UNL     1       2.143  -0.647   0.000  0.00  0.00    +0.000 A 
ATOM     30  C   UNL     1       2.143   0.178   0.000  0.00  0.00    +0.000 A 
ATOM     31  C   UNL     1       1.429   0.591   0.000  0.00  0.00    +0.000 A 
ATOM     32  O   UNL     1       1.429   1.415   0.000  0.00  0.00    +0.000 OA
BRANCH  30  33
ATOM     33  N   UNL     1       2.858   0.590   0.000  0.00  0.00    +0.000 N 
ATOM     34  N   UNL     1       3.612   0.255   0.000  0.00  0.00    +0.000 NA
ATOM     35  C   UNL     1       4.164   0.868   0.000  0.00  0.00    +0.000 A 
ATOM     36  C   UNL     1       3.751   1.582   0.000  0.00  0.00    +0.000 A 
ATOM     37  N   UNL     1       2.944   1.411   0.000  0.00  0.00    +0.000 NA
ATOM     38  C   UNL     1       4.164   2.297   0.000  0.00  0.00    +0.000 A 
ATOM     39  C   UNL     1       4.989   2.297   0.000  0.00  0.00    +0.000 A 
ATOM     40  C   UNL     1       5.401   1.583   0.000  0.00  0.00    +0.000 A 
ATOM     41  C   UNL     1       4.989   0.868   0.000  0.00  0.00    +0.000 A 
ENDBRANCH  30  33
BRANCH  28  42
ATOM     42  C   UNL     1       1.429  -1.885   0.000  0.00  0.00    +0.000 C 
ATOM     43  C   UNL     1       0.715  -2.297   0.000  0.00  0.00    +0.000 C 
ATOM     44  C   UNL     1       0.715  -1.472   0.000  0.00  0.00    +0.000 C 
BRANCH  42  45
ATOM     45  C   UNL     1       2.143  -2.297   0.000  0.00  0.00    +0.000 C 
BRANCH  45  46
ATOM     46  C   UNL     1       2.858  -1.885   0.000  0.00  0.00    +0.000 C 
ATOM     47  C   UNL     1       3.572  -2.297   0.000  0.00  0.00    +0.000 C 
ATOM     48  C   UNL     1       2.858  -1.060   0.000  0.00  0.00    +0.000 C 
ATOM     49  C   UNL     1       3.572  -1.472   0.000  0.00  0.00    +0.000 C 
ENDBRANCH  45  46
ENDBRANCH  42  45
ENDBRANCH  28  42
ENDBRANCH   1  26
TORSDOF 10
