REMARK  Name = 
REMARK  19 active torsions:
REMARK  status: ('A' for Active; 'I' for Inactive)
REMARK    1  A    between atoms: O_1  and  C_25
REMARK    2  A    between atoms: O_1  and  C_33
REMARK    3  A    between atoms: O_3  and  C_29
REMARK    4  A    between atoms: O_3  and  C_41
REMARK    5  A    between atoms: O_9  and  C_46
REMARK    6  A    between atoms: N_13  and  C_20
REMARK    7  A    between atoms: N_14  and  C_16
REMARK    8  A    between atoms: N_15  and  C_26
REMARK    9  A    between atoms: N_15  and  C_30
REMARK   10  A    between atoms: C_16  and  C_17
REMARK   11  A    between atoms: C_16  and  C_21
REMARK   12  A    between atoms: C_17  and  C_18
REMARK   13  A    between atoms: C_19  and  C_20
REMARK   14  A    between atoms: C_19  and  C_22
REMARK   15  A    between atoms: C_22  and  C_25
REMARK   16  A    between atoms: C_31  and  C_42
REMARK   17  A    between atoms: C_32  and  C_43
REMARK   18  A    between atoms: C_35  and  C_46
REMARK   19  A    between atoms: C_41  and  C_47
REMARK                            x       y       z     vdW  Elec       q    Type
REMARK                         _______ _______ _______ _____ _____    ______ ____
ROOT
ATOM      1  C   UNL     1      -1.472   0.619   0.000  0.00  0.00    +0.000 C 
ENDROOT
BRANCH   1   3
ATOM      2  O   UNL     1      -1.472   2.269   0.000  0.00  0.00    +0.000 OA
ATOM      3  N   UNL     1      -2.187   1.031   0.000  0.00  0.00    +0.000 N 
ATOM      4  C   UNL     1      -2.187   1.856   0.000  0.00  0.00    +0.000 C 
ATOM      5  H   UNL     1      -2.629   0.775   0.000  0.00  0.00    +0.000 HD
BRANCH   4   6
ATOM      6  O   UNL     1      -2.901   2.269   0.000  0.00  0.00    +0.000 OA
BRANCH   6   7
ATOM      7  C   UNL     1      -2.901   3.094   0.000  0.00  0.00    +0.000 C 
BRANCH   7   8
ATOM      8  C   UNL     1      -3.615   3.506   0.000  0.00  0.00    +0.000 C 
ATOM      9  C   UNL     1      -3.615   4.331   0.000  0.00  0.00    +0.000 C 
ENDBRANCH   7   8
ENDBRANCH   6   7
ENDBRANCH   4   6
ENDBRANCH   1   3
BRANCH   1  12
ATOM     10  O   UNL     1      -0.757   1.856   0.000  0.00  0.00    +0.000 OA
ATOM     11  N   UNL     1      -0.043   0.619   0.000  0.00  0.00    +0.000 N 
ATOM     12  C   UNL     1      -0.757   1.031   0.000  0.00  0.00    +0.000 C 
ATOM     13  H   UNL     1      -0.043   0.107   0.000  0.00  0.00    +0.000 HD
BRANCH  11  14
ATOM     14  C   UNL     1       0.671   1.031   0.000  0.00  0.00    +0.000 C 
BRANCH  14  15
ATOM     15  C   UNL     1       1.386   0.619   0.000  0.00  0.00    +0.000 C 
BRANCH  15  16
ATOM     16  C   UNL     1       2.100   1.031   0.000  0.00  0.00    +0.000 C 
BRANCH  16  17
ATOM     17  C   UNL     1       2.815   0.619   0.000  0.00  0.00    +0.000 C 
BRANCH  17  18
ATOM     18  O   UNL     1       3.529   1.031   0.000  0.00  0.00    +0.000 OA
BRANCH  18  20
ATOM     19  O   UNL     1       6.387   1.031   0.000  0.00  0.00    +0.000 OA
ATOM     20  C   UNL     1       4.244   0.619   0.000  0.00  0.00    +0.000 A 
ATOM     21  C   UNL     1       4.958   1.031   0.000  0.00  0.00    +0.000 A 
ATOM     22  C   UNL     1       4.244  -0.206   0.000  0.00  0.00    +0.000 A 
ATOM     23  C   UNL     1       5.673   0.619   0.000  0.00  0.00    +0.000 A 
ATOM     24  C   UNL     1       4.958  -0.619   0.000  0.00  0.00    +0.000 A 
ATOM     25  C   UNL     1       5.673  -0.206   0.000  0.00  0.00    +0.000 A 
BRANCH  21  27
ATOM     26  O   UNL     1       4.244   2.269   0.000  0.00  0.00    +0.000 OA
ATOM     27  C   UNL     1       4.958   1.856   0.000  0.00  0.00    +0.000 C 
BRANCH  27  28
ATOM     28  O   UNL     1       5.673   2.269   0.000  0.00  0.00    +0.000 OA
ATOM     29  C   UNL     1       5.673   3.094   0.000  0.00  0.00    +0.000 C 
ENDBRANCH  27  28
ENDBRANCH  21  27
ENDBRANCH  18  20
ENDBRANCH  17  18
ENDBRANCH  16  17
ENDBRANCH  15  16
ENDBRANCH  14  15
ENDBRANCH  11  14
ENDBRANCH   1  12
BRANCH   1  30
ATOM     30  C   UNL     1      -1.472  -0.206   0.000  0.00  0.00    +0.000 C 
BRANCH  30  31
ATOM     31  C   UNL     1      -2.187  -0.619   0.000  0.00  0.00    +0.000 A 
ATOM     32  C   UNL     1      -2.187  -1.444   0.000  0.00  0.00    +0.000 A 
ATOM     33  C   UNL     1      -2.901  -0.206   0.000  0.00  0.00    +0.000 A 
ATOM     34  C   UNL     1      -3.615  -1.444   0.000  0.00  0.00    +0.000 A 
ATOM     35  C   UNL     1      -2.901  -1.856   0.000  0.00  0.00    +0.000 A 
ATOM     36  C   UNL     1      -3.615  -0.619   0.000  0.00  0.00    +0.000 A 
BRANCH  34  38
ATOM     37  O   UNL     1      -5.857  -1.300   0.000  0.00  0.00    +0.000 OA
ATOM     38  N   UNL     1      -4.330  -1.856   0.000  0.00  0.00    +0.000 N 
ATOM     39  C   UNL     1      -5.044  -1.444   0.000  0.00  0.00    +0.000 C 
BRANCH  38  40
ATOM     40  C   UNL     1      -4.330  -2.681   0.000  0.00  0.00    +0.000 A 
ATOM     41  C   UNL     1      -5.044  -3.094   0.000  0.00  0.00    +0.000 A 
ATOM     42  C   UNL     1      -3.615  -3.094   0.000  0.00  0.00    +0.000 A 
ATOM     43  C   UNL     1      -5.044  -3.919   0.000  0.00  0.00    +0.000 A 
ATOM     44  C   UNL     1      -3.615  -3.919   0.000  0.00  0.00    +0.000 A 
ATOM     45  C   UNL     1      -4.330  -4.331   0.000  0.00  0.00    +0.000 A 
BRANCH  41  48
ATOM     46  O   UNL     1      -6.139  -4.012   0.000  0.00  0.00    +0.000 OA
ATOM     47  O   UNL     1      -6.387  -2.605   0.000  0.00  0.00    +0.000 OA
ATOM     48  C   UNL     1      -5.857  -3.237   0.000  0.00  0.00    +0.000 C 
ENDBRANCH  41  48
ENDBRANCH  38  40
BRANCH  39  51
ATOM     49  O   UNL     1      -5.759  -0.206   0.000  0.00  0.00    +0.000 OA
ATOM     50  O   UNL     1      -4.330  -0.206   0.000  0.00  0.00    +0.000 OA
ATOM     51  C   UNL     1      -5.044  -0.619   0.000  0.00  0.00    +0.000 C 
ENDBRANCH  39  51
ENDBRANCH  34  38
ENDBRANCH  30  31
ENDBRANCH   1  30
TORSDOF 19
