REMARK  Name = 
REMARK  4 active torsions:
REMARK  status: ('A' for Active; 'I' for Inactive)
REMARK    1  A    between atoms: C_1  and  C_4
REMARK    2  A    between atoms: N_7  and  N_9
REMARK    3  A    between atoms: N_12  and  N_14
REMARK    4  A    between atoms: C_15  and  C_16
REMARK                            x       y       z     vdW  Elec       q    Type
REMARK                         _______ _______ _______ _____ _____    ______ ____
ROOT
ATOM      1  N   UNL     1      -0.700  -0.847   0.000  0.00  0.00    +0.000 NA
ATOM      2  C   UNL     1       0.025  -0.391   0.000  0.00  0.00    +0.000 C 
ATOM      3  N   UNL     1       0.753  -0.834   0.000  0.00  0.00    +0.000 NA
ATOM      4  N   UNL     1       0.025   0.242   0.000  0.00  0.00    +0.000 NA
ENDROOT
BRANCH   1   6
ATOM      5  C   UNL     1      -2.174  -0.851   0.000  0.00  0.00    +0.000 C 
ATOM      6  N   UNL     1      -1.359  -0.414   0.000  0.00  0.00    +0.000 NA
BRANCH   5   7
ATOM      7  C   UNL     1      -2.832  -0.430   0.000  0.00  0.00    +0.000 A 
ATOM      8  C   UNL     1      -3.574  -0.824   0.000  0.00  0.00    +0.000 A 
ATOM      9  C   UNL     1      -2.799   0.377   0.000  0.00  0.00    +0.000 A 
ATOM     10  C   UNL     1      -4.266  -0.391   0.000  0.00  0.00    +0.000 A 
ATOM     11  C   UNL     1      -3.508   0.831   0.000  0.00  0.00    +0.000 A 
ATOM     12  C   UNL     1      -4.233   0.434   0.000  0.00  0.00    +0.000 A 
ATOM     13 CL   UNL     1      -4.905   0.851   0.000  0.00  0.00    +0.000 Cl
ENDBRANCH   5   7
ENDBRANCH   1   6
BRANCH   3  14
ATOM     14  N   UNL     1       1.442  -0.414   0.000  0.00  0.00    +0.000 NA
ATOM     15  C   UNL     1       2.140  -0.851   0.000  0.00  0.00    +0.000 C 
BRANCH  15  16
ATOM     16  C   UNL     1       2.806  -0.427   0.000  0.00  0.00    +0.000 A 
ATOM     17  C   UNL     1       2.822   0.427   0.000  0.00  0.00    +0.000 A 
ATOM     18  C   UNL     1       3.518  -0.847   0.000  0.00  0.00    +0.000 A 
ATOM     19  C   UNL     1       3.538   0.808   0.000  0.00  0.00    +0.000 A 
ATOM     20  C   UNL     1       4.253  -0.424   0.000  0.00  0.00    +0.000 A 
ATOM     21  C   UNL     1       4.223   0.404   0.000  0.00  0.00    +0.000 A 
ATOM     22 CL   UNL     1       4.905   0.808   0.000  0.00  0.00    +0.000 Cl
ENDBRANCH  15  16
ENDBRANCH   3  14
TORSDOF 4
