REMARK  Name = 
REMARK  4 active torsions:
REMARK  status: ('A' for Active; 'I' for Inactive)
REMARK    1  A    between atoms: C_1  and  C_2
REMARK    2  A    between atoms: C_2  and  C_8
REMARK    3  A    between atoms: N_11  and  C_12
REMARK    4  A    between atoms: C_12  and  C_13
REMARK                            x       y       z     vdW  Elec       q    Type
REMARK                         _______ _______ _______ _____ _____    ______ ____
ROOT
ATOM      1  C   UNL     1      -1.115  -0.497   0.000  0.00  0.00    +0.000 C 
ATOM      2  O   UNL     1      -1.115  -1.322   0.000  0.00  0.00    +0.000 OA
ATOM      3  N   UNL     1      -0.400  -0.085   0.000  0.00  0.00    +0.000 NA
ENDROOT
BRANCH   1   4
ATOM      4  C   UNL     1      -1.829  -0.085   0.000  0.00  0.00    +0.000 C 
ATOM      5  C   UNL     1      -1.547   0.690   0.000  0.00  0.00    +0.000 C 
ATOM      6  C   UNL     1      -0.915   1.221   0.000  0.00  0.00    +0.000 C 
ATOM      7  C   UNL     1      -2.360   0.547   0.000  0.00  0.00    +0.000 C 
ATOM      8 CL   UNL     1      -2.642   1.322   0.000  0.00  0.00    +0.000 Cl
ATOM      9 CL   UNL     1      -3.074   0.135   0.000  0.00  0.00    +0.000 Cl
BRANCH   4  10
ATOM     10  C   UNL     1      -2.360  -0.717   0.000  0.00  0.00    +0.000 C 
ATOM     11  C   UNL     1      -3.172  -0.574   0.000  0.00  0.00    +0.000 C 
ENDBRANCH   4  10
ENDBRANCH   1   4
BRANCH   3  12
ATOM     12  C   UNL     1       0.314  -0.497   0.000  0.00  0.00    +0.000 C 
ATOM     13  C   UNL     1       0.314  -1.322   0.000  0.00  0.00    +0.000 C 
BRANCH  12  14
ATOM     14  C   UNL     1       1.029  -0.085   0.000  0.00  0.00    +0.000 A 
ATOM     15  C   UNL     1       1.743  -0.497   0.000  0.00  0.00    +0.000 A 
ATOM     16  C   UNL     1       2.458  -0.085   0.000  0.00  0.00    +0.000 A 
ATOM     17  C   UNL     1       2.458   0.740   0.000  0.00  0.00    +0.000 A 
ATOM     18 CL   UNL     1       3.172   1.153   0.000  0.00  0.00    +0.000 Cl
ATOM     19  C   UNL     1       1.743   1.153   0.000  0.00  0.00    +0.000 A 
ATOM     20  C   UNL     1       1.029   0.740   0.000  0.00  0.00    +0.000 A 
ENDBRANCH  12  14
ENDBRANCH   3  12
TORSDOF 4
