REMARK  Name = 
REMARK  12 active torsions:
REMARK  status: ('A' for Active; 'I' for Inactive)
REMARK    1  A    between atoms: N_9  and  C_10
REMARK    2  A    between atoms: C_10  and  C_11
REMARK    3  A    between atoms: C_20  and  O_21
REMARK    4  A    between atoms: C_23  and  C_26
REMARK    5  A    between atoms: C_26  and  C_29
REMARK    6  A    between atoms: C_35  and  O_36
REMARK    7  A    between atoms: O_36  and  C_37
REMARK    8  A    between atoms: C_37  and  C_39
REMARK    9  A    between atoms: C_39  and  C_40
REMARK   10  A    between atoms: C_40  and  C_41
REMARK   11  A    between atoms: C_41  and  C_42
REMARK   12  A    between atoms: C_42  and  C_43
REMARK                            x       y       z     vdW  Elec       q    Type
REMARK                         _______ _______ _______ _____ _____    ______ ____
ROOT
ATOM      1  C   UNL     1       3.962  -1.366   0.000  0.00  0.00    +0.000 C 
ATOM      2  O   UNL     1       4.563  -1.963   0.000  0.00  0.00    +0.000 OA
ATOM      3  C   UNL     1       5.248  -1.478   0.000  0.00  0.00    +0.000 A 
ATOM      4  C   UNL     1       4.939  -0.663   0.000  0.00  0.00    +0.000 A 
ATOM      5  C   UNL     1       5.618  -0.139   0.000  0.00  0.00    +0.000 A 
ATOM      6  C   UNL     1       5.191   0.593   0.000  0.00  0.00    +0.000 C 
ATOM      7  C   UNL     1       4.323   0.546   0.000  0.00  0.00    +0.000 C 
ATOM      8  N   UNL     1       4.408   1.413   0.000  0.00  0.00    +0.000 NA
ATOM      9  C   UNL     1       3.586   1.312   0.000  0.00  0.00    +0.000 C 
ATOM     10  C   UNL     1       3.791   0.478   0.000  0.00  0.00    +0.000 C 
ATOM     11  C   UNL     1       4.103  -0.427   0.000  0.00  0.00    +0.000 C 
ATOM     12  C   UNL     1       3.418   0.104   0.000  0.00  0.00    +0.000 C 
ATOM     13  C   UNL     1       3.421  -0.627   0.000  0.00  0.00    +0.000 C 
ATOM     14  C   UNL     1       3.102  -1.279   0.000  0.00  0.00    +0.000 C 
ATOM     15  C   UNL     1       3.238  -1.963   0.000  0.00  0.00    +0.000 C 
ATOM     16  C   UNL     1       2.513  -1.342   0.000  0.00  0.00    +0.000 C 
ATOM     17  C   UNL     1       2.652  -0.445   0.000  0.00  0.00    +0.000 C 
ATOM     18  C   UNL     1       6.444  -0.355   0.000  0.00  0.00    +0.000 A 
ATOM     19  C   UNL     1       6.642  -1.168   0.000  0.00  0.00    +0.000 A 
ATOM     20  C   UNL     1       6.050  -1.749   0.000  0.00  0.00    +0.000 A 
ENDROOT
BRANCH  16  21
ATOM     21  C   UNL     1       1.739  -1.629   0.000  0.00  0.00    +0.000 C 
ATOM     22  C   UNL     1       1.453  -0.855   0.000  0.00  0.00    +0.000 C 
ATOM     23  O   UNL     1       2.026  -2.402   0.000  0.00  0.00    +0.000 OA
BRANCH  21  24
ATOM     24  C   UNL     1       0.966  -1.915   0.000  0.00  0.00    +0.000 C 
ATOM     25  C   UNL     1       0.679  -1.141   0.000  0.00  0.00    +0.000 C 
ATOM     26  C   UNL     1       1.252  -2.689   0.000  0.00  0.00    +0.000 C 
ATOM     27  C   UNL     1       0.192  -2.201   0.000  0.00  0.00    +0.000 C 
ENDBRANCH  21  24
ENDBRANCH  16  21
BRANCH  15  28
ATOM     28  O   UNL     1       3.230  -2.788   0.000  0.00  0.00    +0.000 OA
ATOM     29  C   UNL     1       3.941  -3.207   0.000  0.00  0.00    +0.000 C 
ENDBRANCH  15  28
BRANCH   8  30
ATOM     30  C   UNL     1       4.984   2.003   0.000  0.00  0.00    +0.000 C 
BRANCH  30  31
ATOM     31  C   UNL     1       4.761   2.797   0.000  0.00  0.00    +0.000 C 
ATOM     32  C   UNL     1       4.170   3.374   0.000  0.00  0.00    +0.000 C 
ATOM     33  C   UNL     1       4.964   3.597   0.000  0.00  0.00    +0.000 C 
ENDBRANCH  30  31
ENDBRANCH   8  30
BRANCH  20  34
ATOM     34  O   UNL     1       6.234  -2.554   0.000  0.00  0.00    +0.000 OA
BRANCH  34  35
ATOM     35  C   UNL     1       7.023  -2.796   0.000  0.00  0.00    +0.000 C 
ATOM     36  O   UNL     1       7.627  -2.235   0.000  0.00  0.00    +0.000 OA
BRANCH  35  37
ATOM     37  C   UNL     1       7.207  -3.600   0.000  0.00  0.00    +0.000 C 
BRANCH  37  38
ATOM     38  C   UNL     1       7.995  -3.843   0.000  0.00  0.00    +0.000 C 
BRANCH  38  39
ATOM     39  C   UNL     1       8.180  -4.647   0.000  0.00  0.00    +0.000 C 
BRANCH  39  40
ATOM     40  C   UNL     1       8.968  -4.890   0.000  0.00  0.00    +0.000 C 
BRANCH  40  41
ATOM     41  C   UNL     1       9.152  -5.694   0.000  0.00  0.00    +0.000 C 
ATOM     42  O   UNL     1       9.941  -5.937   0.000  0.00  0.00    +0.000 OA
ATOM     43  O   UNL     1       8.548  -6.256   0.000  0.00  0.00    +0.000 OA
ENDBRANCH  40  41
ENDBRANCH  39  40
ENDBRANCH  38  39
ENDBRANCH  37  38
ENDBRANCH  35  37
ENDBRANCH  34  35
ENDBRANCH  20  34
TORSDOF 12
