REMARK  Name = 
REMARK  7 active torsions:
REMARK  status: ('A' for Active; 'I' for Inactive)
REMARK    1  A    between atoms: C_2  and  S_4
REMARK    2  A    between atoms: S_4  and  N_7
REMARK    3  A    between atoms: N_7  and  C_8
REMARK    4  A    between atoms: C_12  and  O_13
REMARK    5  A    between atoms: O_13  and  C_14
REMARK    6  A    between atoms: C_17  and  C_20
REMARK    7  A    between atoms: C_23  and  C_25
REMARK                            x       y       z     vdW  Elec       q    Type
REMARK                         _______ _______ _______ _____ _____    ______ ____
ROOT
ATOM      1  O   UNL     1       0.585  -1.529   0.000  0.00  0.00    +0.000 OA
ENDROOT
BRANCH   1   2
ATOM      2  C   UNL     1       0.413  -0.722   0.000  0.00  0.00    +0.000 A 
ATOM      3  C   UNL     1      -0.371  -0.467   0.000  0.00  0.00    +0.000 A 
ATOM      4  C   UNL     1      -0.543   0.340   0.000  0.00  0.00    +0.000 A 
ATOM      5  C   UNL     1       0.070   0.892   0.000  0.00  0.00    +0.000 A 
ATOM      6  C   UNL     1       0.855   0.637   0.000  0.00  0.00    +0.000 A 
ATOM      7  C   UNL     1       1.026  -0.170   0.000  0.00  0.00    +0.000 A 
BRANCH   5   8
ATOM      8  C   UNL     1      -0.102   1.699   0.000  0.00  0.00    +0.000 A 
ATOM      9  C   UNL     1      -0.855   2.034   0.000  0.00  0.00    +0.000 A 
ATOM     10  C   UNL     1      -0.769   2.855   0.000  0.00  0.00    +0.000 A 
ATOM     11  C   UNL     1       0.038   3.026   0.000  0.00  0.00    +0.000 A 
ATOM     12  S   UNL     1       0.451   2.312   0.000  0.00  0.00    +0.000 S 
BRANCH  11  13
ATOM     13  C   UNL     1       0.374   3.780   0.000  0.00  0.00    +0.000 C 
ATOM     14  N   UNL     1       0.709   4.534   0.000  0.00  0.00    +0.000 NA
ENDBRANCH  11  13
ENDBRANCH   5   8
ENDBRANCH   1   2
BRANCH   1  19
ATOM     15  C   UNL     1       2.037  -1.299   0.000  0.00  0.00    +0.000 C 
ATOM     16  C   UNL     1       2.704  -1.784   0.000  0.00  0.00    +0.000 C 
ATOM     17  O   UNL     1       2.449  -2.569   0.000  0.00  0.00    +0.000 OA
ATOM     18  C   UNL     1       1.624  -2.569   0.000  0.00  0.00    +0.000 C 
ATOM     19  C   UNL     1       1.369  -1.784   0.000  0.00  0.00    +0.000 C 
BRANCH  15  20
ATOM     20  N   UNL     1       2.037  -0.474   0.000  0.00  0.00    +0.000 NA
BRANCH  20  21
ATOM     21  S   UNL     1       2.751  -0.062   0.000  0.00  0.00    +0.000 S 
ATOM     22  O   UNL     1       2.339   0.653   0.000  0.00  0.00    +0.000 OA
ATOM     23  O   UNL     1       3.164  -0.776   0.000  0.00  0.00    +0.000 OA
BRANCH  21  25
ATOM     24  C   UNL     1       3.466   1.176   0.000  0.00  0.00    +0.000 C 
ATOM     25  C   UNL     1       3.466   0.351   0.000  0.00  0.00    +0.000 C 
ATOM     26  C   UNL     1       4.180  -0.062   0.000  0.00  0.00    +0.000 C 
ENDBRANCH  21  25
ENDBRANCH  20  21
ENDBRANCH  15  20
ENDBRANCH   1  19
TORSDOF 7
