REMARK  Name = 
REMARK  2 active torsions:
REMARK  status: ('A' for Active; 'I' for Inactive)
REMARK    1  A    between atoms: C_10  and  C_16
REMARK    2  A    between atoms: N_18  and  C_19
REMARK                            x       y       z     vdW  Elec       q    Type
REMARK                         _______ _______ _______ _____ _____    ______ ____
ROOT
ATOM      1  C   UNL     1       0.000  -1.650   0.000  0.00  0.00    +0.000 C 
ATOM      2  C   UNL     1       0.715  -1.238   0.000  0.00  0.00    +0.000 A 
ATOM      3  C   UNL     1       0.715  -0.412   0.000  0.00  0.00    +0.000 A 
ATOM      4  O   UNL     1       0.000   0.000   0.000  0.00  0.00    +0.000 OA
ATOM      5  C   UNL     1       1.429   0.000   0.000  0.00  0.00    +0.000 A 
ATOM      6  C   UNL     1       1.429   0.825   0.000  0.00  0.00    +0.000 C 
ATOM      7  C   UNL     1       2.143  -0.412   0.000  0.00  0.00    +0.000 A 
ATOM      8  C   UNL     1       2.858   0.000   0.000  0.00  0.00    +0.000 C 
ATOM      9  C   UNL     1       3.572  -0.412   0.000  0.00  0.00    +0.000 C 
ATOM     10  C   UNL     1       3.572  -1.238   0.000  0.00  0.00    +0.000 C 
ATOM     11  C   UNL     1       4.385  -1.094   0.000  0.00  0.00    +0.000 C 
ATOM     12  O   UNL     1       2.858  -1.650   0.000  0.00  0.00    +0.000 OA
ATOM     13  C   UNL     1       2.143  -1.238   0.000  0.00  0.00    +0.000 A 
ATOM     14  C   UNL     1       1.429  -1.650   0.000  0.00  0.00    +0.000 A 
ATOM     15  C   UNL     1       1.429  -2.475   0.000  0.00  0.00    +0.000 C 
ENDROOT
BRANCH  10  16
ATOM     16  C   UNL     1       3.854  -2.013   0.000  0.00  0.00    +0.000 C 
ATOM     17  O   UNL     1       3.324  -2.645   0.000  0.00  0.00    +0.000 OA
ATOM     18  N   UNL     1       4.667  -2.156   0.000  0.00  0.00    +0.000 NA
BRANCH  18  19
ATOM     19  C   UNL     1       4.949  -2.931   0.000  0.00  0.00    +0.000 C 
ATOM     20  C   UNL     1       5.762  -3.075   0.000  0.00  0.00    +0.000 C 
ATOM     21  C   UNL     1       6.044  -3.850   0.000  0.00  0.00    +0.000 C 
ATOM     22  C   UNL     1       5.513  -4.482   0.000  0.00  0.00    +0.000 C 
ATOM     23  N   UNL     1       4.701  -4.338   0.000  0.00  0.00    +0.000 NA
ATOM     24  C   UNL     1       4.419  -3.563   0.000  0.00  0.00    +0.000 C 
ENDBRANCH  18  19
ENDBRANCH  10  16
TORSDOF 2
