REMARK  Name = 
REMARK  6 active torsions:
REMARK  status: ('A' for Active; 'I' for Inactive)
REMARK    1  A    between atoms: N_5  and  C_6
REMARK    2  A    between atoms: C_6  and  C_7
REMARK    3  A    between atoms: C_10  and  N_11
REMARK    4  A    between atoms: C_12  and  C_14
REMARK    5  A    between atoms: C_18  and  N_19
REMARK    6  A    between atoms: N_19  and  C_20
REMARK                            x       y       z     vdW  Elec       q    Type
REMARK                         _______ _______ _______ _____ _____    ______ ____
ROOT
ATOM      1  N   UNL     1       1.074  -3.829   0.000  0.00  0.00    +0.000 NA
ATOM      2  C   UNL     1       0.902  -3.022   0.000  0.00  0.00    +0.000 C 
ATOM      3  O   UNL     1       0.117  -2.768   0.000  0.00  0.00    +0.000 OA
ENDROOT
BRANCH   1   7
ATOM      4  C   UNL     1       3.428  -4.594   0.000  0.00  0.00    +0.000 A 
ATOM      5  C   UNL     1       2.814  -5.146   0.000  0.00  0.00    +0.000 A 
ATOM      6  C   UNL     1       2.030  -4.891   0.000  0.00  0.00    +0.000 A 
ATOM      7  C   UNL     1       1.858  -4.084   0.000  0.00  0.00    +0.000 A 
ATOM      8  C   UNL     1       2.471  -3.532   0.000  0.00  0.00    +0.000 A 
ATOM      9  C   UNL     1       3.256  -3.787   0.000  0.00  0.00    +0.000 A 
BRANCH   4  10
ATOM     10  C   UNL     1       4.212  -4.849   0.000  0.00  0.00    +0.000 C 
BRANCH  10  15
ATOM     11  C   UNL     1       6.665  -2.641   0.000  0.00  0.00    +0.000 C 
ATOM     12  N   UNL     1       6.051  -3.193   0.000  0.00  0.00    +0.000 NA
ATOM     13  C   UNL     1       6.223  -4.000   0.000  0.00  0.00    +0.000 C 
ATOM     14  C   UNL     1       5.610  -4.552   0.000  0.00  0.00    +0.000 C 
ATOM     15  N   UNL     1       4.825  -4.297   0.000  0.00  0.00    +0.000 NA
ATOM     16  C   UNL     1       4.654  -3.490   0.000  0.00  0.00    +0.000 C 
ATOM     17  C   UNL     1       5.267  -2.938   0.000  0.00  0.00    +0.000 C 
ENDBRANCH  10  15
ENDBRANCH   4  10
ENDBRANCH   1   7
BRANCH   2  18
ATOM     18  C   UNL     1       1.515  -2.470   0.000  0.00  0.00    +0.000 A 
ATOM     19  N   UNL     1       2.322  -2.642   0.000  0.00  0.00    +0.000 NA
ATOM     20  N   UNL     1       2.735  -1.927   0.000  0.00  0.00    +0.000 NA
ATOM     21  C   UNL     1       2.183  -1.314   0.000  0.00  0.00    +0.000 A 
ATOM     22  C   UNL     1       1.429  -1.650   0.000  0.00  0.00    +0.000 A 
BRANCH  22  23
ATOM     23  N   UNL     1       0.715  -1.238   0.000  0.00  0.00    +0.000 NA
BRANCH  23  24
ATOM     24  C   UNL     1       0.715  -0.412   0.000  0.00  0.00    +0.000 A 
ATOM     25  C   UNL     1       0.000   0.000   0.000  0.00  0.00    +0.000 A 
ATOM     26  C   UNL     1      -0.785  -0.255   0.000  0.00  0.00    +0.000 A 
ATOM     27  C   UNL     1      -1.270   0.412   0.000  0.00  0.00    +0.000 A 
ATOM     28  N   UNL     1      -0.785   1.080   0.000  0.00  0.00    +0.000 NA
ATOM     29  C   UNL     1       0.000   0.825   0.000  0.00  0.00    +0.000 A 
ATOM     30  N   UNL     1       0.715   1.238   0.000  0.00  0.00    +0.000 NA
ATOM     31  C   UNL     1       1.429   0.825   0.000  0.00  0.00    +0.000 A 
ATOM     32  N   UNL     1       1.429   0.000   0.000  0.00  0.00    +0.000 NA
ENDBRANCH  23  24
ENDBRANCH  22  23
ENDBRANCH   2  18
TORSDOF 6
