REMARK  Name = 
REMARK  11 active torsions:
REMARK  status: ('A' for Active; 'I' for Inactive)
REMARK    1  A    between atoms: C_1  and  O_24
REMARK    2  A    between atoms: C_10  and  N_15
REMARK    3  A    between atoms: N_15  and  C_16
REMARK    4  A    between atoms: C_16  and  C_18
REMARK    5  A    between atoms: C_18  and  C_19
REMARK    6  A    between atoms: C_19  and  C_20
REMARK    7  A    between atoms: C_20  and  N_21
REMARK    8  A    between atoms: N_21  and  C_22
REMARK    9  A    between atoms: N_21  and  C_23
REMARK   10  A    between atoms: C_22  and  C_27
REMARK   11  A    between atoms: C_23  and  C_29
REMARK                            x       y       z     vdW  Elec       q    Type
REMARK                         _______ _______ _______ _____ _____    ______ ____
ROOT
ATOM      1  C   UNL     1       0.715  -1.237   0.000  0.00  0.00    +0.000 A 
ATOM      2  C   UNL     1       0.715  -2.062   0.000  0.00  0.00    +0.000 A 
ATOM      3  C   UNL     1       0.000  -0.825   0.000  0.00  0.00    +0.000 A 
ATOM      4  C   UNL     1       0.000  -2.475   0.000  0.00  0.00    +0.000 A 
ATOM      5  C   UNL     1      -0.714  -1.237   0.000  0.00  0.00    +0.000 A 
ATOM      6  C   UNL     1      -0.714  -2.062   0.000  0.00  0.00    +0.000 A 
ATOM      7  C   UNL     1      -2.143  -2.062   0.000  0.00  0.00    +0.000 A 
ATOM      8  N   UNL     1      -1.429  -2.475   0.000  0.00  0.00    +0.000 NA
ATOM      9  C   UNL     1      -2.143  -1.237   0.000  0.00  0.00    +0.000 A 
ATOM     10  C   UNL     1      -1.429  -0.825   0.000  0.00  0.00    +0.000 A 
ATOM     11  C   UNL     1      -3.572  -2.062   0.000  0.00  0.00    +0.000 A 
ATOM     12  C   UNL     1      -2.858  -2.475   0.000  0.00  0.00    +0.000 A 
ATOM     13  C   UNL     1      -3.572  -1.237   0.000  0.00  0.00    +0.000 A 
ATOM     14  C   UNL     1      -2.858  -0.825   0.000  0.00  0.00    +0.000 A 
ATOM     15 CL   UNL     1      -4.287  -2.475   0.000  0.00  0.00    +0.000 Cl
ENDROOT
BRANCH   1  16
ATOM     16  O   UNL     1       1.429  -0.825   0.000  0.00  0.00    +0.000 OA
ATOM     17  C   UNL     1       2.143  -1.237   0.000  0.00  0.00    +0.000 C 
ENDBRANCH   1  16
BRANCH  10  18
ATOM     18  N   UNL     1      -1.429   0.000   0.000  0.00  0.00    +0.000 NA
BRANCH  18  19
ATOM     19  C   UNL     1      -0.715   0.412   0.000  0.00  0.00    +0.000 C 
ATOM     20  C   UNL     1      -0.715   1.238   0.000  0.00  0.00    +0.000 C 
BRANCH  19  21
ATOM     21  C   UNL     1       0.000   0.000   0.000  0.00  0.00    +0.000 C 
BRANCH  21  22
ATOM     22  C   UNL     1       0.714   0.412   0.000  0.00  0.00    +0.000 C 
BRANCH  22  23
ATOM     23  C   UNL     1       1.429   0.000   0.000  0.00  0.00    +0.000 C 
BRANCH  23  24
ATOM     24  N   UNL     1       2.143   0.413   0.000  0.00  0.00    +0.000 NA
BRANCH  24  25
ATOM     25  C   UNL     1       2.858   0.000   0.000  0.00  0.00    +0.000 C 
BRANCH  25  26
ATOM     26  C   UNL     1       3.572   0.413   0.000  0.00  0.00    +0.000 C 
ATOM     27 CL   UNL     1       4.287   0.000   0.000  0.00  0.00    +0.000 Cl
ENDBRANCH  25  26
ENDBRANCH  24  25
BRANCH  24  28
ATOM     28  C   UNL     1       2.143   1.238   0.000  0.00  0.00    +0.000 C 
BRANCH  28  29
ATOM     29  C   UNL     1       2.858   1.650   0.000  0.00  0.00    +0.000 C 
ATOM     30 CL   UNL     1       2.858   2.475   0.000  0.00  0.00    +0.000 Cl
ENDBRANCH  28  29
ENDBRANCH  24  28
ENDBRANCH  23  24
ENDBRANCH  22  23
ENDBRANCH  21  22
ENDBRANCH  19  21
ENDBRANCH  18  19
ENDBRANCH  10  18
TORSDOF 11
