REMARK  Name = 
REMARK  10 active torsions:
REMARK  status: ('A' for Active; 'I' for Inactive)
REMARK    1  A    between atoms: N_7  and  C_16
REMARK    2  A    between atoms: N_8  and  C_10
REMARK    3  A    between atoms: N_9  and  C_17
REMARK    4  A    between atoms: C_16  and  C_19
REMARK    5  A    between atoms: C_17  and  C_18
REMARK    6  A    between atoms: C_17  and  C_20
REMARK    7  A    between atoms: C_20  and  C_23
REMARK    8  A    between atoms: C_26  and  C_31
REMARK    9  A    between atoms: C_30  and  C_37
REMARK   10  A    between atoms: C_33  and  C_38
REMARK                            x       y       z     vdW  Elec       q    Type
REMARK                         _______ _______ _______ _____ _____    ______ ____
ROOT
ATOM      1  O   UNL     1       0.055  -0.538   0.000  0.00  0.00    +0.000 OA
ATOM      2  N   UNL     1       1.444  -0.382   0.000  0.00  0.00    +0.000 N 
ATOM      3  C   UNL     1       0.517   0.780   0.000  0.00  0.00    +0.000 C 
ATOM      4  C   UNL     1       1.031   1.425   0.000  0.00  0.00    +0.000 C 
ATOM      5  C   UNL     1       1.856   1.425   0.000  0.00  0.00    +0.000 C 
ATOM      6  C   UNL     1       2.370   0.780   0.000  0.00  0.00    +0.000 C 
ATOM      7  C   UNL     1       2.187  -0.024   0.000  0.00  0.00    +0.000 C 
ATOM      8  C   UNL     1       0.700  -0.024   0.000  0.00  0.00    +0.000 C 
ENDROOT
BRANCH   3  10
ATOM      9  O   UNL     1       0.030   2.357   0.000  0.00  0.00    +0.000 OA
ATOM     10  N   UNL     1      -0.288   0.964   0.000  0.00  0.00    +0.000 NA
ATOM     11  C   UNL     1      -0.531   1.752   0.000  0.00  0.00    +0.000 C 
BRANCH  11  12
ATOM     12  C   UNL     1      -1.335   1.936   0.000  0.00  0.00    +0.000 C 
BRANCH  12  14
ATOM     13  O   UNL     1      -0.213   3.145   0.000  0.00  0.00    +0.000 OA
ATOM     14  N   UNL     1      -1.578   2.724   0.000  0.00  0.00    +0.000 NA
ATOM     15  C   UNL     1      -1.017   3.329   0.000  0.00  0.00    +0.000 C 
ATOM     16  C   UNL     1      -1.260   4.117   0.000  0.00  0.00    +0.000 C 
ENDBRANCH  12  14
BRANCH  12  17
ATOM     17  C   UNL     1      -1.896   1.331   0.000  0.00  0.00    +0.000 C 
BRANCH  17  18
ATOM     18  C   UNL     1      -2.701   1.515   0.000  0.00  0.00    +0.000 A 
ATOM     19  C   UNL     1      -2.944   2.303   0.000  0.00  0.00    +0.000 A 
ATOM     20  C   UNL     1      -3.262   0.910   0.000  0.00  0.00    +0.000 A 
ATOM     21  C   UNL     1      -3.748   2.486   0.000  0.00  0.00    +0.000 A 
ATOM     22  C   UNL     1      -4.066   1.093   0.000  0.00  0.00    +0.000 A 
ATOM     23  C   UNL     1      -4.309   1.882   0.000  0.00  0.00    +0.000 A 
BRANCH  23  26
ATOM     24  O   UNL     1      -5.675   1.460   0.000  0.00  0.00    +0.000 OA
ATOM     25  O   UNL     1      -5.357   2.854   0.000  0.00  0.00    +0.000 OA
ATOM     26  C   UNL     1      -5.114   2.065   0.000  0.00  0.00    +0.000 C 
ENDBRANCH  23  26
BRANCH  21  28
ATOM     27  O   UNL     1      -3.430   3.880   0.000  0.00  0.00    +0.000 OA
ATOM     28  C   UNL     1      -3.991   3.275   0.000  0.00  0.00    +0.000 C 
ENDBRANCH  21  28
ENDBRANCH  17  18
ENDBRANCH  12  17
ENDBRANCH  11  12
ENDBRANCH   3  10
BRANCH   2  29
ATOM     29  C   UNL     1       1.444  -1.207   0.000  0.00  0.00    +0.000 C 
BRANCH  29  30
ATOM     30  C   UNL     1       2.158  -1.619   0.000  0.00  0.00    +0.000 A 
ATOM     31  C   UNL     1       2.158  -2.445   0.000  0.00  0.00    +0.000 A 
ATOM     32  C   UNL     1       2.873  -1.207   0.000  0.00  0.00    +0.000 A 
ATOM     33  C   UNL     1       2.873  -2.857   0.000  0.00  0.00    +0.000 A 
ATOM     34  C   UNL     1       3.587  -1.619   0.000  0.00  0.00    +0.000 A 
ATOM     35  C   UNL     1       3.587  -2.445   0.000  0.00  0.00    +0.000 A 
BRANCH  35  36
ATOM     36  C   UNL     1       4.301  -2.857   0.000  0.00  0.00    +0.000 A 
ATOM     37  C   UNL     1       4.301  -3.682   0.000  0.00  0.00    +0.000 A 
ATOM     38  C   UNL     1       5.016  -2.445   0.000  0.00  0.00    +0.000 A 
ATOM     39  C   UNL     1       5.016  -4.095   0.000  0.00  0.00    +0.000 A 
ATOM     40  C   UNL     1       5.731  -2.857   0.000  0.00  0.00    +0.000 A 
ATOM     41  C   UNL     1       5.731  -3.682   0.000  0.00  0.00    +0.000 A 
ENDBRANCH  35  36
ENDBRANCH  29  30
ENDBRANCH   2  29
TORSDOF 10
