REMARK  Name = 
REMARK  4 active torsions:
REMARK  status: ('A' for Active; 'I' for Inactive)
REMARK    1  A    between atoms: C_6  and  C_12
REMARK    2  A    between atoms: C_15  and  C_18
REMARK    3  A    between atoms: C_18  and  C_21
REMARK    4  A    between atoms: N_22  and  C_24
REMARK                            x       y       z     vdW  Elec       q    Type
REMARK                         _______ _______ _______ _____ _____    ______ ____
ROOT
ATOM      1  C   UNL     1      -2.148   0.417   0.000  0.00  0.00    +0.000 C 
ATOM      2  C   UNL     1      -1.435   0.004   0.000  0.00  0.00    +0.000 C 
ATOM      3  C   UNL     1      -0.713   0.417   0.000  0.00  0.00    +0.000 C 
ATOM      4  C   UNL     1      -0.713   1.242   0.000  0.00  0.00    +0.000 C 
ATOM      5  C   UNL     1      -1.435   1.654   0.000  0.00  0.00    +0.000 C 
ATOM      6  C   UNL     1      -2.148   1.242   0.000  0.00  0.00    +0.000 C 
ENDROOT
BRANCH   1  12
ATOM      7  C   UNL     1      -3.584   0.417   0.000  0.00  0.00    +0.000 A 
ATOM      8  C   UNL     1      -4.297   0.004   0.000  0.00  0.00    +0.000 A 
ATOM      9  N   UNL     1      -4.297  -0.829   0.000  0.00  0.00    +0.000 NA
ATOM     10  C   UNL     1      -3.584  -1.242   0.000  0.00  0.00    +0.000 A 
ATOM     11  C   UNL     1      -2.862  -0.829   0.000  0.00  0.00    +0.000 A 
ATOM     12  C   UNL     1      -2.862   0.004   0.000  0.00  0.00    +0.000 A 
ATOM     13  C   UNL     1      -3.584  -2.067   0.000  0.00  0.00    +0.000 A 
ATOM     14  C   UNL     1      -2.862  -2.479   0.000  0.00  0.00    +0.000 A 
ATOM     15  C   UNL     1      -2.148  -2.067   0.000  0.00  0.00    +0.000 A 
ATOM     16  C   UNL     1      -2.148  -1.242   0.000  0.00  0.00    +0.000 A 
ATOM     17  F   UNL     1      -1.435  -2.479   0.000  0.00  0.00    +0.000 F 
ENDBRANCH   1  12
BRANCH   4  18
ATOM     18  C   UNL     1       0.000   1.654   0.000  0.00  0.00    +0.000 C 
ATOM     19  C   UNL     1       0.000   2.479   0.000  0.00  0.00    +0.000 C 
BRANCH  18  20
ATOM     20  C   UNL     1       0.713   1.242   0.000  0.00  0.00    +0.000 C 
ATOM     21  N   UNL     1       1.435   1.654   0.000  0.00  0.00    +0.000 NA
ATOM     22  O   UNL     1       0.713   0.417   0.000  0.00  0.00    +0.000 OA
BRANCH  21  23
ATOM     23  C   UNL     1       2.148   1.242   0.000  0.00  0.00    +0.000 A 
ATOM     24  C   UNL     1       2.148   0.417   0.000  0.00  0.00    +0.000 A 
ATOM     25  C   UNL     1       2.862   0.004   0.000  0.00  0.00    +0.000 A 
ATOM     26  C   UNL     1       3.584   0.417   0.000  0.00  0.00    +0.000 A 
ATOM     27  C   UNL     1       3.584   1.242   0.000  0.00  0.00    +0.000 A 
ATOM     28  C   UNL     1       2.862   1.654   0.000  0.00  0.00    +0.000 A 
ATOM     29 CL   UNL     1       4.297   0.004   0.000  0.00  0.00    +0.000 Cl
ENDBRANCH  21  23
ENDBRANCH  18  20
ENDBRANCH   4  18
TORSDOF 4
