REMARK  Name = 
REMARK  2 active torsions:
REMARK  status: ('A' for Active; 'I' for Inactive)
REMARK    1  A    between atoms: C_2  and  C_4
REMARK    2  A    between atoms: N_17  and  C_18
REMARK                            x       y       z     vdW  Elec       q    Type
REMARK                         _______ _______ _______ _____ _____    ______ ____
ROOT
ATOM      1  C   UNL     1       4.014   0.412   0.000  0.00  0.00    +0.000 A 
ATOM      2  C   UNL     1       3.602  -0.302   0.000  0.00  0.00    +0.000 A 
ATOM      3  C   UNL     1       2.777  -0.302   0.000  0.00  0.00    +0.000 A 
ATOM      4  C   UNL     1       2.365   0.412   0.000  0.00  0.00    +0.000 A 
ATOM      5  C   UNL     1       2.777   1.127   0.000  0.00  0.00    +0.000 A 
ATOM      6  C   UNL     1       3.602   1.127   0.000  0.00  0.00    +0.000 A 
ATOM      7  C   UNL     1       1.540   0.412   0.000  0.00  0.00    +0.000 A 
ATOM      8  C   UNL     1       1.127  -0.302   0.000  0.00  0.00    +0.000 A 
ATOM      9  C   UNL     1       0.302  -0.302   0.000  0.00  0.00    +0.000 A 
ATOM     10  C   UNL     1      -0.111   0.412   0.000  0.00  0.00    +0.000 A 
ATOM     11  N   UNL     1       0.302   1.127   0.000  0.00  0.00    +0.000 NA
ATOM     12  C   UNL     1       1.127   1.127   0.000  0.00  0.00    +0.000 A 
ATOM     13  C   UNL     1       1.540  -1.016   0.000  0.00  0.00    +0.000 A 
ATOM     14  N   UNL     1       1.127  -1.731   0.000  0.00  0.00    +0.000 NA
ATOM     15  N   UNL     1       2.365  -1.016   0.000  0.00  0.00    +0.000 NA
ENDROOT
BRANCH  14  16
ATOM     16  C   UNL     1       0.302  -1.731   0.000  0.00  0.00    +0.000 A 
ATOM     17  C   UNL     1      -0.111  -2.445   0.000  0.00  0.00    +0.000 A 
ATOM     18  C   UNL     1      -0.935  -2.445   0.000  0.00  0.00    +0.000 A 
ATOM     19 CL   UNL     1      -1.348  -3.160   0.000  0.00  0.00    +0.000 Cl
ATOM     20  C   UNL     1      -1.348  -1.731   0.000  0.00  0.00    +0.000 A 
ATOM     21  C   UNL     1      -0.935  -1.016   0.000  0.00  0.00    +0.000 A 
ATOM     22  C   UNL     1      -0.111  -1.016   0.000  0.00  0.00    +0.000 A 
ENDBRANCH  14  16
BRANCH   1  24
ATOM     23  O   UNL     1       5.252   1.127   0.000  0.00  0.00    +0.000 OA
ATOM     24  C   UNL     1       4.840   0.412   0.000  0.00  0.00    +0.000 C 
ATOM     25  O   UNL     1       5.252  -0.302   0.000  0.00  0.00    +0.000 OA
ENDBRANCH   1  24
TORSDOF 2
