REMARK  Name = 
REMARK  1 active torsions:
REMARK  status: ('A' for Active; 'I' for Inactive)
REMARK    1  A    between atoms: C_6  and  C_7
REMARK                            x       y       z     vdW  Elec       q    Type
REMARK                         _______ _______ _______ _____ _____    ______ ____
ROOT
ATOM      1  C   UNL     1       0.016   1.727   0.000  0.00  0.00    +0.000 C 
ATOM      2  N   UNL     1       0.568   1.114   0.000  0.00  0.00    +0.000 N 
ATOM      3  C   UNL     1       1.235   0.629   0.000  0.00  0.00    +0.000 C 
ATOM      4  C   UNL     1       0.980  -0.155   0.000  0.00  0.00    +0.000 C 
ATOM      5  C   UNL     1       0.155  -0.155   0.000  0.00  0.00    +0.000 C 
ATOM      6  C   UNL     1      -0.100   0.629   0.000  0.00  0.00    +0.000 C 
ATOM      7  C   UNL     1       1.120   1.727   0.000  0.00  0.00    +0.000 C 
ENDROOT
BRANCH   6   8
ATOM      8  C   UNL     1      -0.884   0.884   0.000  0.00  0.00    +0.000 C 
ATOM      9  O   UNL     1      -1.497   0.332   0.000  0.00  0.00    +0.000 OA
ATOM     10  O   UNL     1      -1.056   1.691   0.000  0.00  0.00    +0.000 OA
ENDBRANCH   6   8
TORSDOF 1
