REMARK  Name = 
REMARK  6 active torsions:
REMARK  status: ('A' for Active; 'I' for Inactive)
REMARK    1  A    between atoms: S_1  and  N_6
REMARK    2  A    between atoms: S_1  and  C_11
REMARK    3  A    between atoms: N_6  and  C_14
REMARK    4  A    between atoms: N_7  and  C_17
REMARK    5  A    between atoms: C_18  and  C_21
REMARK    6  A    between atoms: C_26  and  C_30
REMARK                            x       y       z     vdW  Elec       q    Type
REMARK                         _______ _______ _______ _____ _____    ______ ____
ROOT
ATOM      1  C   UNL     1       1.808   1.036   0.000  0.00  0.00    +0.000 A 
ATOM      2  C   UNL     1       1.552   0.252   0.000  0.00  0.00    +0.000 A 
ATOM      3  C   UNL     1       1.257   1.650   0.000  0.00  0.00    +0.000 A 
ATOM      4  C   UNL     1       0.744   0.082   0.000  0.00  0.00    +0.000 A 
ATOM      5  C   UNL     1       0.450   1.480   0.000  0.00  0.00    +0.000 A 
ATOM      6  C   UNL     1       0.193   0.696   0.000  0.00  0.00    +0.000 A 
ENDROOT
BRANCH   4   7
ATOM      7  N   UNL     1       0.488  -0.702   0.000  0.00  0.00    +0.000 N 
ATOM      8  N   UNL     1       0.488  -2.030   0.000  0.00  0.00    +0.000 NA
ATOM      9  C   UNL     1      -0.292  -0.953   0.000  0.00  0.00    +0.000 A 
ATOM     10  C   UNL     1      -0.292  -1.778   0.000  0.00  0.00    +0.000 A 
ATOM     11  C   UNL     1       0.970  -1.366   0.000  0.00  0.00    +0.000 A 
ATOM     12  C   UNL     1      -1.007  -0.541   0.000  0.00  0.00    +0.000 A 
ATOM     13  C   UNL     1      -1.007  -2.191   0.000  0.00  0.00    +0.000 A 
ATOM     14  C   UNL     1      -1.722  -1.778   0.000  0.00  0.00    +0.000 A 
ATOM     15  C   UNL     1      -1.722  -0.953   0.000  0.00  0.00    +0.000 A 
BRANCH  14  18
ATOM     16  N   UNL     1      -3.329  -3.183   0.000  0.00  0.00    +0.000 N 
ATOM     17  N   UNL     1      -3.742  -2.469   0.000  0.00  0.00    +0.000 NA
ATOM     18  C   UNL     1      -2.436  -2.191   0.000  0.00  0.00    +0.000 A 
ATOM     19  C   UNL     1      -2.522  -3.011   0.000  0.00  0.00    +0.000 A 
ATOM     20  C   UNL     1      -3.190  -1.855   0.000  0.00  0.00    +0.000 A 
ATOM     21  C   UNL     1      -3.665  -3.937   0.000  0.00  0.00    +0.000 C 
ENDBRANCH  14  18
ENDBRANCH   4   7
BRANCH   5  24
ATOM     22  F   UNL     1       0.962   3.049   0.000  0.00  0.00    +0.000 F 
ATOM     23  F   UNL     1      -1.754   3.937   0.000  0.00  0.00    +0.000 F 
ATOM     24  C   UNL     1      -0.101   2.095   0.000  0.00  0.00    +0.000 A 
ATOM     25  C   UNL     1       0.155   2.879   0.000  0.00  0.00    +0.000 A 
ATOM     26  C   UNL     1      -0.909   1.924   0.000  0.00  0.00    +0.000 A 
ATOM     27  C   UNL     1      -0.396   3.493   0.000  0.00  0.00    +0.000 A 
ATOM     28  C   UNL     1      -1.460   2.538   0.000  0.00  0.00    +0.000 A 
ATOM     29  C   UNL     1      -1.203   3.323   0.000  0.00  0.00    +0.000 A 
ENDBRANCH   5  24
BRANCH   1  30
ATOM     30  N   UNL     1       2.615   1.207   0.000  0.00  0.00    +0.000 NA
BRANCH  30  31
ATOM     31  S   UNL     1       2.872   1.991   0.000  0.00  0.00    +0.000 S 
ATOM     32  O   UNL     1       3.656   1.734   0.000  0.00  0.00    +0.000 OA
ATOM     33  O   UNL     1       2.087   2.247   0.000  0.00  0.00    +0.000 OA
BRANCH  31  34
ATOM     34  C   UNL     1       3.128   2.775   0.000  0.00  0.00    +0.000 C 
ATOM     35  C   UNL     1       3.742   3.326   0.000  0.00  0.00    +0.000 C 
ATOM     36  C   UNL     1       2.958   3.582   0.000  0.00  0.00    +0.000 C 
ENDBRANCH  31  34
ENDBRANCH  30  31
ENDBRANCH   1  30
TORSDOF 6
