REMARK  Name = 
REMARK  9 active torsions:
REMARK  status: ('A' for Active; 'I' for Inactive)
REMARK    1  A    between atoms: C_2  and  C_4
REMARK    2  A    between atoms: C_2  and  N_22
REMARK    3  A    between atoms: C_4  and  C_5
REMARK    4  A    between atoms: C_5  and  C_6
REMARK    5  A    between atoms: C_6  and  C_7
REMARK    6  A    between atoms: C_6  and  C_13
REMARK    7  A    between atoms: C_6  and  C_19
REMARK    8  A    between atoms: C_24  and  O_26
REMARK    9  A    between atoms: O_26  and  C_27
REMARK                            x       y       z     vdW  Elec       q    Type
REMARK                         _______ _______ _______ _____ _____    ______ ____
ROOT
ATOM      1  C   UNL     1       1.220   0.704   0.000  0.00  0.00    +0.000 C 
ENDROOT
BRANCH   1   2
ATOM      2  C   UNL     1       1.934   0.292   0.000  0.00  0.00    +0.000 C 
BRANCH   2   4
ATOM      3  C   UNL     1       1.109  -0.533   0.000  0.00  0.00    +0.000 C 
ATOM      4  C   UNL     1       1.934  -0.533   0.000  0.00  0.00    +0.000 C 
ATOM      5  C   UNL     1       2.759  -0.533   0.000  0.00  0.00    +0.000 C 
BRANCH   4   6
ATOM      6  N   UNL     1       1.934  -1.358   0.000  0.00  0.00    +0.000 NA
ATOM      7  C   UNL     1       2.518  -1.942   0.000  0.00  0.00    +0.000 C 
ATOM      8  C   UNL     1       1.934  -2.525   0.000  0.00  0.00    +0.000 C 
ATOM      9  C   UNL     1       1.351  -1.942   0.000  0.00  0.00    +0.000 C 
BRANCH   8  10
ATOM     10  O   UNL     1       1.934  -3.350   0.000  0.00  0.00    +0.000 OA
BRANCH  10  11
ATOM     11  C   UNL     1       1.220  -3.763   0.000  0.00  0.00    +0.000 A 
ATOM     12  C   UNL     1       1.220  -4.588   0.000  0.00  0.00    +0.000 A 
ATOM     13  C   UNL     1       0.505  -5.000   0.000  0.00  0.00    +0.000 A 
ATOM     14  C   UNL     1      -0.209  -4.588   0.000  0.00  0.00    +0.000 A 
ATOM     15  C   UNL     1      -0.209  -3.763   0.000  0.00  0.00    +0.000 A 
ATOM     16  C   UNL     1       0.505  -3.350   0.000  0.00  0.00    +0.000 A 
ATOM     17  O   UNL     1      -0.924  -3.350   0.000  0.00  0.00    +0.000 OA
ENDBRANCH  10  11
ENDBRANCH   8  10
ENDBRANCH   4   6
ENDBRANCH   2   4
ENDBRANCH   1   2
BRANCH   1  18
ATOM     18  C   UNL     1       1.220   1.529   0.000  0.00  0.00    +0.000 C 
BRANCH  18  19
ATOM     19  C   UNL     1       0.395   1.529   0.000  0.00  0.00    +0.000 A 
ATOM     20  C   UNL     1      -0.018   0.815   0.000  0.00  0.00    +0.000 A 
ATOM     21  C   UNL     1      -0.843   0.815   0.000  0.00  0.00    +0.000 A 
ATOM     22  C   UNL     1      -1.255   1.529   0.000  0.00  0.00    +0.000 A 
ATOM     23  C   UNL     1      -0.843   2.244   0.000  0.00  0.00    +0.000 A 
ATOM     24  C   UNL     1      -0.018   2.244   0.000  0.00  0.00    +0.000 A 
ENDBRANCH  18  19
BRANCH  18  25
ATOM     25  C   UNL     1       1.220   2.354   0.000  0.00  0.00    +0.000 A 
ATOM     26  C   UNL     1       0.505   2.767   0.000  0.00  0.00    +0.000 A 
ATOM     27  C   UNL     1       0.505   3.592   0.000  0.00  0.00    +0.000 A 
ATOM     28  C   UNL     1       1.220   4.004   0.000  0.00  0.00    +0.000 A 
ATOM     29  C   UNL     1       1.934   3.592   0.000  0.00  0.00    +0.000 A 
ATOM     30  C   UNL     1       1.934   2.767   0.000  0.00  0.00    +0.000 A 
ENDBRANCH  18  25
BRANCH  18  31
ATOM     31  C   UNL     1       2.045   1.529   0.000  0.00  0.00    +0.000 C 
ATOM     32  O   UNL     1       2.457   2.244   0.000  0.00  0.00    +0.000 OA
ATOM     33  N   UNL     1       2.457   0.815   0.000  0.00  0.00    +0.000 NA
ENDBRANCH  18  31
ENDBRANCH   1  18
TORSDOF 9
