REMARK  Name = 
REMARK  20 active torsions:
REMARK  status: ('A' for Active; 'I' for Inactive)
REMARK    1  A    between atoms: C_1  and  O_11
REMARK    2  A    between atoms: N_9  and  C_31
REMARK    3  A    between atoms: O_11  and  C_12
REMARK    4  A    between atoms: C_12  and  C_13
REMARK    5  A    between atoms: C_13  and  C_14
REMARK    6  A    between atoms: C_14  and  C_15
REMARK    7  A    between atoms: C_15  and  N_16
REMARK    8  A    between atoms: N_19  and  C_22
REMARK    9  A    between atoms: C_31  and  O_32
REMARK   10  A    between atoms: O_32  and  C_43
REMARK   11  A    between atoms: C_33  and  C_35
REMARK   12  A    between atoms: C_33  and  C_41
REMARK   13  A    between atoms: C_34  and  C_36
REMARK   14  A    between atoms: C_34  and  C_42
REMARK   15  A    between atoms: C_35  and  C_37
REMARK   16  A    between atoms: C_36  and  C_38
REMARK   17  A    between atoms: C_37  and  C_38
REMARK   18  A    between atoms: C_39  and  C_41
REMARK   19  A    between atoms: C_39  and  C_43
REMARK   20  A    between atoms: C_40  and  C_42
REMARK                            x       y       z     vdW  Elec       q    Type
REMARK                         _______ _______ _______ _____ _____    ______ ____
ROOT
ATOM      1  C   UNL     1      -3.629  -0.377   0.000  0.00  0.00    +0.000 A 
ATOM      2  C   UNL     1      -4.360  -0.783   0.000  0.00  0.00    +0.000 A 
ATOM      3  C   UNL     1      -4.381  -1.607   0.000  0.00  0.00    +0.000 A 
ATOM      4  C   UNL     1      -2.918  -0.795   0.000  0.00  0.00    +0.000 A 
ATOM      5  C   UNL     1      -2.918  -1.657   0.000  0.00  0.00    +0.000 A 
ATOM      6  C   UNL     1      -3.650  -2.063   0.000  0.00  0.00    +0.000 A 
ATOM      7  C   UNL     1      -2.996  -3.327   0.000  0.00  0.00    +0.000 C 
ATOM      8  C   UNL     1      -2.265  -2.921   0.000  0.00  0.00    +0.000 C 
ATOM      9  N   UNL     1      -2.208  -2.075   0.000  0.00  0.00    +0.000 N 
ATOM     10  O   UNL     1      -1.534  -3.376   0.000  0.00  0.00    +0.000 OA
ATOM     11  C   UNL     1      -3.671  -2.888   0.000  0.00  0.00    +0.000 C 
ENDROOT
BRANCH   1  12
ATOM     12  O   UNL     1      -3.608   0.448   0.000  0.00  0.00    +0.000 OA
BRANCH  12  13
ATOM     13  C   UNL     1      -2.855   0.866   0.000  0.00  0.00    +0.000 C 
BRANCH  13  14
ATOM     14  C   UNL     1      -2.144   0.448   0.000  0.00  0.00    +0.000 C 
BRANCH  14  15
ATOM     15  C   UNL     1      -1.433   0.866   0.000  0.00  0.00    +0.000 C 
BRANCH  15  16
ATOM     16  C   UNL     1      -0.680   0.448   0.000  0.00  0.00    +0.000 C 
BRANCH  16  17
ATOM     17  N   UNL     1       0.073   0.866   0.000  0.00  0.00    +0.000 NA
ATOM     18  C   UNL     1       0.742   0.448   0.000  0.00  0.00    +0.000 C 
ATOM     19  C   UNL     1       1.495   0.866   0.000  0.00  0.00    +0.000 C 
ATOM     20  N   UNL     1       1.495   1.703   0.000  0.00  0.00    +0.000 N 
ATOM     21  C   UNL     1       0.742   2.121   0.000  0.00  0.00    +0.000 C 
ATOM     22  C   UNL     1       0.073   1.703   0.000  0.00  0.00    +0.000 C 
BRANCH  20  23
ATOM     23  C   UNL     1       2.206   2.121   0.000  0.00  0.00    +0.000 A 
ATOM     24  C   UNL     1       2.917   1.703   0.000  0.00  0.00    +0.000 A 
ATOM     25  C   UNL     1       3.670   2.121   0.000  0.00  0.00    +0.000 A 
ATOM     26  C   UNL     1       3.670   2.958   0.000  0.00  0.00    +0.000 A 
ATOM     27  C   UNL     1       2.917   3.376   0.000  0.00  0.00    +0.000 A 
ATOM     28  C   UNL     1       2.206   2.958   0.000  0.00  0.00    +0.000 A 
ATOM     29 CL   UNL     1       2.917   0.866   0.000  0.00  0.00    +0.000 Cl
ATOM     30 CL   UNL     1       4.381   1.703   0.000  0.00  0.00    +0.000 Cl
ENDBRANCH  20  23
ENDBRANCH  16  17
ENDBRANCH  15  16
ENDBRANCH  14  15
ENDBRANCH  13  14
ENDBRANCH  12  13
ENDBRANCH   1  12
BRANCH   9  31
ATOM     31  C   UNL     1      -1.478  -1.690   0.000  0.00  0.00    +0.000 C 
BRANCH  31  32
ATOM     32  O   UNL     1      -0.780  -2.130   0.000  0.00  0.00    +0.000 OA
BRANCH  32  33
ATOM     33  C   UNL     1      -0.071  -1.708   0.000  0.00  0.00    +0.000 C 
ATOM     34  O   UNL     1      -0.082  -0.883   0.000  0.00  0.00    +0.000 OA
BRANCH  33  35
ATOM     35  C   UNL     1       0.648  -2.111   0.000  0.00  0.00    +0.000 C 
BRANCH  35  36
ATOM     36  C   UNL     1       1.363  -1.698   0.000  0.00  0.00    +0.000 C 
BRANCH  36  37
ATOM     37  C   UNL     1       2.077  -2.111   0.000  0.00  0.00    +0.000 C 
BRANCH  37  38
ATOM     38  C   UNL     1       2.792  -1.698   0.000  0.00  0.00    +0.000 C 
BRANCH  38  39
ATOM     39  C   UNL     1       3.506  -2.111   0.000  0.00  0.00    +0.000 C 
BRANCH  39  40
ATOM     40  C   UNL     1       3.506  -2.936   0.000  0.00  0.00    +0.000 C 
BRANCH  40  41
ATOM     41  C   UNL     1       2.792  -3.348   0.000  0.00  0.00    +0.000 C 
BRANCH  41  42
ATOM     42  C   UNL     1       2.077  -2.936   0.000  0.00  0.00    +0.000 C 
BRANCH  42  43
ATOM     43  C   UNL     1       1.363  -3.348   0.000  0.00  0.00    +0.000 C 
BRANCH  43  44
ATOM     44  C   UNL     1       0.648  -2.936   0.000  0.00  0.00    +0.000 C 
ATOM     45  C   UNL     1      -0.066  -3.348   0.000  0.00  0.00    +0.000 C 
ENDBRANCH  43  44
ENDBRANCH  42  43
ENDBRANCH  41  42
ENDBRANCH  40  41
ENDBRANCH  39  40
ENDBRANCH  38  39
ENDBRANCH  37  38
ENDBRANCH  36  37
ENDBRANCH  35  36
ENDBRANCH  33  35
ENDBRANCH  32  33
ENDBRANCH  31  32
ENDBRANCH   9  31
TORSDOF 20
