REMARK  Name = 
REMARK  2 active torsions:
REMARK  status: ('A' for Active; 'I' for Inactive)
REMARK    1  A    between atoms: C_2  and  C_4
REMARK    2  A    between atoms: C_4  and  C_9
REMARK                            x       y       z     vdW  Elec       q    Type
REMARK                         _______ _______ _______ _____ _____    ______ ____
ROOT
ATOM      1  N   UNL     1       0.715  -0.206   0.000  0.00  0.00    +0.000 NA
ATOM      2  C   UNL     1       0.000   0.206   0.000  0.00  0.00    +0.000 C 
ATOM      3  C   UNL     1       1.429   0.206   0.000  0.00  0.00    +0.000 C 
ATOM      4  O   UNL     1       0.000   1.031   0.000  0.00  0.00    +0.000 OA
ATOM      5  O   UNL     1       1.429   1.031   0.000  0.00  0.00    +0.000 OA
ATOM      6  N   UNL     1       2.143  -0.206   0.000  0.00  0.00    +0.000 NA
ENDROOT
BRANCH   2   7
ATOM      7  C   UNL     1      -0.715  -0.206   0.000  0.00  0.00    +0.000 C 
ATOM      8 BR   UNL     1      -0.715  -1.031   0.000  0.00  0.00    +0.000 Br
BRANCH   7   9
ATOM      9  C   UNL     1      -1.429   0.206   0.000  0.00  0.00    +0.000 C 
ATOM     10  C   UNL     1      -2.143  -0.206   0.000  0.00  0.00    +0.000 C 
ATOM     11  C   UNL     1      -1.429   1.031   0.000  0.00  0.00    +0.000 C 
ENDBRANCH   7   9
ENDBRANCH   2   7
TORSDOF 2
