REMARK  Name = 
REMARK  6 active torsions:
REMARK  status: ('A' for Active; 'I' for Inactive)
REMARK    1  A    between atoms: C_2  and  C_3
REMARK    2  A    between atoms: C_3  and  C_5
REMARK    3  A    between atoms: C_5  and  C_6
REMARK    4  A    between atoms: C_5  and  O_8
REMARK    5  A    between atoms: O_8  and  C_9
REMARK    6  A    between atoms: C_9  and  N_10
REMARK                            x       y       z     vdW  Elec       q    Type
REMARK                         _______ _______ _______ _____ _____    ______ ____
ROOT
ATOM      1  C   UNL     1       3.303  -3.835   0.000  0.00  0.00    +0.000 C 
ENDROOT
BRANCH   1   2
ATOM      2  N   UNL     1       4.018  -3.422   0.000  0.00  0.00    +0.000 N 
ATOM      3  C   UNL     1       4.104  -2.602   0.000  0.00  0.00    +0.000 A 
ATOM      4  C   UNL     1       4.911  -2.430   0.000  0.00  0.00    +0.000 A 
ATOM      5  N   UNL     1       5.323  -3.145   0.000  0.00  0.00    +0.000 NA
ATOM      6  C   UNL     1       4.771  -3.758   0.000  0.00  0.00    +0.000 A 
ATOM      7  N   UNL     1       4.943  -4.565   0.000  0.00  0.00    +0.000 N 
ATOM      8  O   UNL     1       5.728  -4.820   0.000  0.00  0.00    +0.000 OA
ATOM      9  O   UNL     1       4.330  -5.117   0.000  0.00  0.00    +0.000 OA
ENDBRANCH   1   2
BRANCH   1  10
ATOM     10  O   UNL     1       2.589  -3.422   0.000  0.00  0.00    +0.000 OA
BRANCH  10  11
ATOM     11  C   UNL     1       1.874  -3.835   0.000  0.00  0.00    +0.000 C 
BRANCH  11  12
ATOM     12  C   UNL     1       1.160  -3.422   0.000  0.00  0.00    +0.000 C 
ATOM     13  O   UNL     1       1.160  -2.598   0.000  0.00  0.00    +0.000 OA
BRANCH  12  15
ATOM     14  O   UNL     1      -0.269  -3.422   0.000  0.00  0.00    +0.000 OA
ATOM     15  C   UNL     1       0.445  -3.835   0.000  0.00  0.00    +0.000 C 
ENDBRANCH  12  15
ENDBRANCH  11  12
BRANCH  11  16
ATOM     16  C   UNL     1       1.874  -4.660   0.000  0.00  0.00    +0.000 C 
ATOM     17  O   UNL     1       2.589  -5.072   0.000  0.00  0.00    +0.000 OA
ENDBRANCH  11  16
ENDBRANCH  10  11
ENDBRANCH   1  10
TORSDOF 6
