REMARK  Name = 
REMARK  5 active torsions:
REMARK  status: ('A' for Active; 'I' for Inactive)
REMARK    1  A    between atoms: C_2  and  C_4
REMARK    2  A    between atoms: C_5  and  C_23
REMARK    3  A    between atoms: C_10  and  C_13
REMARK    4  A    between atoms: N_16  and  C_17
REMARK    5  A    between atoms: C_17  and  C_18
REMARK                            x       y       z     vdW  Elec       q    Type
REMARK                         _______ _______ _______ _____ _____    ______ ____
ROOT
ATOM      1  C   UNL     1       2.871  -0.122   0.000  0.00  0.00    +0.000 A 
ATOM      2  C   UNL     1       2.784   0.698   0.000  0.00  0.00    +0.000 A 
ATOM      3  N   UNL     1       3.538   1.034   0.000  0.00  0.00    +0.000 NA
ATOM      4  C   UNL     1       4.090   0.420   0.000  0.00  0.00    +0.000 A 
ATOM      5  C   UNL     1       4.915   0.420   0.000  0.00  0.00    +0.000 A 
ATOM      6  C   UNL     1       5.328  -0.294   0.000  0.00  0.00    +0.000 A 
ATOM      7  C   UNL     1       4.915  -1.008   0.000  0.00  0.00    +0.000 A 
ATOM      8  C   UNL     1       4.090  -1.008   0.000  0.00  0.00    +0.000 A 
ATOM      9  C   UNL     1       3.678  -0.294   0.000  0.00  0.00    +0.000 A 
ENDROOT
BRANCH   2  10
ATOM     10  C   UNL     1       2.070   1.110   0.000  0.00  0.00    +0.000 A 
ATOM     11  C   UNL     1       1.356   0.698   0.000  0.00  0.00    +0.000 A 
ATOM     12  N   UNL     1       0.641   1.110   0.000  0.00  0.00    +0.000 N 
ATOM     13  N   UNL     1      -0.143   0.856   0.000  0.00  0.00    +0.000 NA
ATOM     14  C   UNL     1      -0.628   1.523   0.000  0.00  0.00    +0.000 A 
ATOM     15  N   UNL     1      -0.143   2.190   0.000  0.00  0.00    +0.000 NA
ATOM     16  C   UNL     1       0.641   1.935   0.000  0.00  0.00    +0.000 A 
ATOM     17  C   UNL     1       1.356   2.348   0.000  0.00  0.00    +0.000 A 
ATOM     18  C   UNL     1       1.356   3.173   0.000  0.00  0.00    +0.000 C 
ATOM     19  C   UNL     1       2.070   1.935   0.000  0.00  0.00    +0.000 A 
ATOM     20  C   UNL     1       2.784   2.348   0.000  0.00  0.00    +0.000 C 
ENDBRANCH   2  10
BRANCH   7  21
ATOM     21  C   UNL     1       5.328  -1.723   0.000  0.00  0.00    +0.000 C 
ATOM     22  C   UNL     1       6.153  -1.723   0.000  0.00  0.00    +0.000 C 
ATOM     23  C   UNL     1       6.565  -2.438   0.000  0.00  0.00    +0.000 C 
ATOM     24  N   UNL     1       6.153  -3.152   0.000  0.00  0.00    +0.000 NA
ATOM     25  C   UNL     1       5.328  -3.152   0.000  0.00  0.00    +0.000 C 
ATOM     26  C   UNL     1       4.915  -2.438   0.000  0.00  0.00    +0.000 C 
BRANCH  24  27
ATOM     27  C   UNL     1       6.565  -3.866   0.000  0.00  0.00    +0.000 C 
BRANCH  27  28
ATOM     28  C   UNL     1       6.153  -4.581   0.000  0.00  0.00    +0.000 C 
ATOM     29  N   UNL     1       6.565  -5.295   0.000  0.00  0.00    +0.000 NA
ATOM     30  O   UNL     1       5.328  -4.581   0.000  0.00  0.00    +0.000 OA
ENDBRANCH  27  28
ENDBRANCH  24  27
ENDBRANCH   7  21
BRANCH   1  32
ATOM     31  C   UNL     1       2.429  -1.482   0.000  0.00  0.00    +0.000 C 
ATOM     32  C   UNL     1       2.258  -0.675   0.000  0.00  0.00    +0.000 C 
ATOM     33  C   UNL     1       1.473  -0.420   0.000  0.00  0.00    +0.000 C 
ENDBRANCH   1  32
TORSDOF 5
