REMARK  Name = 
REMARK  6 active torsions:
REMARK  status: ('A' for Active; 'I' for Inactive)
REMARK    1  A    between atoms: C_1  and  O_5
REMARK    2  A    between atoms: C_2  and  C_7
REMARK    3  A    between atoms: C_12  and  O_16
REMARK    4  A    between atoms: O_16  and  C_17
REMARK    5  A    between atoms: C_20  and  N_24
REMARK    6  A    between atoms: N_26  and  C_28
REMARK                            x       y       z     vdW  Elec       q    Type
REMARK                         _______ _______ _______ _____ _____    ______ ____
ROOT
ATOM      1  C   UNL     1      -3.266   1.643   0.000  0.00  0.00    +0.000 A 
ATOM      2  C   UNL     1      -3.267   0.814   0.000  0.00  0.00    +0.000 A 
ATOM      3  C   UNL     1      -2.551   0.401   0.000  0.00  0.00    +0.000 A 
ATOM      4  C   UNL     1      -2.554   2.056   0.000  0.00  0.00    +0.000 A 
ATOM      5  C   UNL     1      -1.837   1.644   0.000  0.00  0.00    +0.000 A 
ATOM      6  C   UNL     1      -1.839   0.816   0.000  0.00  0.00    +0.000 A 
ATOM      7  C   UNL     1      -1.123   0.406   0.000  0.00  0.00    +0.000 A 
ATOM      8  C   UNL     1      -0.410   0.822   0.000  0.00  0.00    +0.000 A 
ATOM      9  C   UNL     1      -0.413   1.651   0.000  0.00  0.00    +0.000 A 
ATOM     10  N   UNL     1      -1.127   2.059   0.000  0.00  0.00    +0.000 NA
ENDROOT
BRANCH   2  11
ATOM     11  C   UNL     1      -3.984   0.403   0.000  0.00  0.00    +0.000 C 
ATOM     12  N   UNL     1      -4.695   0.816   0.000  0.00  0.00    +0.000 NA
ATOM     13  O   UNL     1      -3.985  -0.422   0.000  0.00  0.00    +0.000 OA
ENDBRANCH   2  11
BRANCH   1  14
ATOM     14  O   UNL     1      -3.982   2.055   0.000  0.00  0.00    +0.000 OA
ATOM     15  C   UNL     1      -4.697   1.642   0.000  0.00  0.00    +0.000 C 
ENDBRANCH   1  14
BRANCH   7  16
ATOM     16  O   UNL     1      -1.120  -0.419   0.000  0.00  0.00    +0.000 OA
BRANCH  16  17
ATOM     17  C   UNL     1      -0.407  -0.829   0.000  0.00  0.00    +0.000 A 
ATOM     18  C   UNL     1      -0.408  -1.649   0.000  0.00  0.00    +0.000 A 
ATOM     19  C   UNL     1       0.304  -2.059   0.000  0.00  0.00    +0.000 A 
ATOM     20  C   UNL     1       1.017  -1.647   0.000  0.00  0.00    +0.000 A 
ATOM     21  C   UNL     1       1.013  -0.820   0.000  0.00  0.00    +0.000 A 
ATOM     22  C   UNL     1       0.300  -0.413   0.000  0.00  0.00    +0.000 A 
ATOM     23 CL   UNL     1       1.725  -0.404   0.000  0.00  0.00    +0.000 Cl
BRANCH  20  24
ATOM     24  N   UNL     1       1.732  -2.057   0.000  0.00  0.00    +0.000 NA
ATOM     25  C   UNL     1       2.446  -1.643   0.000  0.00  0.00    +0.000 C 
ATOM     26  N   UNL     1       3.161  -2.053   0.000  0.00  0.00    +0.000 NA
ATOM     27  O   UNL     1       2.443  -0.818   0.000  0.00  0.00    +0.000 OA
BRANCH  26  28
ATOM     28  C   UNL     1       3.875  -1.639   0.000  0.00  0.00    +0.000 C 
ATOM     29  C   UNL     1       4.697  -1.635   0.000  0.00  0.00    +0.000 C 
ATOM     30  C   UNL     1       4.283  -0.922   0.000  0.00  0.00    +0.000 C 
ENDBRANCH  26  28
ENDBRANCH  20  24
ENDBRANCH  16  17
ENDBRANCH   7  16
TORSDOF 6
