REMARK  Name = 
REMARK  4 active torsions:
REMARK  status: ('A' for Active; 'I' for Inactive)
REMARK    1  A    between atoms: C_5  and  C_6
REMARK    2  A    between atoms: C_6  and  C_7
REMARK    3  A    between atoms: C_19  and  C_20
REMARK    4  A    between atoms: C_27  and  C_31
REMARK                            x       y       z     vdW  Elec       q    Type
REMARK                         _______ _______ _______ _____ _____    ______ ____
ROOT
ATOM      1  F   UNL     1      10.497   4.410   0.000  0.00  0.00    +0.000 F 
ATOM      2  C   UNL     1      10.497   3.585   0.000  0.00  0.00    +0.000 A 
ATOM      3  C   UNL     1      11.211   3.173   0.000  0.00  0.00    +0.000 A 
ATOM      4  C   UNL     1      11.211   2.348   0.000  0.00  0.00    +0.000 A 
ATOM      5  C   UNL     1      10.497   1.935   0.000  0.00  0.00    +0.000 A 
ATOM      6  C   UNL     1       9.783   2.348   0.000  0.00  0.00    +0.000 A 
ATOM      7  C   UNL     1       9.783   3.173   0.000  0.00  0.00    +0.000 A 
ENDROOT
BRANCH   7   8
ATOM      8  C   UNL     1       9.068   3.585   0.000  0.00  0.00    +0.000 C 
ATOM      9  O   UNL     1       9.068   4.410   0.000  0.00  0.00    +0.000 OA
ATOM     10  N   UNL     1       8.354   3.173   0.000  0.00  0.00    +0.000 N 
ATOM     11  C   UNL     1       8.354   2.348   0.000  0.00  0.00    +0.000 C 
ATOM     12  C   UNL     1       7.639   1.935   0.000  0.00  0.00    +0.000 C 
ATOM     13  N   UNL     1       6.925   2.348   0.000  0.00  0.00    +0.000 N 
ATOM     14  N   UNL     1       6.140   2.093   0.000  0.00  0.00    +0.000 NA
ATOM     15  C   UNL     1       5.655   2.760   0.000  0.00  0.00    +0.000 A 
ATOM     16  N   UNL     1       6.140   3.428   0.000  0.00  0.00    +0.000 NA
ATOM     17  C   UNL     1       6.925   3.173   0.000  0.00  0.00    +0.000 A 
ATOM     18  C   UNL     1       7.639   3.585   0.000  0.00  0.00    +0.000 C 
BRANCH  15  19
ATOM     19  C   UNL     1       4.830   2.760   0.000  0.00  0.00    +0.000 C 
ATOM     20  F   UNL     1       4.005   2.760   0.000  0.00  0.00    +0.000 F 
ATOM     21  F   UNL     1       4.830   3.585   0.000  0.00  0.00    +0.000 F 
ATOM     22  F   UNL     1       4.830   1.935   0.000  0.00  0.00    +0.000 F 
ENDBRANCH  15  19
ENDBRANCH   7   8
BRANCH   5  23
ATOM     23  C   UNL     1      10.497   1.110   0.000  0.00  0.00    +0.000 C 
BRANCH  23  24
ATOM     24  C   UNL     1      11.211   0.698   0.000  0.00  0.00    +0.000 A 
ATOM     25  N   UNL     1      11.926   1.110   0.000  0.00  0.00    +0.000 NA
ATOM     26  N   UNL     1      12.640   0.698   0.000  0.00  0.00    +0.000 NA
ATOM     27  C   UNL     1      12.640  -0.127   0.000  0.00  0.00    +0.000 A 
ATOM     28  O   UNL     1      13.355  -0.540   0.000  0.00  0.00    +0.000 OA
ATOM     29  C   UNL     1      11.926  -0.540   0.000  0.00  0.00    +0.000 A 
ATOM     30  C   UNL     1      11.926  -1.365   0.000  0.00  0.00    +0.000 A 
ATOM     31  C   UNL     1      11.211  -1.777   0.000  0.00  0.00    +0.000 A 
ATOM     32  C   UNL     1      10.497  -1.365   0.000  0.00  0.00    +0.000 A 
ATOM     33  C   UNL     1      10.497  -0.540   0.000  0.00  0.00    +0.000 A 
ATOM     34  C   UNL     1      11.211  -0.127   0.000  0.00  0.00    +0.000 A 
ENDBRANCH  23  24
ENDBRANCH   5  23
TORSDOF 4
