REMARK  Name = 
REMARK  5 active torsions:
REMARK  status: ('A' for Active; 'I' for Inactive)
REMARK    1  A    between atoms: C_2  and  C_31
REMARK    2  A    between atoms: C_4  and  O_5
REMARK    3  A    between atoms: O_5  and  C_6
REMARK    4  A    between atoms: C_7  and  C_19
REMARK    5  A    between atoms: C_31  and  C_33
REMARK                            x       y       z     vdW  Elec       q    Type
REMARK                         _______ _______ _______ _____ _____    ______ ____
ROOT
ATOM      1  C   UNL     1      -0.715  -0.412   0.000  0.00  0.00    +0.000 A 
ATOM      2  C   UNL     1      -0.715  -1.238   0.000  0.00  0.00    +0.000 A 
ATOM      3  O   UNL     1       0.000  -1.650   0.000  0.00  0.00    +0.000 OA
ATOM      4  C   UNL     1       0.715  -1.238   0.000  0.00  0.00    +0.000 A 
ATOM      5  C   UNL     1       0.715  -0.412   0.000  0.00  0.00    +0.000 A 
ATOM      6  C   UNL     1       0.000   0.000   0.000  0.00  0.00    +0.000 A 
ATOM      7  O   UNL     1       0.000   0.825   0.000  0.00  0.00    +0.000 OA
ATOM      8  C   UNL     1       1.429   0.000   0.000  0.00  0.00    +0.000 A 
ATOM      9  O   UNL     1       1.429   0.825   0.000  0.00  0.00    +0.000 OA
ATOM     10  C   UNL     1       2.143  -0.412   0.000  0.00  0.00    +0.000 A 
ATOM     11  C   UNL     1       2.143  -1.238   0.000  0.00  0.00    +0.000 A 
ATOM     12  O   UNL     1       2.858  -1.650   0.000  0.00  0.00    +0.000 OA
ATOM     13  C   UNL     1       1.429  -1.650   0.000  0.00  0.00    +0.000 A 
ENDROOT
BRANCH   2  14
ATOM     14  C   UNL     1      -1.429  -1.650   0.000  0.00  0.00    +0.000 A 
ATOM     15  C   UNL     1      -1.429  -2.475   0.000  0.00  0.00    +0.000 A 
ATOM     16  C   UNL     1      -2.143  -2.888   0.000  0.00  0.00    +0.000 A 
ATOM     17  C   UNL     1      -2.858  -2.475   0.000  0.00  0.00    +0.000 A 
ATOM     18  O   UNL     1      -3.572  -2.888   0.000  0.00  0.00    +0.000 OA
ATOM     19  C   UNL     1      -2.858  -1.650   0.000  0.00  0.00    +0.000 A 
ATOM     20  O   UNL     1      -3.572  -1.238   0.000  0.00  0.00    +0.000 OA
ATOM     21  C   UNL     1      -2.143  -1.238   0.000  0.00  0.00    +0.000 A 
ENDBRANCH   2  14
BRANCH   1  22
ATOM     22  O   UNL     1      -1.429   0.000   0.000  0.00  0.00    +0.000 OA
BRANCH  22  25
ATOM     23  C   UNL     1      -1.016   2.095   0.000  0.00  0.00    +0.000 C 
ATOM     24  O   UNL     1      -0.761   1.310   0.000  0.00  0.00    +0.000 OA
ATOM     25  C   UNL     1      -1.429   0.825   0.000  0.00  0.00    +0.000 C 
ATOM     26  C   UNL     1      -2.096   1.310   0.000  0.00  0.00    +0.000 C 
ATOM     27  O   UNL     1      -2.881   1.055   0.000  0.00  0.00    +0.000 OA
ATOM     28  C   UNL     1      -1.841   2.095   0.000  0.00  0.00    +0.000 C 
ATOM     29  O   UNL     1      -2.326   2.762   0.000  0.00  0.00    +0.000 OA
BRANCH  23  30
ATOM     30  C   UNL     1      -0.531   2.762   0.000  0.00  0.00    +0.000 C 
ATOM     31  O   UNL     1      -0.867   3.516   0.000  0.00  0.00    +0.000 OA
BRANCH  30  32
ATOM     32  C   UNL     1       0.289   2.676   0.000  0.00  0.00    +0.000 C 
ATOM     33  O   UNL     1       0.774   3.343   0.000  0.00  0.00    +0.000 OA
ENDBRANCH  30  32
ENDBRANCH  23  30
ENDBRANCH  22  25
ENDBRANCH   1  22
TORSDOF 5
