REMARK  Name = 
REMARK  8 active torsions:
REMARK  status: ('A' for Active; 'I' for Inactive)
REMARK    1  A    between atoms: C_9  and  N_13
REMARK    2  A    between atoms: C_9  and  P_29
REMARK    3  A    between atoms: C_10  and  N_14
REMARK    4  A    between atoms: C_10  and  P_30
REMARK    5  A    between atoms: C_11  and  N_15
REMARK    6  A    between atoms: C_11  and  P_31
REMARK    7  A    between atoms: C_12  and  N_16
REMARK    8  A    between atoms: C_12  and  P_32
REMARK                            x       y       z     vdW  Elec       q    Type
REMARK                         _______ _______ _______ _____ _____    ______ ____
ROOT
ATOM      1  C   UNL     1       2.045   0.014   0.000  0.00  0.00    +0.000 C 
ATOM      2  C   UNL     1       2.045  -0.811   0.000  0.00  0.00    +0.000 C 
ATOM      3  C   UNL     1       0.918   1.141   0.000  0.00  0.00    +0.000 C 
ATOM      4  C   UNL     1       0.093   1.141   0.000  0.00  0.00    +0.000 C 
ATOM      5  C   UNL     1       0.918  -1.938   0.000  0.00  0.00    +0.000 C 
ATOM      6  C   UNL     1       0.093  -1.938   0.000  0.00  0.00    +0.000 C 
ATOM      7  C   UNL     1      -1.034   0.014   0.000  0.00  0.00    +0.000 C 
ATOM      8  C   UNL     1      -1.034  -0.811   0.000  0.00  0.00    +0.000 C 
ATOM      9  N   UNL     1       1.330   0.426   0.000  0.00  0.00    +0.000 NA
ATOM     10  N   UNL     1       1.330  -1.223   0.000  0.00  0.00    +0.000 NA
ATOM     11  N   UNL     1      -0.320   0.426   0.000  0.00  0.00    +0.000 NA
ATOM     12  N   UNL     1      -0.320  -1.223   0.000  0.00  0.00    +0.000 NA
ENDROOT
BRANCH  10  13
ATOM     13  C   UNL     1       1.913  -1.807   0.000  0.00  0.00    +0.000 C 
BRANCH  13  17
ATOM     14  O   UNL     1       0.903  -2.390   0.000  0.00  0.00    +0.000 OA
ATOM     15  O   UNL     1       2.497  -2.817   0.000  0.00  0.00    +0.000 OA
ATOM     16  O   UNL     1       1.486  -3.401   0.000  0.00  0.00    +0.000 OA
ATOM     17  P   UNL     1       1.700  -2.604   0.000  0.00  0.00    +0.000 P 
ENDBRANCH  13  17
ENDBRANCH  10  13
BRANCH   9  18
ATOM     18  C   UNL     1       1.913   1.010   0.000  0.00  0.00    +0.000 C 
BRANCH  18  22
ATOM     19  O   UNL     1       1.486   2.604   0.000  0.00  0.00    +0.000 OA
ATOM     20  O   UNL     1       2.497   2.020   0.000  0.00  0.00    +0.000 OA
ATOM     21  O   UNL     1       0.903   1.593   0.000  0.00  0.00    +0.000 OA
ATOM     22  P   UNL     1       1.700   1.807   0.000  0.00  0.00    +0.000 P 
ENDBRANCH  18  22
ENDBRANCH   9  18
BRANCH  11  23
ATOM     23  C   UNL     1      -0.903   1.010   0.000  0.00  0.00    +0.000 C 
BRANCH  23  27
ATOM     24  O   UNL     1       0.107   1.593   0.000  0.00  0.00    +0.000 OA
ATOM     25  O   UNL     1      -1.486   2.020   0.000  0.00  0.00    +0.000 OA
ATOM     26  O   UNL     1      -0.476   2.604   0.000  0.00  0.00    +0.000 OA
ATOM     27  P   UNL     1      -0.690   1.807   0.000  0.00  0.00    +0.000 P 
ENDBRANCH  23  27
ENDBRANCH  11  23
BRANCH  12  28
ATOM     28  C   UNL     1      -0.903  -1.807   0.000  0.00  0.00    +0.000 C 
BRANCH  28  32
ATOM     29  O   UNL     1      -2.497  -1.380   0.000  0.00  0.00    +0.000 OA
ATOM     30  O   UNL     1      -1.913  -2.390   0.000  0.00  0.00    +0.000 OA
ATOM     31  O   UNL     1      -1.486  -0.796   0.000  0.00  0.00    +0.000 OA
ATOM     32  P   UNL     1      -1.700  -1.593   0.000  0.00  0.00    +0.000 P 
ENDBRANCH  28  32
ENDBRANCH  12  28
TORSDOF 8
REMARK  Name = 
REMARK  8 active torsions:
REMARK  status: ('A' for Active; 'I' for Inactive)
REMARK    1  A    between atoms: C_9  and  N_13
REMARK    2  A    between atoms: C_9  and  P_29
REMARK    3  A    between atoms: C_10  and  N_14
REMARK    4  A    between atoms: C_10  and  P_30
REMARK    5  A    between atoms: C_11  and  N_15
REMARK    6  A    between atoms: C_11  and  P_31
REMARK    7  A    between atoms: C_12  and  N_16
REMARK    8  A    between atoms: C_12  and  P_32
REMARK                            x       y       z     vdW  Elec       q    Type
REMARK                         _______ _______ _______ _____ _____    ______ ____
ROOT
ATOM      1 HO   UNL     1       1.273   3.401   0.000  0.00  0.00    +0.000 Ho
ENDROOT
TORSDOF 0
