REMARK  Name = 
REMARK  8 active torsions:
REMARK  status: ('A' for Active; 'I' for Inactive)
REMARK    1  A    between atoms: C_5  and  O_8
REMARK    2  A    between atoms: O_8  and  C_9
REMARK    3  A    between atoms: C_12  and  N_16
REMARK    4  A    between atoms: C_20  and  C_27
REMARK    5  A    between atoms: C_28  and  C_29
REMARK    6  A    between atoms: C_29  and  N_30
REMARK    7  A    between atoms: C_31  and  C_33
REMARK    8  A    between atoms: C_33  and  O_34
REMARK                            x       y       z     vdW  Elec       q    Type
REMARK                         _______ _______ _______ _____ _____    ______ ____
ROOT
ATOM      1  N   UNL     1      -2.858   6.600   0.000  0.00  0.00    +0.000 NA
ATOM      2  C   UNL     1      -3.572   6.188   0.000  0.00  0.00    +0.000 A 
ATOM      3  C   UNL     1      -3.572   5.362   0.000  0.00  0.00    +0.000 A 
ATOM      4  C   UNL     1      -2.858   4.950   0.000  0.00  0.00    +0.000 A 
ATOM      5  C   UNL     1      -2.858   4.125   0.000  0.00  0.00    +0.000 A 
ATOM      6  C   UNL     1      -3.572   3.712   0.000  0.00  0.00    +0.000 A 
ATOM      7  C   UNL     1      -4.287   4.125   0.000  0.00  0.00    +0.000 A 
ATOM      8  C   UNL     1      -4.287   4.950   0.000  0.00  0.00    +0.000 A 
ATOM      9  N   UNL     1      -5.001   5.362   0.000  0.00  0.00    +0.000 NA
ATOM     10  C   UNL     1      -5.001   6.188   0.000  0.00  0.00    +0.000 A 
ATOM     11  N   UNL     1      -4.287   6.600   0.000  0.00  0.00    +0.000 NA
ENDROOT
BRANCH   1  15
ATOM     12  C   UNL     1      -2.858   9.075   0.000  0.00  0.00    +0.000 A 
ATOM     13  C   UNL     1      -2.143   8.662   0.000  0.00  0.00    +0.000 A 
ATOM     14  C   UNL     1      -2.143   7.838   0.000  0.00  0.00    +0.000 A 
ATOM     15  C   UNL     1      -2.858   7.425   0.000  0.00  0.00    +0.000 A 
ATOM     16  C   UNL     1      -3.572   7.838   0.000  0.00  0.00    +0.000 A 
ATOM     17  C   UNL     1      -3.572   8.662   0.000  0.00  0.00    +0.000 A 
ATOM     18  C   UNL     1      -4.287   9.075   0.000  0.00  0.00    +0.000 C 
BRANCH  12  19
ATOM     19  O   UNL     1      -2.858   9.900   0.000  0.00  0.00    +0.000 OA
BRANCH  19  24
ATOM     20  C   UNL     1      -5.716  11.550   0.000  0.00  0.00    +0.000 C 
ATOM     21  C   UNL     1      -5.001  11.137   0.000  0.00  0.00    +0.000 A 
ATOM     22  C   UNL     1      -4.287  11.550   0.000  0.00  0.00    +0.000 A 
ATOM     23  C   UNL     1      -3.572  11.137   0.000  0.00  0.00    +0.000 A 
ATOM     24  C   UNL     1      -3.572  10.312   0.000  0.00  0.00    +0.000 A 
ATOM     25  C   UNL     1      -4.287   9.900   0.000  0.00  0.00    +0.000 A 
ATOM     26  N   UNL     1      -5.001  10.312   0.000  0.00  0.00    +0.000 NA
ENDBRANCH  19  24
ENDBRANCH  12  19
ENDBRANCH   1  15
BRANCH   5  27
ATOM     27  C   UNL     1      -2.143   3.712   0.000  0.00  0.00    +0.000 C 
ATOM     28  C   UNL     1      -2.143   2.888   0.000  0.00  0.00    +0.000 C 
BRANCH  28  29
ATOM     29  C   UNL     1      -1.429   2.475   0.000  0.00  0.00    +0.000 C 
BRANCH  29  30
ATOM     30  N   UNL     1      -0.715   2.888   0.000  0.00  0.00    +0.000 NA
ATOM     31  C   UNL     1       0.000   2.475   0.000  0.00  0.00    +0.000 C 
ATOM     32  O   UNL     1       0.000   1.650   0.000  0.00  0.00    +0.000 OA
BRANCH  31  33
ATOM     33  C   UNL     1       0.715   2.888   0.000  0.00  0.00    +0.000 C 
BRANCH  33  34
ATOM     34  O   UNL     1       1.429   2.475   0.000  0.00  0.00    +0.000 OA
ATOM     35  C   UNL     1       2.143   2.888   0.000  0.00  0.00    +0.000 C 
ENDBRANCH  33  34
ENDBRANCH  31  33
ENDBRANCH  29  30
ENDBRANCH  28  29
ENDBRANCH   5  27
TORSDOF 8
