REMARK  Name = 
REMARK  7 active torsions:
REMARK  status: ('A' for Active; 'I' for Inactive)
REMARK    1  A    between atoms: C_3  and  C_23
REMARK    2  A    between atoms: N_4  and  C_5
REMARK    3  A    between atoms: C_5  and  C_6
REMARK    4  A    between atoms: C_9  and  C_10
REMARK    5  A    between atoms: N_12  and  C_13
REMARK    6  A    between atoms: C_16  and  S_19
REMARK    7  A    between atoms: C_24  and  C_29
REMARK                            x       y       z     vdW  Elec       q    Type
REMARK                         _______ _______ _______ _____ _____    ______ ____
ROOT
ATOM      1  C   UNL     1       0.715  -0.412   0.000  0.00  0.00    +0.000 C 
ATOM      2  C   UNL     1       0.715  -1.238   0.000  0.00  0.00    +0.000 A 
ATOM      3  C   UNL     1       1.382  -1.722   0.000  0.00  0.00    +0.000 A 
ATOM      4  N   UNL     1       1.127  -2.507   0.000  0.00  0.00    +0.000 N 
ATOM      5  C   UNL     1       0.302  -2.507   0.000  0.00  0.00    +0.000 A 
ATOM      6  C   UNL     1       0.047  -1.722   0.000  0.00  0.00    +0.000 A 
ENDROOT
BRANCH   3   7
ATOM      7  C   UNL     1       2.167  -1.468   0.000  0.00  0.00    +0.000 A 
ATOM      8  C   UNL     1       2.338  -0.660   0.000  0.00  0.00    +0.000 A 
ATOM      9  C   UNL     1       3.123  -0.406   0.000  0.00  0.00    +0.000 A 
ATOM     10  C   UNL     1       3.736  -0.958   0.000  0.00  0.00    +0.000 A 
ATOM     11  C   UNL     1       3.564  -1.765   0.000  0.00  0.00    +0.000 A 
ATOM     12  C   UNL     1       2.780  -2.019   0.000  0.00  0.00    +0.000 A 
BRANCH   8  13
ATOM     13  C   UNL     1       1.725  -0.108   0.000  0.00  0.00    +0.000 C 
ATOM     14  F   UNL     1       1.112   0.444   0.000  0.00  0.00    +0.000 F 
ATOM     15  F   UNL     1       2.277   0.505   0.000  0.00  0.00    +0.000 F 
ATOM     16  F   UNL     1       1.173  -0.722   0.000  0.00  0.00    +0.000 F 
ENDBRANCH   8  13
ENDBRANCH   3   7
BRANCH   6  17
ATOM     17  C   UNL     1      -0.738  -1.468   0.000  0.00  0.00    +0.000 C 
ATOM     18  O   UNL     1      -0.909  -0.660   0.000  0.00  0.00    +0.000 OA
ATOM     19  N   UNL     1      -1.351  -2.019   0.000  0.00  0.00    +0.000 NA
BRANCH  19  20
ATOM     20  C   UNL     1      -2.135  -1.765   0.000  0.00  0.00    +0.000 A 
ATOM     21  C   UNL     1      -2.748  -2.317   0.000  0.00  0.00    +0.000 A 
ATOM     22  C   UNL     1      -3.533  -2.062   0.000  0.00  0.00    +0.000 A 
ATOM     23  C   UNL     1      -3.704  -1.255   0.000  0.00  0.00    +0.000 A 
ATOM     24  C   UNL     1      -3.091  -0.703   0.000  0.00  0.00    +0.000 A 
ATOM     25  C   UNL     1      -2.307  -0.958   0.000  0.00  0.00    +0.000 A 
BRANCH  23  26
ATOM     26  S   UNL     1      -4.489  -1.000   0.000  0.00  0.00    +0.000 S 
ATOM     27  C   UNL     1      -5.274  -0.745   0.000  0.00  0.00    +0.000 C 
ATOM     28  O   UNL     1      -4.744  -1.784   0.000  0.00  0.00    +0.000 OA
ATOM     29  O   UNL     1      -4.234  -0.215   0.000  0.00  0.00    +0.000 OA
ENDBRANCH  23  26
ENDBRANCH  19  20
ENDBRANCH   6  17
BRANCH   4  30
ATOM     30  C   UNL     1       1.612  -3.175   0.000  0.00  0.00    +0.000 C 
BRANCH  30  31
ATOM     31  C   UNL     1       2.432  -3.088   0.000  0.00  0.00    +0.000 C 
ATOM     32  O   UNL     1       2.917  -3.756   0.000  0.00  0.00    +0.000 OA
ENDBRANCH  30  31
ENDBRANCH   4  30
TORSDOF 7
