REMARK  Name = 
REMARK  1 active torsions:
REMARK  status: ('A' for Active; 'I' for Inactive)
REMARK    1  A    between atoms: N_5  and  C_8
REMARK                            x       y       z     vdW  Elec       q    Type
REMARK                         _______ _______ _______ _____ _____    ______ ____
ROOT
ATOM      1  C   UNL     1       4.058  -1.539   0.000  0.00  0.00    +0.000 A 
ATOM      2  C   UNL     1       3.365  -1.987   0.000  0.00  0.00    +0.000 A 
ATOM      3  N   UNL     1       2.631  -1.611   0.000  0.00  0.00    +0.000 NA
ATOM      4  C   UNL     1       2.589  -0.787   0.000  0.00  0.00    +0.000 A 
ATOM      5  N   UNL     1       1.855  -0.410   0.000  0.00  0.00    +0.000 NA
ATOM      6  C   UNL     1       1.814   0.413   0.000  0.00  0.00    +0.000 A 
ATOM      7  N   UNL     1       1.079   0.790   0.000  0.00  0.00    +0.000 NA
ATOM      8  C   UNL     1       1.038   1.614   0.000  0.00  0.00    +0.000 A 
ATOM      9  C   UNL     1       1.731   2.062   0.000  0.00  0.00    +0.000 A 
ATOM     10  C   UNL     1       1.519   2.859   0.000  0.00  0.00    +0.000 A 
ATOM     11  C   UNL     1       0.695   2.904   0.000  0.00  0.00    +0.000 A 
ATOM     12  N   UNL     1       0.398   2.134   0.000  0.00  0.00    +0.000 N 
ATOM     13  C   UNL     1      -0.417   2.007   0.000  0.00  0.00    +0.000 C 
ATOM     14  C   UNL     1       0.101   1.365   0.000  0.00  0.00    +0.000 C 
ATOM     15  C   UNL     1      -0.197   0.595   0.000  0.00  0.00    +0.000 C 
ATOM     16  C   UNL     1      -1.012   0.468   0.000  0.00  0.00    +0.000 C 
ATOM     17  C   UNL     1      -1.530   1.110   0.000  0.00  0.00    +0.000 C 
ATOM     18  C   UNL     1      -1.232   1.880   0.000  0.00  0.00    +0.000 C 
ATOM     19  C   UNL     1      -0.935   2.649   0.000  0.00  0.00    +0.000 C 
ATOM     20  N   UNL     1      -0.637   3.419   0.000  0.00  0.00    +0.000 NA
ATOM     21  C   UNL     1       0.178   3.546   0.000  0.00  0.00    +0.000 C 
ATOM     22  O   UNL     1       0.475   4.316   0.000  0.00  0.00    +0.000 OA
ATOM     23  C   UNL     1       2.465   1.685   0.000  0.00  0.00    +0.000 A 
ATOM     24  N   UNL     1       2.506   0.861   0.000  0.00  0.00    +0.000 NA
ATOM     25  C   UNL     1       3.282  -0.339   0.000  0.00  0.00    +0.000 A 
ATOM     26  C   UNL     1       4.016  -0.715   0.000  0.00  0.00    +0.000 A 
ENDROOT
BRANCH   1  31
ATOM     27  C   UNL     1       6.995  -3.044   0.000  0.00  0.00    +0.000 C 
ATOM     28  N   UNL     1       6.260  -2.667   0.000  0.00  0.00    +0.000 NA
ATOM     29  C   UNL     1       5.567  -3.115   0.000  0.00  0.00    +0.000 C 
ATOM     30  C   UNL     1       4.833  -2.739   0.000  0.00  0.00    +0.000 C 
ATOM     31  N   UNL     1       4.792  -1.915   0.000  0.00  0.00    +0.000 N 
ATOM     32  C   UNL     1       5.485  -1.467   0.000  0.00  0.00    +0.000 C 
ATOM     33  C   UNL     1       6.219  -1.843   0.000  0.00  0.00    +0.000 C 
ENDBRANCH   1  31
TORSDOF 1
