REMARK  Name = 
REMARK  2 active torsions:
REMARK  status: ('A' for Active; 'I' for Inactive)
REMARK    1  A    between atoms: C_12  and  C_22
REMARK    2  A    between atoms: C_21  and  C_22
REMARK                            x       y       z     vdW  Elec       q    Type
REMARK                         _______ _______ _______ _____ _____    ______ ____
ROOT
ATOM      1  C   UNL     1      -1.801  -0.329   0.000  0.00  0.00    +0.000 C 
ATOM      2  C   UNL     1      -2.523  -0.725   0.000  0.00  0.00    +0.000 C 
ATOM      3  C   UNL     1      -2.523  -1.564   0.000  0.00  0.00    +0.000 C 
ATOM      4  C   UNL     1      -1.801  -1.976   0.000  0.00  0.00    +0.000 C 
ATOM      5  C   UNL     1      -1.101  -1.564   0.000  0.00  0.00    +0.000 C 
ATOM      6  C   UNL     1      -0.387  -1.976   0.000  0.00  0.00    +0.000 C 
ATOM      7  C   UNL     1      -1.101  -0.725   0.000  0.00  0.00    +0.000 C 
ATOM      8  C   UNL     1       0.344   0.899   0.000  0.00  0.00    +0.000 C 
ATOM      9  C   UNL     1       1.043   0.479   0.000  0.00  0.00    +0.000 C 
ATOM     10  C   UNL     1       1.043  -0.329   0.000  0.00  0.00    +0.000 C 
ATOM     11  C   UNL     1       1.828  -0.585   0.000  0.00  0.00    +0.000 C 
ATOM     12  C   UNL     1       1.828   0.735   0.000  0.00  0.00    +0.000 C 
ATOM     13  C   UNL     1       1.043   1.326   0.000  0.00  0.00    +0.000 C 
ATOM     14  C   UNL     1      -1.101   0.101   0.000  0.00  0.00    +0.000 C 
ATOM     15  O   UNL     1      -3.256  -1.995   0.000  0.00  0.00    +0.000 OA
ATOM     16  C   UNL     1      -0.387  -0.329   0.000  0.00  0.00    +0.000 C 
ATOM     17  C   UNL     1       0.344  -0.725   0.000  0.00  0.00    +0.000 C 
ATOM     18  C   UNL     1       0.344  -1.564   0.000  0.00  0.00    +0.000 C 
ATOM     19  F   UNL     1      -0.387  -1.153   0.000  0.00  0.00    +0.000 F 
ATOM     20  C   UNL     1      -0.387   0.479   0.000  0.00  0.00    +0.000 C 
ATOM     21  O   UNL     1      -1.101   0.891   0.000  0.00  0.00    +0.000 OA
ATOM     22  C   UNL     1       2.294   0.067   0.000  0.00  0.00    +0.000 C 
ATOM     23  C   UNL     1       3.119   0.067   0.000  0.00  0.00    +0.000 C 
ATOM     24  O   UNL     1       2.548   1.138   0.000  0.00  0.00    +0.000 OA
ENDROOT
BRANCH  12  25
ATOM     25  C   UNL     1       1.828   1.583   0.000  0.00  0.00    +0.000 C 
ATOM     26  O   UNL     1       1.113   1.995   0.000  0.00  0.00    +0.000 OA
BRANCH  25  27
ATOM     27  C   UNL     1       2.542   1.995   0.000  0.00  0.00    +0.000 C 
ATOM     28  O   UNL     1       3.256   1.583   0.000  0.00  0.00    +0.000 OA
ENDBRANCH  25  27
ENDBRANCH  12  25
TORSDOF 2
