REMARK  Name = 
REMARK  8 active torsions:
REMARK  status: ('A' for Active; 'I' for Inactive)
REMARK    1  A    between atoms: C_2  and  C_4
REMARK    2  A    between atoms: C_4  and  O_6
REMARK    3  A    between atoms: O_6  and  C_7
REMARK    4  A    between atoms: C_7  and  C_8
REMARK    5  A    between atoms: C_9  and  O_23
REMARK    6  A    between atoms: C_11  and  N_13
REMARK    7  A    between atoms: O_23  and  C_24
REMARK    8  A    between atoms: C_24  and  C_26
REMARK                            x       y       z     vdW  Elec       q    Type
REMARK                         _______ _______ _______ _____ _____    ______ ____
ROOT
ATOM      1  C   UNL     1       3.905  -4.183   0.000  0.00  0.00    +0.000 C 
ATOM      2  C   UNL     1       3.991  -3.363   0.000  0.00  0.00    +0.000 C 
ATOM      3  C   UNL     1       4.798  -3.191   0.000  0.00  0.00    +0.000 C 
ATOM      4  C   UNL     1       5.210  -3.906   0.000  0.00  0.00    +0.000 C 
ATOM      5  O   UNL     1       4.658  -4.519   0.000  0.00  0.00    +0.000 OA
ATOM      6  C   UNL     1       4.720  -2.370   0.000  0.00  0.00    +0.000 C 
ATOM      7  F   UNL     1       5.460  -2.699   0.000  0.00  0.00    +0.000 F 
ENDROOT
BRANCH   4   8
ATOM      8  N   UNL     1       6.031  -3.992   0.000  0.00  0.00    +0.000 N 
ATOM      9  C   UNL     1       6.516  -3.324   0.000  0.00  0.00    +0.000 A 
ATOM     10  C   UNL     1       7.336  -3.411   0.000  0.00  0.00    +0.000 A 
ATOM     11  C   UNL     1       7.672  -4.164   0.000  0.00  0.00    +0.000 A 
ATOM     12  N   UNL     1       7.187  -4.832   0.000  0.00  0.00    +0.000 NA
ATOM     13  C   UNL     1       6.366  -4.745   0.000  0.00  0.00    +0.000 A 
ATOM     14  O   UNL     1       5.881  -5.413   0.000  0.00  0.00    +0.000 OA
ATOM     15  N   UNL     1       8.492  -4.250   0.000  0.00  0.00    +0.000 NA
ENDBRANCH   4   8
BRANCH   1  16
ATOM     16  C   UNL     1       3.190  -4.596   0.000  0.00  0.00    +0.000 C 
BRANCH  16  17
ATOM     17  O   UNL     1       2.476  -4.183   0.000  0.00  0.00    +0.000 OA
BRANCH  17  18
ATOM     18  C   UNL     1       1.761  -4.596   0.000  0.00  0.00    +0.000 C 
ATOM     19  O   UNL     1       1.761  -5.421   0.000  0.00  0.00    +0.000 OA
BRANCH  18  21
ATOM     20  C   UNL     1       0.332  -4.596   0.000  0.00  0.00    +0.000 C 
ATOM     21  C   UNL     1       1.047  -4.183   0.000  0.00  0.00    +0.000 C 
ATOM     22  C   UNL     1       1.047  -3.358   0.000  0.00  0.00    +0.000 C 
ENDBRANCH  18  21
ENDBRANCH  17  18
ENDBRANCH  16  17
ENDBRANCH   1  16
BRANCH   2  23
ATOM     23  O   UNL     1       3.378  -2.811   0.000  0.00  0.00    +0.000 OA
BRANCH  23  24
ATOM     24  C   UNL     1       3.549  -2.004   0.000  0.00  0.00    +0.000 C 
ATOM     25  O   UNL     1       4.334  -1.749   0.000  0.00  0.00    +0.000 OA
BRANCH  24  26
ATOM     26  C   UNL     1       2.936  -1.452   0.000  0.00  0.00    +0.000 C 
ATOM     27  C   UNL     1       2.152  -1.706   0.000  0.00  0.00    +0.000 C 
ATOM     28  C   UNL     1       3.108  -0.645   0.000  0.00  0.00    +0.000 C 
ENDBRANCH  24  26
ENDBRANCH  23  24
ENDBRANCH   2  23
TORSDOF 8
