REMARK  Name = 
REMARK  2 active torsions:
REMARK  status: ('A' for Active; 'I' for Inactive)
REMARK    1  A    between atoms: C_30  and  N_31
REMARK    2  A    between atoms: C_33  and  O_34
REMARK                            x       y       z     vdW  Elec       q    Type
REMARK                         _______ _______ _______ _____ _____    ______ ____
ROOT
ATOM      1  O   UNL     1      -1.420   3.205   0.000  0.00  0.00    +0.000 OA
ATOM      2  C   UNL     1      -0.637   2.943   0.000  0.00  0.00    +0.000 C 
ATOM      3  N   UNL     1       0.034   3.422   0.000  0.00  0.00    +0.000 NA
ATOM      4  C   UNL     1       0.697   2.932   0.000  0.00  0.00    +0.000 C 
ATOM      5  O   UNL     1       1.484   3.179   0.000  0.00  0.00    +0.000 OA
ATOM      6  C   UNL     1       0.435   2.149   0.000  0.00  0.00    +0.000 A 
ATOM      7  C   UNL     1       0.881   1.439   0.000  0.00  0.00    +0.000 A 
ATOM      8  C   UNL     1       1.707   1.212   0.000  0.00  0.00    +0.000 A 
ATOM      9  C   UNL     1       1.759   0.388   0.000  0.00  0.00    +0.000 A 
ATOM     10  C   UNL     1       2.498   0.022   0.000  0.00  0.00    +0.000 A 
ATOM     11  C   UNL     1       3.185   0.478   0.000  0.00  0.00    +0.000 A 
ATOM     12  C   UNL     1       3.133   1.302   0.000  0.00  0.00    +0.000 A 
ATOM     13  C   UNL     1       2.394   1.669   0.000  0.00  0.00    +0.000 A 
ATOM     14  N   UNL     1       0.957   0.065   0.000  0.00  0.00    +0.000 N 
ATOM     15  C   UNL     1       0.427   0.742   0.000  0.00  0.00    +0.000 A 
ATOM     16  C   UNL     1      -0.418   0.707   0.000  0.00  0.00    +0.000 A 
ATOM     17  N   UNL     1      -0.944   0.007   0.000  0.00  0.00    +0.000 N 
ATOM     18  C   UNL     1      -1.762   0.368   0.000  0.00  0.00    +0.000 A 
ATOM     19  C   UNL     1      -1.685   1.189   0.000  0.00  0.00    +0.000 A 
ATOM     20  C   UNL     1      -2.358   1.667   0.000  0.00  0.00    +0.000 A 
ATOM     21  C   UNL     1      -3.108   1.322   0.000  0.00  0.00    +0.000 A 
ATOM     22  C   UNL     1      -3.185   0.501   0.000  0.00  0.00    +0.000 A 
ATOM     23  C   UNL     1      -2.512   0.024   0.000  0.00  0.00    +0.000 A 
ATOM     24  C   UNL     1      -0.856   1.422   0.000  0.00  0.00    +0.000 A 
ATOM     25  C   UNL     1      -0.389   2.156   0.000  0.00  0.00    +0.000 A 
ATOM     26  C   UNL     1      -0.698  -0.897   0.000  0.00  0.00    +0.000 C 
ATOM     27  O   UNL     1       0.054  -0.813   0.000  0.00  0.00    +0.000 OA
ATOM     28  C   UNL     1       0.797  -0.831   0.000  0.00  0.00    +0.000 C 
ATOM     29  C   UNL     1       0.834  -1.727   0.000  0.00  0.00    +0.000 C 
ATOM     30  C   UNL     1       0.150  -2.236   0.000  0.00  0.00    +0.000 C 
ATOM     31  C   UNL     1      -0.604  -1.819   0.000  0.00  0.00    +0.000 C 
ATOM     32  C   UNL     1      -1.509  -1.048   0.000  0.00  0.00    +0.000 C 
ENDROOT
BRANCH  30  33
ATOM     33  N   UNL     1       0.206  -3.059   0.000  0.00  0.00    +0.000 NA
ATOM     34  C   UNL     1       0.947  -3.422   0.000  0.00  0.00    +0.000 C 
ENDBRANCH  30  33
BRANCH  31  35
ATOM     35  O   UNL     1      -1.292  -2.274   0.000  0.00  0.00    +0.000 OA
ATOM     36  C   UNL     1      -1.242  -3.097   0.000  0.00  0.00    +0.000 C 
ENDBRANCH  31  35
TORSDOF 2
