REMARK  Name = 
REMARK  28 active torsions:
REMARK  status: ('A' for Active; 'I' for Inactive)
REMARK    1  A    between atoms: O_3  and  C_53
REMARK    2  A    between atoms: O_3  and  C_67
REMARK    3  A    between atoms: O_6  and  C_54
REMARK    4  A    between atoms: O_6  and  C_68
REMARK    5  A    between atoms: N_21  and  C_39
REMARK    6  A    between atoms: N_22  and  C_40
REMARK    7  A    between atoms: N_23  and  C_41
REMARK    8  A    between atoms: N_24  and  C_42
REMARK    9  A    between atoms: N_25  and  C_57
REMARK   10  A    between atoms: N_25  and  C_63
REMARK   11  A    between atoms: N_26  and  C_58
REMARK   12  A    between atoms: N_26  and  C_64
REMARK   13  A    between atoms: N_27  and  C_61
REMARK   14  A    between atoms: N_28  and  C_62
REMARK   15  A    between atoms: N_29  and  C_79
REMARK   16  A    between atoms: N_30  and  C_80
REMARK   17  A    between atoms: C_39  and  C_51
REMARK   18  A    between atoms: C_40  and  C_52
REMARK   19  A    between atoms: C_41  and  C_55
REMARK   20  A    between atoms: C_42  and  C_56
REMARK   21  A    between atoms: C_47  and  C_59
REMARK   22  A    between atoms: C_49  and  C_60
REMARK   23  A    between atoms: C_51  and  C_57
REMARK   24  A    between atoms: C_52  and  C_58
REMARK   25  A    between atoms: C_55  and  C_61
REMARK   26  A    between atoms: C_56  and  C_62
REMARK   27  A    between atoms: C_69  and  C_71
REMARK   28  A    between atoms: C_70  and  C_73
REMARK                            x       y       z     vdW  Elec       q    Type
REMARK                         _______ _______ _______ _____ _____    ______ ____
ROOT
ATOM      1  O   UNL     1       4.309   2.511   0.000  0.00  0.00    +0.000 OA
ATOM      2  O   UNL     1       2.901   3.920   0.000  0.00  0.00    +0.000 OA
ATOM      3  C   UNL     1       2.901   1.928   0.000  0.00  0.00    +0.000 C 
ATOM      4  C   UNL     1       2.318   2.511   0.000  0.00  0.00    +0.000 C 
ATOM      5  C   UNL     1       3.485   2.511   0.000  0.00  0.00    +0.000 C 
ATOM      6  C   UNL     1       2.901   3.095   0.000  0.00  0.00    +0.000 C 
ENDROOT
BRANCH   3   7
ATOM      7  N   UNL     1       2.901   1.103   0.000  0.00  0.00    +0.000 NA
BRANCH   7   8
ATOM      8  C   UNL     1       3.616   0.690   0.000  0.00  0.00    +0.000 C 
BRANCH   8   9
ATOM      9  C   UNL     1       3.616  -0.135   0.000  0.00  0.00    +0.000 C 
BRANCH   9  10
ATOM     10  C   UNL     1       4.330  -0.547   0.000  0.00  0.00    +0.000 C 
BRANCH  10  11
ATOM     11  N   UNL     1       4.330  -1.372   0.000  0.00  0.00    +0.000 NA
ATOM     12  N   UNL     1       4.330  -3.022   0.000  0.00  0.00    +0.000 NA
ATOM     13  C   UNL     1       5.045  -1.785   0.000  0.00  0.00    +0.000 C 
ATOM     14  C   UNL     1       3.616  -1.785   0.000  0.00  0.00    +0.000 C 
ATOM     15  C   UNL     1       5.045  -2.610   0.000  0.00  0.00    +0.000 C 
ATOM     16  C   UNL     1       3.616  -2.610   0.000  0.00  0.00    +0.000 C 
BRANCH  12  17
ATOM     17  C   UNL     1       4.330  -3.847   0.000  0.00  0.00    +0.000 C 
BRANCH  17  18
ATOM     18  C   UNL     1       5.045  -4.260   0.000  0.00  0.00    +0.000 C 
BRANCH  18  19
ATOM     19  C   UNL     1       5.045  -5.085   0.000  0.00  0.00    +0.000 C 
BRANCH  19  21
ATOM     20  O   UNL     1       5.045  -6.735   0.000  0.00  0.00    +0.000 OA
ATOM     21  N   UNL     1       5.759  -5.497   0.000  0.00  0.00    +0.000 NA
ATOM     22  C   UNL     1       5.759  -6.322   0.000  0.00  0.00    +0.000 C 
BRANCH  22  24
ATOM     23  C   UNL     1       7.188  -7.972   0.000  0.00  0.00    +0.000 A 
ATOM     24  C   UNL     1       6.473  -6.735   0.000  0.00  0.00    +0.000 A 
ATOM     25  C   UNL     1       6.473  -7.560   0.000  0.00  0.00    +0.000 A 
ATOM     26  C   UNL     1       7.902  -7.560   0.000  0.00  0.00    +0.000 A 
ATOM     27  C   UNL     1       7.188  -6.322   0.000  0.00  0.00    +0.000 A 
ATOM     28  C   UNL     1       7.902  -6.735   0.000  0.00  0.00    +0.000 A 
BRANCH  28  31
ATOM     29  O   UNL     1       8.617  -5.497   0.000  0.00  0.00    +0.000 OA
ATOM     30  O   UNL     1       9.331  -6.735   0.000  0.00  0.00    +0.000 OA
ATOM     31  N   UNL     1       8.617  -6.322   0.000  0.00  0.00    +0.000 N 
ENDBRANCH  28  31
BRANCH  23  32
ATOM     32  O   UNL     1       7.188  -8.797   0.000  0.00  0.00    +0.000 OA
BRANCH  32  41
ATOM     33  O   UNL     1       5.759  -8.797   0.000  0.00  0.00    +0.000 OA
ATOM     34  O   UNL     1       4.330 -10.447   0.000  0.00  0.00    +0.000 OA
ATOM     35  O   UNL     1       5.759 -11.272   0.000  0.00  0.00    +0.000 OA
ATOM     36  O   UNL     1       7.188 -10.447   0.000  0.00  0.00    +0.000 OA
ATOM     37  C   UNL     1       5.045 -10.035   0.000  0.00  0.00    +0.000 C 
ATOM     38  C   UNL     1       5.759 -10.447   0.000  0.00  0.00    +0.000 C 
ATOM     39  C   UNL     1       5.045  -9.210   0.000  0.00  0.00    +0.000 C 
ATOM     40  C   UNL     1       6.473 -10.035   0.000  0.00  0.00    +0.000 C 
ATOM     41  C   UNL     1       6.473  -9.210   0.000  0.00  0.00    +0.000 C 
BRANCH  39  43
ATOM     42  O   UNL     1       3.616  -9.210   0.000  0.00  0.00    +0.000 OA
ATOM     43  C   UNL     1       4.330  -8.797   0.000  0.00  0.00    +0.000 C 
ENDBRANCH  39  43
ENDBRANCH  32  41
ENDBRANCH  23  32
ENDBRANCH  22  24
ENDBRANCH  19  21
ENDBRANCH  18  19
ENDBRANCH  17  18
ENDBRANCH  12  17
ENDBRANCH  10  11
ENDBRANCH   9  10
ENDBRANCH   8   9
ENDBRANCH   7   8
ENDBRANCH   3   7
BRANCH   4  44
ATOM     44  N   UNL     1       1.493   2.511   0.000  0.00  0.00    +0.000 NA
BRANCH  44  45
ATOM     45  C   UNL     1       1.080   3.226   0.000  0.00  0.00    +0.000 C 
BRANCH  45  46
ATOM     46  C   UNL     1       0.255   3.226   0.000  0.00  0.00    +0.000 C 
BRANCH  46  47
ATOM     47  C   UNL     1      -0.157   3.940   0.000  0.00  0.00    +0.000 C 
BRANCH  47  48
ATOM     48  N   UNL     1      -0.982   3.940   0.000  0.00  0.00    +0.000 NA
ATOM     49  N   UNL     1      -2.632   3.940   0.000  0.00  0.00    +0.000 NA
ATOM     50  C   UNL     1      -1.395   3.226   0.000  0.00  0.00    +0.000 C 
ATOM     51  C   UNL     1      -1.395   4.655   0.000  0.00  0.00    +0.000 C 
ATOM     52  C   UNL     1      -2.220   3.226   0.000  0.00  0.00    +0.000 C 
ATOM     53  C   UNL     1      -2.220   4.655   0.000  0.00  0.00    +0.000 C 
BRANCH  49  54
ATOM     54  C   UNL     1      -3.457   3.940   0.000  0.00  0.00    +0.000 C 
BRANCH  54  55
ATOM     55  C   UNL     1      -3.870   4.655   0.000  0.00  0.00    +0.000 C 
BRANCH  55  56
ATOM     56  C   UNL     1      -4.695   4.655   0.000  0.00  0.00    +0.000 C 
BRANCH  56  58
ATOM     57  O   UNL     1      -6.345   4.655   0.000  0.00  0.00    +0.000 OA
ATOM     58  N   UNL     1      -5.107   5.369   0.000  0.00  0.00    +0.000 NA
ATOM     59  C   UNL     1      -5.932   5.369   0.000  0.00  0.00    +0.000 C 
BRANCH  59  61
ATOM     60  C   UNL     1      -6.345   7.513   0.000  0.00  0.00    +0.000 A 
ATOM     61  C   UNL     1      -6.345   6.084   0.000  0.00  0.00    +0.000 A 
ATOM     62  C   UNL     1      -5.932   6.798   0.000  0.00  0.00    +0.000 A 
ATOM     63  C   UNL     1      -7.170   7.513   0.000  0.00  0.00    +0.000 A 
ATOM     64  C   UNL     1      -7.170   6.084   0.000  0.00  0.00    +0.000 A 
ATOM     65  C   UNL     1      -7.582   6.798   0.000  0.00  0.00    +0.000 A 
BRANCH  65  68
ATOM     66  O   UNL     1      -8.820   6.084   0.000  0.00  0.00    +0.000 OA
ATOM     67  O   UNL     1      -8.820   7.513   0.000  0.00  0.00    +0.000 OA
ATOM     68  N   UNL     1      -8.407   6.798   0.000  0.00  0.00    +0.000 N 
ENDBRANCH  65  68
BRANCH  60  69
ATOM     69  O   UNL     1      -5.932   8.227   0.000  0.00  0.00    +0.000 OA
BRANCH  69  78
ATOM     70  O   UNL     1      -7.170   8.942   0.000  0.00  0.00    +0.000 OA
ATOM     71  O   UNL     1      -7.582  11.085   0.000  0.00  0.00    +0.000 OA
ATOM     72  O   UNL     1      -5.932  11.085   0.000  0.00  0.00    +0.000 OA
ATOM     73  O   UNL     1      -5.107   9.656   0.000  0.00  0.00    +0.000 OA
ATOM     74  C   UNL     1      -7.170  10.371   0.000  0.00  0.00    +0.000 C 
ATOM     75  C   UNL     1      -6.345  10.371   0.000  0.00  0.00    +0.000 C 
ATOM     76  C   UNL     1      -7.582   9.656   0.000  0.00  0.00    +0.000 C 
ATOM     77  C   UNL     1      -5.932   9.656   0.000  0.00  0.00    +0.000 C 
ATOM     78  C   UNL     1      -6.345   8.942   0.000  0.00  0.00    +0.000 C 
BRANCH  76  80
ATOM     79  O   UNL     1      -8.820  10.371   0.000  0.00  0.00    +0.000 OA
ATOM     80  C   UNL     1      -8.407   9.656   0.000  0.00  0.00    +0.000 C 
ENDBRANCH  76  80
ENDBRANCH  69  78
ENDBRANCH  60  69
ENDBRANCH  59  61
ENDBRANCH  56  58
ENDBRANCH  55  56
ENDBRANCH  54  55
ENDBRANCH  49  54
ENDBRANCH  47  48
ENDBRANCH  46  47
ENDBRANCH  45  46
ENDBRANCH  44  45
ENDBRANCH   4  44
TORSDOF 28
