REMARK  Name = 
REMARK  6 active torsions:
REMARK  status: ('A' for Active; 'I' for Inactive)
REMARK    1  A    between atoms: N_1  and  C_28
REMARK    2  A    between atoms: C_10  and  O_17
REMARK    3  A    between atoms: O_17  and  C_18
REMARK    4  A    between atoms: C_18  and  O_19
REMARK    5  A    between atoms: O_19  and  C_20
REMARK    6  A    between atoms: C_20  and  O_21
REMARK                            x       y       z     vdW  Elec       q    Type
REMARK                         _______ _______ _______ _____ _____    ______ ____
ROOT
ATOM      1  N   UNL     1      -0.932  -0.352   0.000  0.00  0.00    +0.000 N 
ATOM      2  N   UNL     1      -0.228   0.062   0.000  0.00  0.00    +0.000 N 
ATOM      3  C   UNL     1      -0.228   0.890   0.000  0.00  0.00    +0.000 A 
ATOM      4  C   UNL     1      -0.932   1.304   0.000  0.00  0.00    +0.000 C 
ATOM      5  N   UNL     1      -1.636   0.890   0.000  0.00  0.00    +0.000 N 
ATOM      6  C   UNL     1      -1.636   0.062   0.000  0.00  0.00    +0.000 C 
ATOM      7  C   UNL     1       0.517  -0.352   0.000  0.00  0.00    +0.000 A 
ATOM      8  C   UNL     1       1.222   0.062   0.000  0.00  0.00    +0.000 A 
ATOM      9  C   UNL     1       1.222   0.890   0.000  0.00  0.00    +0.000 A 
ATOM     10  C   UNL     1       0.517   1.304   0.000  0.00  0.00    +0.000 A 
ATOM     11  C   UNL     1      -2.340   1.304   0.000  0.00  0.00    +0.000 C 
ATOM     12  C   UNL     1      -3.085   0.890   0.000  0.00  0.00    +0.000 C 
ATOM     13  O   UNL     1      -3.085   0.062   0.000  0.00  0.00    +0.000 OA
ATOM     14  C   UNL     1      -2.340  -0.352   0.000  0.00  0.00    +0.000 C 
ATOM     15  O   UNL     1      -0.932   2.132   0.000  0.00  0.00    +0.000 OA
ATOM     16  O   UNL     1       1.925   1.304   0.000  0.00  0.00    +0.000 OA
ENDROOT
BRANCH   1  20
ATOM     17  C   UNL     1      -1.346  -3.043   0.000  0.00  0.00    +0.000 C 
ATOM     18  C   UNL     1      -1.843  -2.381   0.000  0.00  0.00    +0.000 A 
ATOM     19  C   UNL     1      -1.677  -1.553   0.000  0.00  0.00    +0.000 A 
ATOM     20  C   UNL     1      -0.932  -1.222   0.000  0.00  0.00    +0.000 C 
ATOM     21  S   UNL     1      -0.517  -3.043   0.000  0.00  0.00    +0.000 S 
ATOM     22  C   UNL     1      -0.186  -1.594   0.000  0.00  0.00    +0.000 A 
ATOM     23  C   UNL     1       0.021  -2.422   0.000  0.00  0.00    +0.000 A 
ATOM     24  C   UNL     1      -2.257  -0.973   0.000  0.00  0.00    +0.000 A 
ATOM     25  C   UNL     1      -3.043  -1.222   0.000  0.00  0.00    +0.000 A 
ATOM     26  C   UNL     1      -3.250  -2.008   0.000  0.00  0.00    +0.000 A 
ATOM     27  C   UNL     1      -2.671  -2.588   0.000  0.00  0.00    +0.000 A 
ATOM     28  C   UNL     1       0.807  -2.671   0.000  0.00  0.00    +0.000 A 
ATOM     29  C   UNL     1       1.429  -2.091   0.000  0.00  0.00    +0.000 A 
ATOM     30  C   UNL     1       1.222  -1.304   0.000  0.00  0.00    +0.000 A 
ATOM     31  C   UNL     1       0.435  -1.056   0.000  0.00  0.00    +0.000 A 
ATOM     32  F   UNL     1      -2.878  -3.375   0.000  0.00  0.00    +0.000 F 
ATOM     33  F   UNL     1      -4.037  -2.215   0.000  0.00  0.00    +0.000 F 
ENDBRANCH   1  20
BRANCH  10  34
ATOM     34  O   UNL     1       0.517   2.132   0.000  0.00  0.00    +0.000 OA
BRANCH  34  35
ATOM     35  C   UNL     1       1.222   2.546   0.000  0.00  0.00    +0.000 C 
BRANCH  35  36
ATOM     36  O   UNL     1       1.925   2.132   0.000  0.00  0.00    +0.000 OA
BRANCH  36  37
ATOM     37  C   UNL     1       2.629   2.546   0.000  0.00  0.00    +0.000 C 
ATOM     38  O   UNL     1       2.629   3.375   0.000  0.00  0.00    +0.000 OA
BRANCH  37  39
ATOM     39  O   UNL     1       3.333   2.132   0.000  0.00  0.00    +0.000 OA
ATOM     40  C   UNL     1       4.037   2.546   0.000  0.00  0.00    +0.000 C 
ENDBRANCH  37  39
ENDBRANCH  36  37
ENDBRANCH  35  36
ENDBRANCH  34  35
ENDBRANCH  10  34
TORSDOF 6
