REMARK  Name = 
REMARK  2 active torsions:
REMARK  status: ('A' for Active; 'I' for Inactive)
REMARK    1  A    between atoms: C_6  and  C_25
REMARK    2  A    between atoms: C_10  and  N_13
REMARK                            x       y       z     vdW  Elec       q    Type
REMARK                         _______ _______ _______ _____ _____    ______ ____
ROOT
ATOM      1  N   UNL     1       1.917   0.811   0.000  0.00  0.00    +0.000 NA
ATOM      2  C   UNL     1       1.568   1.558   0.000  0.00  0.00    +0.000 C 
ATOM      3  C   UNL     1       0.766   1.752   0.000  0.00  0.00    +0.000 C 
ATOM      4  C   UNL     1       0.115   1.245   0.000  0.00  0.00    +0.000 A 
ATOM      5  C   UNL     1       0.105   0.420   0.000  0.00  0.00    +0.000 A 
ATOM      6  C   UNL     1       0.744  -0.102   0.000  0.00  0.00    +0.000 C 
ATOM      7  C   UNL     1       1.551   0.072   0.000  0.00  0.00    +0.000 C 
ATOM      8  C   UNL     1      -0.614   0.016   0.000  0.00  0.00    +0.000 A 
ATOM      9  C   UNL     1      -1.323   0.437   0.000  0.00  0.00    +0.000 A 
ATOM     10  C   UNL     1      -1.313   1.262   0.000  0.00  0.00    +0.000 A 
ATOM     11  C   UNL     1      -0.594   1.666   0.000  0.00  0.00    +0.000 A 
ATOM     12  O   UNL     1      -2.043   0.033   0.000  0.00  0.00    +0.000 OA
ATOM     13  C   UNL     1       2.742   0.801   0.000  0.00  0.00    +0.000 C 
ENDROOT
BRANCH   6  22
ATOM     14  O   UNL     1      -0.943  -0.706   0.000  0.00  0.00    +0.000 OA
ATOM     15  C   UNL     1      -1.571  -1.241   0.000  0.00  0.00    +0.000 C 
ATOM     16  C   UNL     1      -1.256  -2.004   0.000  0.00  0.00    +0.000 C 
ATOM     17  C   UNL     1      -0.433  -1.940   0.000  0.00  0.00    +0.000 A 
ATOM     18  C   UNL     1      -0.240  -1.138   0.000  0.00  0.00    +0.000 A 
ATOM     19  C   UNL     1       0.165  -2.508   0.000  0.00  0.00    +0.000 A 
ATOM     20  C   UNL     1       0.956  -2.274   0.000  0.00  0.00    +0.000 A 
ATOM     21  C   UNL     1       1.149  -1.472   0.000  0.00  0.00    +0.000 A 
ATOM     22  C   UNL     1       0.551  -0.904   0.000  0.00  0.00    +0.000 A 
ENDBRANCH   6  22
BRANCH  10  23
ATOM     23  N   UNL     1      -2.023   1.683   0.000  0.00  0.00    +0.000 N 
ATOM     24  O   UNL     1      -2.013   2.508   0.000  0.00  0.00    +0.000 OA
ATOM     25  O   UNL     1      -2.742   1.279   0.000  0.00  0.00    +0.000 OA
ENDBRANCH  10  23
TORSDOF 2
