REMARK  Name = 
REMARK  39 active torsions:
REMARK  status: ('A' for Active; 'I' for Inactive)
REMARK    1  A    between atoms: C_3  and  C_5
REMARK    2  A    between atoms: C_4  and  C_6
REMARK    3  A    between atoms: C_5  and  C_7
REMARK    4  A    between atoms: C_6  and  C_8
REMARK    5  A    between atoms: C_7  and  C_9
REMARK    6  A    between atoms: C_8  and  C_21
REMARK    7  A    between atoms: C_9  and  C_10
REMARK    8  A    between atoms: C_10  and  C_11
REMARK    9  A    between atoms: C_11  and  C_12
REMARK   10  A    between atoms: C_12  and  C_13
REMARK   11  A    between atoms: C_13  and  C_14
REMARK   12  A    between atoms: C_14  and  C_15
REMARK   13  A    between atoms: C_15  and  C_16
REMARK   14  A    between atoms: C_16  and  C_19
REMARK   15  A    between atoms: C_17  and  C_18
REMARK   16  A    between atoms: C_17  and  C_20
REMARK   17  A    between atoms: C_18  and  C_22
REMARK   18  A    between atoms: C_19  and  C_23
REMARK   19  A    between atoms: C_20  and  C_24
REMARK   20  A    between atoms: C_21  and  C_25
REMARK   21  A    between atoms: C_22  and  C_26
REMARK   22  A    between atoms: C_23  and  C_27
REMARK   23  A    between atoms: C_24  and  C_28
REMARK   24  A    between atoms: C_25  and  C_34
REMARK   25  A    between atoms: C_26  and  C_35
REMARK   26  A    between atoms: C_27  and  C_38
REMARK   27  A    between atoms: C_28  and  C_39
REMARK   28  A    between atoms: C_30  and  C_36
REMARK   29  A    between atoms: C_31  and  C_36
REMARK   30  A    between atoms: C_31  and  O_47
REMARK   31  A    between atoms: C_32  and  C_37
REMARK   32  A    between atoms: C_32  and  O_46
REMARK   33  A    between atoms: C_33  and  C_37
REMARK   34  A    between atoms: C_33  and  O_48
REMARK   35  A    between atoms: C_37  and  O_49
REMARK   36  A    between atoms: C_38  and  O_46
REMARK   37  A    between atoms: C_39  and  O_49
REMARK   38  A    between atoms: O_47  and  P_50
REMARK   39  A    between atoms: O_48  and  P_50
REMARK                            x       y       z     vdW  Elec       q    Type
REMARK                         _______ _______ _______ _____ _____    ______ ____
ROOT
ATOM      1  C   UNL     1       1.374   0.247   0.000  0.00  0.00    +0.000 C 
ENDROOT
BRANCH   1   2
ATOM      2  C   UNL     1       0.659   0.659   0.000  0.00  0.00    +0.000 C 
BRANCH   2   3
ATOM      3  O   UNL     1      -0.055   0.247   0.000  0.00  0.00    +0.000 OA
BRANCH   3   4
ATOM      4  C   UNL     1      -0.770   0.659   0.000  0.00  0.00    +0.000 C 
ATOM      5  O   UNL     1      -0.770   1.484   0.000  0.00  0.00    +0.000 OA
BRANCH   4   6
ATOM      6  C   UNL     1      -1.484   0.247   0.000  0.00  0.00    +0.000 C 
BRANCH   6   7
ATOM      7  C   UNL     1      -2.199   0.659   0.000  0.00  0.00    +0.000 C 
BRANCH   7   8
ATOM      8  C   UNL     1      -2.913   0.247   0.000  0.00  0.00    +0.000 C 
BRANCH   8   9
ATOM      9  C   UNL     1      -3.628   0.659   0.000  0.00  0.00    +0.000 C 
BRANCH   9  10
ATOM     10  C   UNL     1      -4.342   0.247   0.000  0.00  0.00    +0.000 C 
BRANCH  10  11
ATOM     11  C   UNL     1      -5.056   0.659   0.000  0.00  0.00    +0.000 C 
BRANCH  11  12
ATOM     12  C   UNL     1      -5.771   0.247   0.000  0.00  0.00    +0.000 C 
BRANCH  12  13
ATOM     13  C   UNL     1      -6.486   0.659   0.000  0.00  0.00    +0.000 C 
BRANCH  13  14
ATOM     14  C   UNL     1      -7.200   0.247   0.000  0.00  0.00    +0.000 C 
BRANCH  14  15
ATOM     15  C   UNL     1      -7.914   0.659   0.000  0.00  0.00    +0.000 C 
BRANCH  15  16
ATOM     16  C   UNL     1      -8.629   0.247   0.000  0.00  0.00    +0.000 C 
BRANCH  16  17
ATOM     17  C   UNL     1      -9.343   0.659   0.000  0.00  0.00    +0.000 C 
BRANCH  17  18
ATOM     18  C   UNL     1     -10.058   0.247   0.000  0.00  0.00    +0.000 C 
BRANCH  18  20
ATOM     19  C   UNL     1     -11.487   0.247   0.000  0.00  0.00    +0.000 C 
ATOM     20  C   UNL     1     -10.772   0.659   0.000  0.00  0.00    +0.000 C 
ENDBRANCH  18  20
ENDBRANCH  17  18
ENDBRANCH  16  17
ENDBRANCH  15  16
ENDBRANCH  14  15
ENDBRANCH  13  14
ENDBRANCH  12  13
ENDBRANCH  11  12
ENDBRANCH  10  11
ENDBRANCH   9  10
ENDBRANCH   8   9
ENDBRANCH   7   8
ENDBRANCH   6   7
ENDBRANCH   4   6
ENDBRANCH   3   4
ENDBRANCH   2   3
ENDBRANCH   1   2
BRANCH   1  21
ATOM     21  C   UNL     1       1.374  -0.578   0.000  0.00  0.00    +0.000 C 
BRANCH  21  22
ATOM     22  O   UNL     1       2.088  -0.991   0.000  0.00  0.00    +0.000 OA
BRANCH  22  25
ATOM     23  O   UNL     1       1.263  -1.816   0.000  0.00  0.00    +0.000 OA
ATOM     24  O   UNL     1       2.088  -2.641   0.000  0.00  0.00    +0.000 OA
ATOM     25  P   UNL     1       2.088  -1.816   0.000  0.00  0.00    +0.000 P 
BRANCH  25  26
ATOM     26  O   UNL     1       2.913  -1.816   0.000  0.00  0.00    +0.000 OA
BRANCH  26  27
ATOM     27  C   UNL     1       3.326  -2.530   0.000  0.00  0.00    +0.000 C 
BRANCH  27  28
ATOM     28  C   UNL     1       4.151  -2.530   0.000  0.00  0.00    +0.000 C 
ATOM     29  O   UNL     1       4.563  -1.816   0.000  0.00  0.00    +0.000 OA
BRANCH  28  30
ATOM     30  C   UNL     1       4.563  -3.245   0.000  0.00  0.00    +0.000 C 
ATOM     31  O   UNL     1       4.151  -3.959   0.000  0.00  0.00    +0.000 OA
ENDBRANCH  28  30
ENDBRANCH  27  28
ENDBRANCH  26  27
ENDBRANCH  25  26
ENDBRANCH  22  25
ENDBRANCH  21  22
ENDBRANCH   1  21
BRANCH   1  32
ATOM     32  O   UNL     1       2.088   0.659   0.000  0.00  0.00    +0.000 OA
BRANCH  32  33
ATOM     33  C   UNL     1       2.803   0.247   0.000  0.00  0.00    +0.000 C 
ATOM     34  O   UNL     1       2.803  -0.578   0.000  0.00  0.00    +0.000 OA
BRANCH  33  35
ATOM     35  C   UNL     1       3.517   0.659   0.000  0.00  0.00    +0.000 C 
BRANCH  35  36
ATOM     36  C   UNL     1       4.231   0.247   0.000  0.00  0.00    +0.000 C 
BRANCH  36  37
ATOM     37  C   UNL     1       4.946   0.659   0.000  0.00  0.00    +0.000 C 
BRANCH  37  38
ATOM     38  C   UNL     1       5.660   0.247   0.000  0.00  0.00    +0.000 C 
BRANCH  38  39
ATOM     39  C   UNL     1       6.375   0.659   0.000  0.00  0.00    +0.000 C 
BRANCH  39  40
ATOM     40  C   UNL     1       7.089   0.247   0.000  0.00  0.00    +0.000 C 
BRANCH  40  41
ATOM     41  C   UNL     1       7.804   0.659   0.000  0.00  0.00    +0.000 C 
BRANCH  41  44
ATOM     42  C   UNL     1       8.931  -0.468   0.000  0.00  0.00    +0.000 C 
ATOM     43  C   UNL     1       9.343   0.247   0.000  0.00  0.00    +0.000 C 
ATOM     44  C   UNL     1       8.518   0.247   0.000  0.00  0.00    +0.000 C 
BRANCH  43  45
ATOM     45  C   UNL     1      10.058   0.659   0.000  0.00  0.00    +0.000 C 
BRANCH  45  46
ATOM     46  C   UNL     1      10.058   1.484   0.000  0.00  0.00    +0.000 C 
BRANCH  46  47
ATOM     47  C   UNL     1      10.772   1.897   0.000  0.00  0.00    +0.000 C 
BRANCH  47  48
ATOM     48  C   UNL     1      10.772   2.722   0.000  0.00  0.00    +0.000 C 
BRANCH  48  50
ATOM     49  C   UNL     1      11.487   3.959   0.000  0.00  0.00    +0.000 C 
ATOM     50  C   UNL     1      11.487   3.134   0.000  0.00  0.00    +0.000 C 
ENDBRANCH  48  50
ENDBRANCH  47  48
ENDBRANCH  46  47
ENDBRANCH  45  46
ENDBRANCH  43  45
ENDBRANCH  41  44
ENDBRANCH  40  41
ENDBRANCH  39  40
ENDBRANCH  38  39
ENDBRANCH  37  38
ENDBRANCH  36  37
ENDBRANCH  35  36
ENDBRANCH  33  35
ENDBRANCH  32  33
ENDBRANCH   1  32
TORSDOF 39
