REMARK  Name = 
REMARK  2 active torsions:
REMARK  status: ('A' for Active; 'I' for Inactive)
REMARK    1  A    between atoms: C_2  and  C_3
REMARK    2  A    between atoms: C_6  and  C_8
REMARK                            x       y       z     vdW  Elec       q    Type
REMARK                         _______ _______ _______ _____ _____    ______ ____
ROOT
ATOM      1  C   UNL     1       0.715  -1.238   0.000  0.00  0.00    +0.000 A 
ATOM      2  N   UNL     1       1.382  -1.722   0.000  0.00  0.00    +0.000 NA
ATOM      3  O   UNL     1       1.127  -2.507   0.000  0.00  0.00    +0.000 OA
ATOM      4  C   UNL     1       0.302  -2.507   0.000  0.00  0.00    +0.000 A 
ATOM      5  N   UNL     1       0.047  -1.722   0.000  0.00  0.00    +0.000 NA
ENDROOT
BRANCH   4   6
ATOM      6  C   UNL     1      -0.183  -3.175   0.000  0.00  0.00    +0.000 C 
ATOM      7  C   UNL     1       0.153  -3.928   0.000  0.00  0.00    +0.000 C 
ATOM      8  N   UNL     1      -0.332  -4.596   0.000  0.00  0.00    +0.000 NA
ATOM      9  C   UNL     1      -1.153  -4.509   0.000  0.00  0.00    +0.000 C 
ATOM     10  N   UNL     1      -1.488  -3.756   0.000  0.00  0.00    +0.000 NA
ATOM     11  C   UNL     1      -1.003  -3.088   0.000  0.00  0.00    +0.000 C 
ENDBRANCH   4   6
BRANCH   1  13
ATOM     12  C   UNL     1       1.429   0.000   0.000  0.00  0.00    +0.000 C 
ATOM     13  C   UNL     1       0.715  -0.412   0.000  0.00  0.00    +0.000 C 
ENDBRANCH   1  13
TORSDOF 2
