REMARK  Name = 
REMARK  3 active torsions:
REMARK  status: ('A' for Active; 'I' for Inactive)
REMARK    1  A    between atoms: C_3  and  C_6
REMARK    2  A    between atoms: C_4  and  N_9
REMARK    3  A    between atoms: N_10  and  N_11
REMARK                            x       y       z     vdW  Elec       q    Type
REMARK                         _______ _______ _______ _____ _____    ______ ____
ROOT
ATOM      1  C   UNL     1      -1.770  -1.258   0.000  0.00  0.00    +0.000 A 
ATOM      2  N   UNL     1      -2.023  -0.474   0.000  0.00  0.00    +0.000 NA
ATOM      3  C   UNL     1      -1.359   0.045   0.000  0.00  0.00    +0.000 A 
ATOM      4  C   UNL     1      -0.717  -0.443   0.000  0.00  0.00    +0.000 A 
ATOM      5  N   UNL     1      -0.943  -1.258   0.000  0.00  0.00    +0.000 NA
ENDROOT
BRANCH   3   6
ATOM      6  C   UNL     1      -1.359   0.842   0.000  0.00  0.00    +0.000 C 
ATOM      7  O   UNL     1      -0.640   1.258   0.000  0.00  0.00    +0.000 OA
ATOM      8  N   UNL     1      -2.073   1.258   0.000  0.00  0.00    +0.000 NA
ENDBRANCH   3   6
BRANCH   4   9
ATOM      9  N   UNL     1       0.102  -0.217   0.000  0.00  0.00    +0.000 NA
ATOM     10  N   UNL     1       0.689  -0.800   0.000  0.00  0.00    +0.000 NA
BRANCH  10  11
ATOM     11  N   UNL     1       1.486  -0.590   0.000  0.00  0.00    +0.000 N 
ATOM     12  C   UNL     1       1.701   0.208   0.000  0.00  0.00    +0.000 C 
ATOM     13  C   UNL     1       2.073  -1.173   0.000  0.00  0.00    +0.000 C 
ENDBRANCH  10  11
ENDBRANCH   4   9
TORSDOF 3
