REMARK  Name = 
REMARK  9 active torsions:
REMARK  status: ('A' for Active; 'I' for Inactive)
REMARK    1  A    between atoms: N_2  and  C_4
REMARK    2  A    between atoms: C_7  and  C_10
REMARK    3  A    between atoms: N_12  and  C_13
REMARK    4  A    between atoms: C_13  and  C_14
REMARK    5  A    between atoms: C_14  and  C_15
REMARK    6  A    between atoms: C_15  and  C_16
REMARK    7  A    between atoms: C_16  and  C_17
REMARK    8  A    between atoms: C_17  and  C_18
REMARK    9  A    between atoms: C_18  and  C_19
REMARK                            x       y       z     vdW  Elec       q    Type
REMARK                         _______ _______ _______ _____ _____    ______ ____
ROOT
ATOM      1  C   UNL     1      -1.786   0.825   0.000  0.00  0.00    +0.000 C 
ATOM      2  O   UNL     1      -1.786   1.650   0.000  0.00  0.00    +0.000 OA
ATOM      3  N   UNL     1      -1.072   0.412   0.000  0.00  0.00    +0.000 NA
ENDROOT
BRANCH   1   7
ATOM      4  C   UNL     1      -3.929  -0.412   0.000  0.00  0.00    +0.000 A 
ATOM      5  C   UNL     1      -3.929   0.412   0.000  0.00  0.00    +0.000 A 
ATOM      6  C   UNL     1      -3.215   0.825   0.000  0.00  0.00    +0.000 A 
ATOM      7  C   UNL     1      -2.501   0.412   0.000  0.00  0.00    +0.000 A 
ATOM      8  C   UNL     1      -2.501  -0.412   0.000  0.00  0.00    +0.000 A 
ATOM      9  C   UNL     1      -3.215  -0.825   0.000  0.00  0.00    +0.000 A 
BRANCH   4  11
ATOM     10  C   UNL     1      -4.644  -1.650   0.000  0.00  0.00    +0.000 C 
ATOM     11  N   UNL     1      -4.644  -0.825   0.000  0.00  0.00    +0.000 N 
ATOM     12  C   UNL     1      -5.359  -0.412   0.000  0.00  0.00    +0.000 C 
ENDBRANCH   4  11
ENDBRANCH   1   7
BRANCH   3  13
ATOM     13  C   UNL     1      -0.357   0.825   0.000  0.00  0.00    +0.000 C 
BRANCH  13  14
ATOM     14  C   UNL     1       0.357   0.412   0.000  0.00  0.00    +0.000 C 
BRANCH  14  15
ATOM     15  C   UNL     1       1.072   0.825   0.000  0.00  0.00    +0.000 C 
BRANCH  15  16
ATOM     16  C   UNL     1       1.786   0.412   0.000  0.00  0.00    +0.000 C 
BRANCH  16  17
ATOM     17  C   UNL     1       2.501   0.825   0.000  0.00  0.00    +0.000 C 
BRANCH  17  18
ATOM     18  C   UNL     1       3.215   0.412   0.000  0.00  0.00    +0.000 C 
BRANCH  18  19
ATOM     19  C   UNL     1       3.929   0.825   0.000  0.00  0.00    +0.000 C 
ATOM     20  O   UNL     1       3.929   1.650   0.000  0.00  0.00    +0.000 OA
ATOM     21  N   UNL     1       4.644   0.412   0.000  0.00  0.00    +0.000 NA
ATOM     22  O   UNL     1       5.359   0.825   0.000  0.00  0.00    +0.000 OA
ENDBRANCH  18  19
ENDBRANCH  17  18
ENDBRANCH  16  17
ENDBRANCH  15  16
ENDBRANCH  14  15
ENDBRANCH  13  14
ENDBRANCH   3  13
TORSDOF 9
