REMARK  Name = 
REMARK  12 active torsions:
REMARK  status: ('A' for Active; 'I' for Inactive)
REMARK    1  A    between atoms: P_1  and  O_5
REMARK    2  A    between atoms: P_1  and  O_10
REMARK    3  A    between atoms: P_2  and  O_9
REMARK    4  A    between atoms: P_2  and  O_10
REMARK    5  A    between atoms: O_5  and  C_28
REMARK    6  A    between atoms: O_9  and  C_35
REMARK    7  A    between atoms: N_16  and  C_24
REMARK    8  A    between atoms: N_17  and  C_34
REMARK    9  A    between atoms: N_22  and  C_43
REMARK   10  A    between atoms: C_23  and  C_28
REMARK   11  A    between atoms: C_32  and  C_35
REMARK   12  A    between atoms: C_36  and  C_41
REMARK                            x       y       z     vdW  Elec       q    Type
REMARK                         _______ _______ _______ _____ _____    ______ ____
ROOT
ATOM      1  P   UNL     1      -0.446   1.937   0.000  0.00  0.00    +0.000 P 
ATOM      2  O   UNL     1       0.038   1.269   0.000  0.00  0.00    +0.000 OA
ATOM      3  O   UNL     1      -0.930   2.606   0.000  0.00  0.00    +0.000 OA
ENDROOT
BRANCH   1   4
ATOM      4  O   UNL     1       0.222   2.421   0.000  0.00  0.00    +0.000 OA
BRANCH   4   5
ATOM      5  P   UNL     1       0.975   2.084   0.000  0.00  0.00    +0.000 P 
ATOM      6  O   UNL     1       1.312   2.837   0.000  0.00  0.00    +0.000 OA
ATOM      7  O   UNL     1       0.638   1.331   0.000  0.00  0.00    +0.000 OA
BRANCH   5   8
ATOM      8  O   UNL     1       1.728   1.747   0.000  0.00  0.00    +0.000 OA
BRANCH   8   9
ATOM      9  C   UNL     1       2.397   2.231   0.000  0.00  0.00    +0.000 C 
BRANCH   9  12
ATOM     10  O   UNL     1       3.953   3.126   0.000  0.00  0.00    +0.000 OA
ATOM     11  O   UNL     1       5.285   1.923   0.000  0.00  0.00    +0.000 OA
ATOM     12  C   UNL     1       3.150   1.894   0.000  0.00  0.00    +0.000 C 
ATOM     13  C   UNL     1       4.140   0.999   0.000  0.00  0.00    +0.000 C 
ATOM     14  C   UNL     1       3.320   1.087   0.000  0.00  0.00    +0.000 C 
ATOM     15  C   UNL     1       3.865   2.305   0.000  0.00  0.00    +0.000 C 
ATOM     16  C   UNL     1       4.477   1.752   0.000  0.00  0.00    +0.000 C 
BRANCH  13  17
ATOM     17  N   UNL     1       4.552   0.284   0.000  0.00  0.00    +0.000 N 
ATOM     18  C   UNL     1       4.138  -0.430   0.000  0.00  0.00    +0.000 A 
ATOM     19  C   UNL     1       5.377   0.283   0.000  0.00  0.00    +0.000 A 
ATOM     20  C   UNL     1       4.549  -1.145   0.000  0.00  0.00    +0.000 A 
ATOM     21  C   UNL     1       5.788  -0.432   0.000  0.00  0.00    +0.000 A 
ATOM     22  C   UNL     1       5.374  -1.146   0.000  0.00  0.00    +0.000 A 
BRANCH  20  25
ATOM     23  O   UNL     1       3.310  -1.857   0.000  0.00  0.00    +0.000 OA
ATOM     24  N   UNL     1       4.547  -2.574   0.000  0.00  0.00    +0.000 N 
ATOM     25  C   UNL     1       4.136  -1.859   0.000  0.00  0.00    +0.000 C 
ATOM     26  H   UNL     1       5.058  -2.575   0.000  0.00  0.00    +0.000 HD
ATOM     27  H   UNL     1       4.290  -3.016   0.000  0.00  0.00    +0.000 HD
ENDBRANCH  20  25
ENDBRANCH  13  17
ENDBRANCH   9  12
ENDBRANCH   8   9
ENDBRANCH   5   8
ENDBRANCH   4   5
ENDBRANCH   1   4
BRANCH   1  28
ATOM     28  O   UNL     1      -1.114   1.454   0.000  0.00  0.00    +0.000 OA
BRANCH  28  29
ATOM     29  C   UNL     1      -1.867   1.790   0.000  0.00  0.00    +0.000 C 
BRANCH  29  35
ATOM     30  O   UNL     1      -2.537   0.482   0.000  0.00  0.00    +0.000 OA
ATOM     31  O   UNL     1      -3.573   2.348   0.000  0.00  0.00    +0.000 OA
ATOM     32  O   UNL     1      -4.631   0.898   0.000  0.00  0.00    +0.000 OA
ATOM     33  C   UNL     1      -3.320   1.563   0.000  0.00  0.00    +0.000 C 
ATOM     34  C   UNL     1      -3.806   0.896   0.000  0.00  0.00    +0.000 C 
ATOM     35  C   UNL     1      -2.535   1.307   0.000  0.00  0.00    +0.000 C 
ATOM     36  C   UNL     1      -3.322   0.228   0.000  0.00  0.00    +0.000 C 
BRANCH  36  37
ATOM     37  N   UNL     1      -3.578  -0.556   0.000  0.00  0.00    +0.000 N 
ATOM     38  N   UNL     1      -3.578  -1.884   0.000  0.00  0.00    +0.000 NA
ATOM     39  N   UNL     1      -5.074  -0.395   0.000  0.00  0.00    +0.000 NA
ATOM     40  N   UNL     1      -5.788  -1.633   0.000  0.00  0.00    +0.000 NA
ATOM     41  C   UNL     1      -4.359  -0.808   0.000  0.00  0.00    +0.000 A 
ATOM     42  C   UNL     1      -3.097  -1.220   0.000  0.00  0.00    +0.000 A 
ATOM     43  C   UNL     1      -4.359  -1.633   0.000  0.00  0.00    +0.000 A 
ATOM     44  C   UNL     1      -5.074  -2.045   0.000  0.00  0.00    +0.000 A 
ATOM     45  C   UNL     1      -5.788  -0.808   0.000  0.00  0.00    +0.000 A 
BRANCH  44  46
ATOM     46  N   UNL     1      -5.074  -2.870   0.000  0.00  0.00    +0.000 N 
ATOM     47  H   UNL     1      -5.516  -3.126   0.000  0.00  0.00    +0.000 HD
ATOM     48  H   UNL     1      -4.630  -3.126   0.000  0.00  0.00    +0.000 HD
ENDBRANCH  44  46
ENDBRANCH  36  37
ENDBRANCH  29  35
ENDBRANCH  28  29
ENDBRANCH   1  28
TORSDOF 12
