REMARK  Name = 
REMARK  34 active torsions:
REMARK  status: ('A' for Active; 'I' for Inactive)
REMARK    1  A    between atoms: CB_2  and  CA_3
REMARK    2  A    between atoms: CA_7  and  C_88
REMARK    3  A    between atoms: CA_12  and  N_50
REMARK    4  A    between atoms: CA_16  and  CB_43
REMARK    5  A    between atoms: CA_20  and  CB_33
REMARK    6  A    between atoms: CA_24  and  CB_28
REMARK    7  A    between atoms: CB_28  and  CG_29
REMARK    8  A    between atoms: CG_29  and  CD_30
REMARK    9  A    between atoms: CD_30  and  CE_31
REMARK   10  A    between atoms: CB_33  and  CG_34
REMARK   11  A    between atoms: CB_43  and  CG_44
REMARK   12  A    between atoms: C_51  and  CA_53
REMARK   13  A    between atoms: CA_53  and  CB_54
REMARK   14  A    between atoms: CA_53  and  N_61
REMARK   15  A    between atoms: CB_54  and  CG_55
REMARK   16  A    between atoms: C_62  and  C_64
REMARK   17  A    between atoms: C_64  and  N_65
REMARK   18  A    between atoms: N_65  and  C_66
REMARK   19  A    between atoms: N_65  and  C_84
REMARK   20  A    between atoms: C_66  and  C_67
REMARK   21  A    between atoms: C_67  and  N_68
REMARK   22  A    between atoms: N_68  and  C_69
REMARK   23  A    between atoms: N_68  and  C_80
REMARK   24  A    between atoms: C_69  and  C_70
REMARK   25  A    between atoms: C_70  and  N_71
REMARK   26  A    between atoms: N_71  and  C_72
REMARK   27  A    between atoms: N_71  and  C_76
REMARK   28  A    between atoms: C_72  and  C_73
REMARK   29  A    between atoms: C_76  and  C_77
REMARK   30  A    between atoms: C_80  and  C_81
REMARK   31  A    between atoms: C_84  and  C_85
REMARK   32  A    between atoms: N_90  and  CA_91
REMARK   33  A    between atoms: CA_91  and  C_92
REMARK   34  A    between atoms: CA_91  and  CB_94
REMARK                            x       y       z     vdW  Elec       q    Type
REMARK                         _______ _______ _______ _____ _____    ______ ____
ROOT
ATOM      1  CA  THR A   4       3.742   5.739   0.000  0.00  0.00    +0.000 C 
ATOM      2  C   THR A   4       4.396   6.242   0.000  0.00  0.00    +0.000 C 
ATOM      3  O   THR A   4       4.788   6.968   0.000  0.00  0.00    +0.000 OA
ATOM      4  N   PHE A   1       5.159   5.928   0.000  0.00  0.00    +0.000 NA
ATOM      5  CA  PHE A   1       5.267   5.110   0.000  0.00  0.00    +0.000 C 
ATOM      6  CB  PHE A   1       4.614   4.607   0.000  0.00  0.00    +0.000 C 
ATOM      7  SG  PHE A   1       4.723   3.789   0.000  0.00  0.00    +0.000 S 
ATOM      8  SG  PHE A   1       4.069   3.285   0.000  0.00  0.00    +0.000 S 
ATOM      9  CB  PHE A   1       4.178   2.468   0.000  0.00  0.00    +0.000 C 
ATOM     10  CA  PHE A   1       3.524   1.964   0.000  0.00  0.00    +0.000 C 
ATOM     11  C   PHE A   1       3.633   1.147   0.000  0.00  0.00    +0.000 C 
ATOM     12  O   PHE A   1       4.396   0.832   0.000  0.00  0.00    +0.000 OA
ATOM     13  N   PHE A   1       2.979   0.643   0.000  0.00  0.00    +0.000 NA
ATOM     14  CA  PHE A   1       2.217   0.958   0.000  0.00  0.00    +0.000 C 
ATOM     15  C   PHE A   1       2.108   1.776   0.000  0.00  0.00    +0.000 C 
ATOM     16  O   PHE A   1       2.761   2.279   0.000  0.00  0.00    +0.000 OA
ATOM     17  N   THR A   2       1.345   2.090   0.000  0.00  0.00    +0.000 NA
ATOM     18  CA  THR A   2       1.236   2.908   0.000  0.00  0.00    +0.000 C 
ATOM     19  C   THR A   2       1.890   3.411   0.000  0.00  0.00    +0.000 C 
ATOM     20  O   THR A   2       2.652   3.097   0.000  0.00  0.00    +0.000 OA
ATOM     21  N   LYS A   3       1.781   4.229   0.000  0.00  0.00    +0.000 NA
ATOM     22  CA  LYS A   3       2.435   4.732   0.000  0.00  0.00    +0.000 C 
ATOM     23  C   LYS A   3       2.326   5.550   0.000  0.00  0.00    +0.000 C 
ATOM     24  O   LYS A   3       1.893   6.253   0.000  0.00  0.00    +0.000 OA
ATOM     25  N   THR A   4       2.979   6.053   0.000  0.00  0.00    +0.000 NA
ENDROOT
BRANCH  10  26
ATOM     26  N   PHE A   1       4.287   1.650   0.000  0.00  0.00    +0.000 NA
ATOM     27  C   PHE A   1       4.941   2.153   0.000  0.00  0.00    +0.000 C 
ATOM     28  O   PHE A   1       4.832   2.971   0.000  0.00  0.00    +0.000 OA
BRANCH  27  29
ATOM     29  CA  PHE A   1       5.703   1.839   0.000  0.00  0.00    +0.000 C 
BRANCH  29  30
ATOM     30  N   PHE A   1       6.357   2.342   0.000  0.00  0.00    +0.000 NA
ATOM     31  C   UNK A   0       7.120   2.027   0.000  0.00  0.00    +0.000 C 
ATOM     32  O   UNK A   0       7.689   1.430   0.000  0.00  0.00    +0.000 OA
BRANCH  31  33
ATOM     33  C   UNK A   0       7.773   2.531   0.000  0.00  0.00    +0.000 C 
BRANCH  33  34
ATOM     34  N   UNK A   0       8.536   2.216   0.000  0.00  0.00    +0.000 NA
BRANCH  34  35
ATOM     35  C   UNK A   0       8.645   1.398   0.000  0.00  0.00    +0.000 C 
BRANCH  35  36
ATOM     36  C   UNK A   0       9.408   1.084   0.000  0.00  0.00    +0.000 C 
ATOM     37  O   UNK A   0      10.062   1.587   0.000  0.00  0.00    +0.000 OA
ATOM     38  O   UNK A   0       9.517   0.266   0.000  0.00  0.00    +0.000 OA
ENDBRANCH  35  36
ENDBRANCH  34  35
BRANCH  34  39
ATOM     39  C   UNK A   0       9.190   2.719   0.000  0.00  0.00    +0.000 C 
BRANCH  39  40
ATOM     40  C   UNK A   0       9.953   2.405   0.000  0.00  0.00    +0.000 C 
BRANCH  40  41
ATOM     41  N   UNK A   0      10.606   2.908   0.000  0.00  0.00    +0.000 NA
BRANCH  41  42
ATOM     42  C   UNK A   0      11.369   2.594   0.000  0.00  0.00    +0.000 C 
BRANCH  42  43
ATOM     43  C   UNK A   0      12.023   3.097   0.000  0.00  0.00    +0.000 C 
BRANCH  43  44
ATOM     44  N   UNK A   0      12.785   2.782   0.000  0.00  0.00    +0.000 NA
BRANCH  44  45
ATOM     45  C   UNK A   0      13.439   3.285   0.000  0.00  0.00    +0.000 C 
BRANCH  45  46
ATOM     46  C   UNK A   0      13.330   4.103   0.000  0.00  0.00    +0.000 C 
ATOM     47  O   UNK A   0      12.568   4.418   0.000  0.00  0.00    +0.000 OA
ATOM     48  O   UNK A   0      13.984   4.607   0.000  0.00  0.00    +0.000 OA
ENDBRANCH  45  46
ENDBRANCH  44  45
BRANCH  44  49
ATOM     49  C   UNK A   0      12.894   1.964   0.000  0.00  0.00    +0.000 C 
BRANCH  49  50
ATOM     50  C   UNK A   0      13.657   1.650   0.000  0.00  0.00    +0.000 C 
ATOM     51  O   UNK A   0      14.311   2.153   0.000  0.00  0.00    +0.000 OA
ATOM     52  O   UNK A   0      13.766   0.832   0.000  0.00  0.00    +0.000 OA
ENDBRANCH  49  50
ENDBRANCH  44  49
ENDBRANCH  43  44
ENDBRANCH  42  43
ENDBRANCH  41  42
BRANCH  41  53
ATOM     53  C   UNK A   0      10.497   3.726   0.000  0.00  0.00    +0.000 C 
BRANCH  53  54
ATOM     54  C   UNK A   0      11.151   4.229   0.000  0.00  0.00    +0.000 C 
ATOM     55  O   UNK A   0      11.042   5.047   0.000  0.00  0.00    +0.000 OA
ATOM     56  O   UNK A   0      11.914   3.915   0.000  0.00  0.00    +0.000 OA
ENDBRANCH  53  54
ENDBRANCH  41  53
ENDBRANCH  40  41
ENDBRANCH  39  40
ENDBRANCH  34  39
ENDBRANCH  33  34
ENDBRANCH  31  33
ENDBRANCH  29  30
BRANCH  29  57
ATOM     57  CB  PHE A   1       5.812   1.021   0.000  0.00  0.00    +0.000 C 
BRANCH  57  58
ATOM     58  CG  PHE A   1       6.575   0.706   0.000  0.00  0.00    +0.000 A 
ATOM     59  CD1 PHE A   1       7.229   1.210   0.000  0.00  0.00    +0.000 A 
ATOM     60  CE1 PHE A   1       7.991   0.895   0.000  0.00  0.00    +0.000 A 
ATOM     61  CZ  PHE A   1       8.100   0.077   0.000  0.00  0.00    +0.000 A 
ATOM     62  CE2 PHE A   1       7.447  -0.426   0.000  0.00  0.00    +0.000 A 
ATOM     63  CD2 PHE A   1       6.684  -0.111   0.000  0.00  0.00    +0.000 A 
ENDBRANCH  57  58
ENDBRANCH  29  57
ENDBRANCH  27  29
ENDBRANCH  10  26
BRANCH   1  65
ATOM     64  CG2 THR A   4       4.287   7.060   0.000  0.00  0.00    +0.000 C 
ATOM     65  CB  THR A   4       3.633   6.557   0.000  0.00  0.00    +0.000 C 
ATOM     66  OG1 THR A   4       2.870   6.871   0.000  0.00  0.00    +0.000 OA
ENDBRANCH   1  65
BRANCH   5  67
ATOM     67  C   PHE A   1       6.030   4.795   0.000  0.00  0.00    +0.000 C 
ATOM     68  O   PHE A   1       6.139   3.978   0.000  0.00  0.00    +0.000 OA
ATOM     69  N   THR A   2       6.684   5.298   0.000  0.00  0.00    +0.000 NA
BRANCH  69  70
ATOM     70  CA  THR A   2       7.447   4.984   0.000  0.00  0.00    +0.000 C 
BRANCH  70  71
ATOM     71  CB  THR A   2       8.100   5.487   0.000  0.00  0.00    +0.000 C 
ATOM     72  CG2 THR A   2       7.991   6.305   0.000  0.00  0.00    +0.000 C 
ATOM     73  OG1 THR A   2       8.863   5.173   0.000  0.00  0.00    +0.000 OA
ENDBRANCH  70  71
BRANCH  70  74
ATOM     74  C   THR A   2       7.556   4.166   0.000  0.00  0.00    +0.000 C 
ATOM     75  O   THR A   2       8.318   3.852   0.000  0.00  0.00    +0.000 OA
ENDBRANCH  70  74
ENDBRANCH  69  70
ENDBRANCH   5  67
BRANCH  22  76
ATOM     76  CB  LYS A   3       1.672   5.047   0.000  0.00  0.00    +0.000 C 
BRANCH  76  77
ATOM     77  CG  LYS A   3       1.563   5.865   0.000  0.00  0.00    +0.000 C 
BRANCH  77  78
ATOM     78  CD  LYS A   3       0.800   6.179   0.000  0.00  0.00    +0.000 C 
BRANCH  78  79
ATOM     79  CE  LYS A   3       0.691   6.997   0.000  0.00  0.00    +0.000 C 
ATOM     80  NZ  LYS A   3      -0.071   7.311   0.000  0.00  0.00    +0.000 NA
ENDBRANCH  78  79
ENDBRANCH  77  78
ENDBRANCH  76  77
ENDBRANCH  22  76
BRANCH  14  81
ATOM     81  CB  PHE A   1       1.563   0.455   0.000  0.00  0.00    +0.000 C 
BRANCH  81  82
ATOM     82  CG  PHE A   1       1.672  -0.363   0.000  0.00  0.00    +0.000 A 
ATOM     83  CD1 PHE A   1       2.435  -0.677   0.000  0.00  0.00    +0.000 A 
ATOM     84  CE1 PHE A   1       2.543  -1.495   0.000  0.00  0.00    +0.000 A 
ATOM     85  CZ  PHE A   1       1.890  -1.998   0.000  0.00  0.00    +0.000 A 
ATOM     86  CE2 PHE A   1       1.127  -1.684   0.000  0.00  0.00    +0.000 A 
ATOM     87  CD2 PHE A   1       1.018  -0.866   0.000  0.00  0.00    +0.000 A 
ENDBRANCH  81  82
ENDBRANCH  14  81
BRANCH  18  88
ATOM     88  CB  THR A   2       0.473   3.223   0.000  0.00  0.00    +0.000 C 
BRANCH  88  89
ATOM     89  CG  THR A   2      -0.180   2.719   0.000  0.00  0.00    +0.000 A 
ATOM     90  CD1 THR A   2      -0.158   1.895   0.000  0.00  0.00    +0.000 A 
ATOM     91  NE1 THR A   2      -0.935   1.618   0.000  0.00  0.00    +0.000 NA
ATOM     92  CE2 THR A   2      -1.438   2.272   0.000  0.00  0.00    +0.000 A 
ATOM     93  CD2 THR A   2      -0.972   2.953   0.000  0.00  0.00    +0.000 A 
ATOM     94  CE3 THR A   2      -1.328   3.697   0.000  0.00  0.00    +0.000 A 
ATOM     95  CZ3 THR A   2      -2.151   3.760   0.000  0.00  0.00    +0.000 A 
ATOM     96  CH2 THR A   2      -2.617   3.079   0.000  0.00  0.00    +0.000 A 
ATOM     97  CZ2 THR A   2      -2.260   2.335   0.000  0.00  0.00    +0.000 A 
ENDBRANCH  88  89
ENDBRANCH  18  88
TORSDOF 34
