REMARK  Name = 
REMARK  4 active torsions:
REMARK  status: ('A' for Active; 'I' for Inactive)
REMARK    1  A    between atoms: O_2  and  N_3
REMARK    2  A    between atoms: N_6  and  C_12
REMARK    3  A    between atoms: C_18  and  C_26
REMARK    4  A    between atoms: N_20  and  C_23
REMARK                            x       y       z     vdW  Elec       q    Type
REMARK                         _______ _______ _______ _____ _____    ______ ____
ROOT
ATOM      1  C   UNL     1       0.715  -1.238   0.000  0.00  0.00    +0.000 A 
ATOM      2  C   UNL     1       0.715  -0.412   0.000  0.00  0.00    +0.000 A 
ATOM      3  C   UNL     1       1.429   0.000   0.000  0.00  0.00    +0.000 A 
ATOM      4  C   UNL     1       2.143  -0.412   0.000  0.00  0.00    +0.000 A 
ATOM      5  C   UNL     1       2.858   0.000   0.000  0.00  0.00    +0.000 A 
ATOM      6  O   UNL     1       2.858   0.825   0.000  0.00  0.00    +0.000 OA
ATOM      7  C   UNL     1       3.572  -0.412   0.000  0.00  0.00    +0.000 A 
ATOM      8  C   UNL     1       3.572  -1.238   0.000  0.00  0.00    +0.000 A 
ATOM      9  N   UNL     1       2.858  -1.650   0.000  0.00  0.00    +0.000 N 
ATOM     10  C   UNL     1       2.143  -1.238   0.000  0.00  0.00    +0.000 A 
ATOM     11  N   UNL     1       1.429  -1.650   0.000  0.00  0.00    +0.000 NA
ATOM     12  F   UNL     1       0.000   0.000   0.000  0.00  0.00    +0.000 F 
ENDROOT
BRANCH   1  16
ATOM     13  N   UNL     1      -2.126  -1.841   0.000  0.00  0.00    +0.000 NA
ATOM     14  C   UNL     1      -1.306  -1.927   0.000  0.00  0.00    +0.000 C 
ATOM     15  C   UNL     1      -0.754  -1.314   0.000  0.00  0.00    +0.000 C 
ATOM     16  N   UNL     1       0.000  -1.650   0.000  0.00  0.00    +0.000 N 
ATOM     17  C   UNL     1      -0.086  -2.470   0.000  0.00  0.00    +0.000 C 
ATOM     18  C   UNL     1      -0.893  -2.642   0.000  0.00  0.00    +0.000 C 
ATOM     19  C   UNL     1      -0.598  -3.412   0.000  0.00  0.00    +0.000 C 
ATOM     20  N   UNL     1      -1.368  -3.708   0.000  0.00  0.00    +0.000 NA
ATOM     21  C   UNL     1      -1.663  -2.938   0.000  0.00  0.00    +0.000 C 
BRANCH  13  23
ATOM     22  C   UNL     1      -3.432  -2.422   0.000  0.00  0.00    +0.000 C 
ATOM     23  O   UNL     1      -2.611  -2.509   0.000  0.00  0.00    +0.000 OA
ENDBRANCH  13  23
ENDBRANCH   1  16
BRANCH   9  24
ATOM     24  C   UNL     1       2.858  -2.475   0.000  0.00  0.00    +0.000 C 
ATOM     25  C   UNL     1       3.270  -3.189   0.000  0.00  0.00    +0.000 C 
ATOM     26  C   UNL     1       2.445  -3.189   0.000  0.00  0.00    +0.000 C 
ENDBRANCH   9  24
BRANCH   7  27
ATOM     27  C   UNL     1       4.287   0.000   0.000  0.00  0.00    +0.000 C 
ATOM     28  O   UNL     1       4.287   0.825   0.000  0.00  0.00    +0.000 OA
ATOM     29  O   UNL     1       5.001  -0.412   0.000  0.00  0.00    +0.000 OA
ENDBRANCH   7  27
TORSDOF 4
