REMARK  Name = 
REMARK  6 active torsions:
REMARK  status: ('A' for Active; 'I' for Inactive)
REMARK    1  A    between atoms: O_2  and  C_25
REMARK    2  A    between atoms: O_2  and  C_27
REMARK    3  A    between atoms: O_3  and  C_26
REMARK    4  A    between atoms: O_3  and  C_28
REMARK    5  A    between atoms: C_7  and  C_10
REMARK    6  A    between atoms: C_7  and  C_11
REMARK                            x       y       z     vdW  Elec       q    Type
REMARK                         _______ _______ _______ _____ _____    ______ ____
ROOT
ATOM      1  O   UNL     1      -0.205   2.216   0.000  0.00  0.00    +0.000 OA
ATOM      2  N   UNL     1       1.105   2.883   0.000  0.00  0.00    +0.000 NA
ATOM      3  C   UNL     1       1.105   1.548   0.000  0.00  0.00    +0.000 C 
ATOM      4  C   UNL     1       1.889   1.803   0.000  0.00  0.00    +0.000 A 
ATOM      5  C   UNL     1       0.620   2.216   0.000  0.00  0.00    +0.000 C 
ATOM      6  C   UNL     1       1.889   2.628   0.000  0.00  0.00    +0.000 A 
ATOM      7  C   UNL     1       2.604   1.391   0.000  0.00  0.00    +0.000 A 
ATOM      8  C   UNL     1       2.604   3.041   0.000  0.00  0.00    +0.000 A 
ATOM      9  C   UNL     1       3.318   1.803   0.000  0.00  0.00    +0.000 A 
ATOM     10  C   UNL     1       3.318   2.628   0.000  0.00  0.00    +0.000 A 
ENDROOT
BRANCH   3  11
ATOM     11  C   UNL     1       0.355   1.205   0.000  0.00  0.00    +0.000 A 
ATOM     12  C   UNL     1       0.277   0.384   0.000  0.00  0.00    +0.000 A 
ATOM     13  C   UNL     1      -0.318   1.683   0.000  0.00  0.00    +0.000 A 
ATOM     14  C   UNL     1      -0.473   0.040   0.000  0.00  0.00    +0.000 A 
ATOM     15  C   UNL     1      -1.068   1.339   0.000  0.00  0.00    +0.000 A 
ATOM     16  C   UNL     1      -1.146   0.518   0.000  0.00  0.00    +0.000 A 
BRANCH  16  17
ATOM     17  O   UNL     1      -1.896   0.175   0.000  0.00  0.00    +0.000 OA
BRANCH  17  19
ATOM     18  O   UNL     1      -3.318   0.309   0.000  0.00  0.00    +0.000 OA
ATOM     19  C   UNL     1      -2.568   0.652   0.000  0.00  0.00    +0.000 C 
ATOM     20  C   UNL     1      -2.491   1.474   0.000  0.00  0.00    +0.000 C 
ENDBRANCH  17  19
ENDBRANCH  16  17
ENDBRANCH   3  11
BRANCH   3  21
ATOM     21  C   UNL     1       1.268   0.740   0.000  0.00  0.00    +0.000 A 
ATOM     22  C   UNL     1       2.050   0.476   0.000  0.00  0.00    +0.000 A 
ATOM     23  C   UNL     1       0.649   0.194   0.000  0.00  0.00    +0.000 A 
ATOM     24  C   UNL     1       2.213  -0.332   0.000  0.00  0.00    +0.000 A 
ATOM     25  C   UNL     1       0.812  -0.615   0.000  0.00  0.00    +0.000 A 
ATOM     26  C   UNL     1       1.594  -0.878   0.000  0.00  0.00    +0.000 A 
BRANCH  26  27
ATOM     27  O   UNL     1       1.757  -1.687   0.000  0.00  0.00    +0.000 OA
BRANCH  27  29
ATOM     28  O   UNL     1       1.301  -3.041   0.000  0.00  0.00    +0.000 OA
ATOM     29  C   UNL     1       1.138  -2.232   0.000  0.00  0.00    +0.000 C 
ATOM     30  C   UNL     1       0.356  -1.969   0.000  0.00  0.00    +0.000 C 
ENDBRANCH  27  29
ENDBRANCH  26  27
ENDBRANCH   3  21
TORSDOF 6
