REMARK  Name = 
REMARK  1 active torsions:
REMARK  status: ('A' for Active; 'I' for Inactive)
REMARK    1  A    between atoms: C_2  and  C_19
REMARK                            x       y       z     vdW  Elec       q    Type
REMARK                         _______ _______ _______ _____ _____    ______ ____
ROOT
ATOM      1  C   UNL     1      -0.992   0.093   0.000  0.00  0.00    +0.000 C 
ATOM      2  C   UNL     1      -1.706  -0.320   0.000  0.00  0.00    +0.000 C 
ATOM      3  C   UNL     1      -1.706  -1.145   0.000  0.00  0.00    +0.000 C 
ATOM      4  C   UNL     1      -0.992  -1.557   0.000  0.00  0.00    +0.000 C 
ATOM      5  C   UNL     1      -0.278  -1.145   0.000  0.00  0.00    +0.000 C 
ATOM      6  C   UNL     1      -0.278  -0.320   0.000  0.00  0.00    +0.000 C 
ATOM      7  C   UNL     1       0.437   0.093   0.000  0.00  0.00    +0.000 C 
ATOM      8  C   UNL     1       0.437  -1.557   0.000  0.00  0.00    +0.000 C 
ATOM      9  C   UNL     1       1.151  -1.145   0.000  0.00  0.00    +0.000 C 
ATOM     10  C   UNL     1       1.151  -0.320   0.000  0.00  0.00    +0.000 C 
ATOM     11  C   UNL     1       1.151   1.330   0.000  0.00  0.00    +0.000 C 
ATOM     12  C   UNL     1       0.437   0.918   0.000  0.00  0.00    +0.000 C 
ATOM     13  C   UNL     1       1.866   0.093   0.000  0.00  0.00    +0.000 C 
ATOM     14  C   UNL     1       1.866   0.918   0.000  0.00  0.00    +0.000 C 
ATOM     15  C   UNL     1       2.651   1.173   0.000  0.00  0.00    +0.000 C 
ATOM     16  C   UNL     1       2.651  -0.162   0.000  0.00  0.00    +0.000 C 
ATOM     17  C   UNL     1       3.135   0.505   0.000  0.00  0.00    +0.000 C 
ATOM     18  O   UNL     1      -2.421  -1.557   0.000  0.00  0.00    +0.000 OA
ATOM     19  O   UNL     1      -0.278  -1.970   0.000  0.00  0.00    +0.000 OA
ATOM     20  C   UNL     1      -0.278   0.505   0.000  0.00  0.00    +0.000 C 
ATOM     21  C   UNL     1       1.866   1.743   0.000  0.00  0.00    +0.000 C 
ATOM     22  O   UNL     1       2.864   1.970   0.000  0.00  0.00    +0.000 OA
ENDROOT
BRANCH   2  23
ATOM     23  C   UNL     1      -2.421   0.093   0.000  0.00  0.00    +0.000 C 
ATOM     24  N   UNL     1      -3.135   0.505   0.000  0.00  0.00    +0.000 NA
ENDBRANCH   2  23
TORSDOF 1
