REMARK  Name = 
REMARK  22 active torsions:
REMARK  status: ('A' for Active; 'I' for Inactive)
REMARK    1  A    between atoms: C_1  and  C_17
REMARK    2  A    between atoms: C_2  and  C_8
REMARK    3  A    between atoms: C_3  and  C_12
REMARK    4  A    between atoms: C_4  and  C_20
REMARK    5  A    between atoms: N_6  and  C_8
REMARK    6  A    between atoms: N_7  and  C_14
REMARK    7  A    between atoms: C_8  and  C_11
REMARK    8  A    between atoms: N_10  and  C_20
REMARK    9  A    between atoms: C_11  and  C_21
REMARK   10  A    between atoms: C_12  and  C_17
REMARK   11  A    between atoms: C_12  and  N_18
REMARK   12  A    between atoms: C_13  and  O_23
REMARK   13  A    between atoms: C_14  and  C_15
REMARK   14  A    between atoms: C_14  and  C_28
REMARK   15  A    between atoms: C_19  and  C_27
REMARK   16  A    between atoms: C_20  and  C_37
REMARK   17  A    between atoms: O_23  and  C_34
REMARK   18  A    between atoms: C_27  and  C_36
REMARK   19  A    between atoms: C_28  and  C_39
REMARK   20  A    between atoms: N_33  and  C_36
REMARK   21  A    between atoms: C_37  and  C_42
REMARK   22  A    between atoms: S_40  and  C_42
REMARK                            x       y       z     vdW  Elec       q    Type
REMARK                         _______ _______ _______ _____ _____    ______ ____
ROOT
ATOM      1  C   UNL     1      -1.682   0.112   0.000  0.00  0.00    +0.000 C 
ATOM      2  N   UNL     1      -1.064   0.661   0.000  0.00  0.00    +0.000 NA
ATOM      3  O   UNL     1      -1.510  -0.695   0.000  0.00  0.00    +0.000 OA
ENDROOT
BRANCH   2   4
ATOM      4  C   UNL     1      -0.275   0.403   0.000  0.00  0.00    +0.000 C 
BRANCH   4   5
ATOM      5  C   UNL     1       0.337   0.953   0.000  0.00  0.00    +0.000 C 
ATOM      6  N   UNL     1       1.116   0.712   0.000  0.00  0.00    +0.000 NA
ATOM      7  O   UNL     1       0.166   1.759   0.000  0.00  0.00    +0.000 OA
BRANCH   6   8
ATOM      8  C   UNL     1       1.734   1.262   0.000  0.00  0.00    +0.000 C 
BRANCH   8   9
ATOM      9  C   UNL     1       2.523   1.004   0.000  0.00  0.00    +0.000 C 
ATOM     10  N   UNL     1       3.135   1.553   0.000  0.00  0.00    +0.000 NA
ATOM     11  O   UNL     1       2.695   0.197   0.000  0.00  0.00    +0.000 OA
BRANCH  10  12
ATOM     12  C   UNL     1       3.925   1.296   0.000  0.00  0.00    +0.000 C 
BRANCH  12  13
ATOM     13  C   UNL     1       4.532   1.845   0.000  0.00  0.00    +0.000 C 
ATOM     14  O   UNL     1       4.360   2.652   0.000  0.00  0.00    +0.000 OA
ATOM     15  N   UNL     1       5.321   1.588   0.000  0.00  0.00    +0.000 NA
ENDBRANCH  12  13
BRANCH  12  16
ATOM     16  C   UNL     1       4.085   0.489   0.000  0.00  0.00    +0.000 C 
BRANCH  16  17
ATOM     17  C   UNL     1       4.875   0.232   0.000  0.00  0.00    +0.000 A 
ATOM     18  C   UNL     1       5.493   0.781   0.000  0.00  0.00    +0.000 A 
ATOM     19  C   UNL     1       5.047  -0.575   0.000  0.00  0.00    +0.000 A 
ATOM     20  C   UNL     1       5.836  -0.832   0.000  0.00  0.00    +0.000 A 
ATOM     21  C   UNL     1       6.277   0.541   0.000  0.00  0.00    +0.000 A 
ATOM     22  C   UNL     1       6.454  -0.283   0.000  0.00  0.00    +0.000 A 
ENDBRANCH  16  17
ENDBRANCH  12  16
ENDBRANCH  10  12
ENDBRANCH   8   9
BRANCH   8  23
ATOM     23  C   UNL     1       1.562   2.068   0.000  0.00  0.00    +0.000 C 
BRANCH  23  24
ATOM     24  C   UNL     1       1.682   2.824   0.000  0.00  0.00    +0.000 C 
ATOM     25  O   UNL     1       1.093   3.579   0.000  0.00  0.00    +0.000 OA
ATOM     26  O   UNL     1       2.369   2.944   0.000  0.00  0.00    +0.000 OA
ENDBRANCH  23  24
ENDBRANCH   8  23
ENDBRANCH   6   8
ENDBRANCH   4   5
BRANCH   4  27
ATOM     27  C   UNL     1      -0.103  -0.403   0.000  0.00  0.00    +0.000 C 
BRANCH  27  28
ATOM     28  C   UNL     1       0.681  -0.661   0.000  0.00  0.00    +0.000 C 
BRANCH  28  29
ATOM     29  S   UNL     1       0.853  -1.468   0.000  0.00  0.00    +0.000 S 
ATOM     30  C   UNL     1       1.642  -1.725   0.000  0.00  0.00    +0.000 C 
ENDBRANCH  28  29
ENDBRANCH  27  28
ENDBRANCH   4  27
ENDBRANCH   2   4
BRANCH   1  31
ATOM     31  C   UNL     1      -2.472   0.369   0.000  0.00  0.00    +0.000 C 
BRANCH  31  32
ATOM     32  N   UNL     1      -3.072  -0.197   0.000  0.00  0.00    +0.000 NA
ATOM     33  C   UNL     1      -3.862   0.060   0.000  0.00  0.00    +0.000 C 
ATOM     34  O   UNL     1      -4.034   0.867   0.000  0.00  0.00    +0.000 OA
BRANCH  33  35
ATOM     35  C   UNL     1      -4.480  -0.489   0.000  0.00  0.00    +0.000 C 
BRANCH  35  36
ATOM     36  C   UNL     1      -4.657  -1.296   0.000  0.00  0.00    +0.000 C 
BRANCH  36  39
ATOM     37  C   UNL     1      -5.647  -2.326   0.000  0.00  0.00    +0.000 C 
ATOM     38  O   UNL     1      -6.454  -2.549   0.000  0.00  0.00    +0.000 OA
ATOM     39  N   UNL     1      -5.441  -1.530   0.000  0.00  0.00    +0.000 NA
BRANCH  37  40
ATOM     40  O   UNL     1      -5.064  -2.904   0.000  0.00  0.00    +0.000 OA
BRANCH  40  41
ATOM     41  C   UNL     1      -5.270  -3.699   0.000  0.00  0.00    +0.000 C 
ATOM     42  C   UNL     1      -4.554  -3.281   0.000  0.00  0.00    +0.000 C 
ATOM     43  C   UNL     1      -4.669  -4.266   0.000  0.00  0.00    +0.000 C 
ATOM     44  C   UNL     1      -6.059  -3.922   0.000  0.00  0.00    +0.000 C 
ENDBRANCH  40  41
ENDBRANCH  37  40
ENDBRANCH  36  39
ENDBRANCH  35  36
ENDBRANCH  33  35
ENDBRANCH  31  32
BRANCH  31  45
ATOM     45  C   UNL     1      -2.643   1.176   0.000  0.00  0.00    +0.000 C 
BRANCH  45  46
ATOM     46  C   UNL     1      -3.055   1.879   0.000  0.00  0.00    +0.000 A 
ATOM     47  N   UNL     1      -4.068   2.755   0.000  0.00  0.00    +0.000 NA
ATOM     48  C   UNL     1      -3.879   1.948   0.000  0.00  0.00    +0.000 A 
ATOM     49  C   UNL     1      -2.735   2.652   0.000  0.00  0.00    +0.000 A 
ATOM     50  C   UNL     1      -3.364   3.184   0.000  0.00  0.00    +0.000 A 
ATOM     51  C   UNL     1      -1.957   2.909   0.000  0.00  0.00    +0.000 A 
ATOM     52  C   UNL     1      -3.210   3.991   0.000  0.00  0.00    +0.000 A 
ATOM     53  C   UNL     1      -1.802   3.733   0.000  0.00  0.00    +0.000 A 
ATOM     54  C   UNL     1      -2.426   4.266   0.000  0.00  0.00    +0.000 A 
ENDBRANCH  45  46
ENDBRANCH  31  45
ENDBRANCH   1  31
TORSDOF 22
