REMARK  Name = 
REMARK  12 active torsions:
REMARK  status: ('A' for Active; 'I' for Inactive)
REMARK    1  A    between atoms: C_11  and  N_19
REMARK    2  A    between atoms: C_12  and  N_20
REMARK    3  A    between atoms: N_19  and  C_21
REMARK    4  A    between atoms: N_20  and  C_23
REMARK    5  A    between atoms: C_21  and  C_22
REMARK    6  A    between atoms: C_22  and  N_25
REMARK    7  A    between atoms: C_23  and  C_24
REMARK    8  A    between atoms: C_24  and  N_26
REMARK    9  A    between atoms: N_25  and  C_27
REMARK   10  A    between atoms: N_26  and  C_29
REMARK   11  A    between atoms: C_27  and  C_28
REMARK   12  A    between atoms: C_29  and  C_30
REMARK                            x       y       z     vdW  Elec       q    Type
REMARK                         _______ _______ _______ _____ _____    ______ ____
ROOT
ATOM      1  C   UNL     1      -3.215   0.825   0.000  0.00  0.00    +0.000 A 
ATOM      2  C   UNL     1      -3.930   0.412   0.000  0.00  0.00    +0.000 A 
ATOM      3  C   UNL     1      -3.930  -0.412   0.000  0.00  0.00    +0.000 A 
ATOM      4  C   UNL     1      -3.215  -0.825   0.000  0.00  0.00    +0.000 A 
ATOM      5  C   UNL     1      -2.501  -0.412   0.000  0.00  0.00    +0.000 A 
ATOM      6  C   UNL     1      -2.501   0.412   0.000  0.00  0.00    +0.000 A 
ATOM      7  C   UNL     1      -1.786   0.825   0.000  0.00  0.00    +0.000 C 
ATOM      8  C   UNL     1      -1.786  -0.825   0.000  0.00  0.00    +0.000 C 
ATOM      9  C   UNL     1      -1.072  -0.412   0.000  0.00  0.00    +0.000 A 
ATOM     10  C   UNL     1      -1.072   0.412   0.000  0.00  0.00    +0.000 A 
ATOM     11  C   UNL     1      -0.357   0.825   0.000  0.00  0.00    +0.000 A 
ATOM     12  C   UNL     1      -0.357  -0.825   0.000  0.00  0.00    +0.000 A 
ATOM     13  C   UNL     1       0.357  -0.412   0.000  0.00  0.00    +0.000 A 
ATOM     14  C   UNL     1       0.357   0.412   0.000  0.00  0.00    +0.000 A 
ATOM     15  O   UNL     1      -3.215   1.650   0.000  0.00  0.00    +0.000 OA
ATOM     16  O   UNL     1      -3.215  -1.650   0.000  0.00  0.00    +0.000 OA
ATOM     17  O   UNL     1      -1.786   1.650   0.000  0.00  0.00    +0.000 OA
ATOM     18  O   UNL     1      -1.786  -1.650   0.000  0.00  0.00    +0.000 OA
ENDROOT
BRANCH  11  19
ATOM     19  N   UNL     1      -0.357   1.650   0.000  0.00  0.00    +0.000 NA
BRANCH  19  20
ATOM     20  C   UNL     1       0.357   2.062   0.000  0.00  0.00    +0.000 C 
BRANCH  20  21
ATOM     21  C   UNL     1       1.072   1.650   0.000  0.00  0.00    +0.000 C 
BRANCH  21  22
ATOM     22  N   UNL     1       1.786   2.062   0.000  0.00  0.00    +0.000 NA
BRANCH  22  23
ATOM     23  C   UNL     1       2.501   1.650   0.000  0.00  0.00    +0.000 C 
BRANCH  23  24
ATOM     24  C   UNL     1       3.215   2.062   0.000  0.00  0.00    +0.000 C 
ATOM     25  O   UNL     1       3.930   1.650   0.000  0.00  0.00    +0.000 OA
ENDBRANCH  23  24
ENDBRANCH  22  23
ENDBRANCH  21  22
ENDBRANCH  20  21
ENDBRANCH  19  20
ENDBRANCH  11  19
BRANCH  12  26
ATOM     26  N   UNL     1      -0.357  -1.650   0.000  0.00  0.00    +0.000 NA
BRANCH  26  27
ATOM     27  C   UNL     1       0.357  -2.062   0.000  0.00  0.00    +0.000 C 
BRANCH  27  28
ATOM     28  C   UNL     1       1.072  -1.650   0.000  0.00  0.00    +0.000 C 
BRANCH  28  29
ATOM     29  N   UNL     1       1.786  -2.062   0.000  0.00  0.00    +0.000 NA
BRANCH  29  30
ATOM     30  C   UNL     1       2.501  -1.650   0.000  0.00  0.00    +0.000 C 
BRANCH  30  31
ATOM     31  C   UNL     1       3.215  -2.062   0.000  0.00  0.00    +0.000 C 
ATOM     32  O   UNL     1       3.930  -1.650   0.000  0.00  0.00    +0.000 OA
ENDBRANCH  30  31
ENDBRANCH  29  30
ENDBRANCH  28  29
ENDBRANCH  27  28
ENDBRANCH  26  27
ENDBRANCH  12  26
TORSDOF 12
