REMARK  Name = 
REMARK  4 active torsions:
REMARK  status: ('A' for Active; 'I' for Inactive)
REMARK    1  A    between atoms: C_2  and  N_3
REMARK    2  A    between atoms: C_2  and  C_13
REMARK    3  A    between atoms: N_3  and  C_4
REMARK    4  A    between atoms: C_14  and  C_24
REMARK                            x       y       z     vdW  Elec       q    Type
REMARK                         _______ _______ _______ _____ _____    ______ ____
ROOT
ATOM      1  C   UNL     1       3.352   1.935   0.000  0.00  0.00    +0.000 A 
ATOM      2  C   UNL     1       3.352   1.110   0.000  0.00  0.00    +0.000 A 
ATOM      3  C   UNL     1       2.638   0.698   0.000  0.00  0.00    +0.000 A 
ATOM      4  O   UNL     1       2.638  -0.127   0.000  0.00  0.00    +0.000 OA
ATOM      5  N   UNL     1       1.923   1.110   0.000  0.00  0.00    +0.000 N 
ATOM      6  C   UNL     1       1.139   0.856   0.000  0.00  0.00    +0.000 A 
ATOM      7  C   UNL     1       0.884   0.071   0.000  0.00  0.00    +0.000 C 
ATOM      8  C   UNL     1       0.654   1.523   0.000  0.00  0.00    +0.000 A 
ATOM      9  S   UNL     1       1.139   2.190   0.000  0.00  0.00    +0.000 S 
ATOM     10  C   UNL     1       1.923   1.935   0.000  0.00  0.00    +0.000 A 
ATOM     11  N   UNL     1       2.638   2.348   0.000  0.00  0.00    +0.000 NA
ENDROOT
BRANCH   2  12
ATOM     12  C   UNL     1       4.067   0.698   0.000  0.00  0.00    +0.000 A 
ATOM     13  C   UNL     1       4.781   1.110   0.000  0.00  0.00    +0.000 A 
ATOM     14  C   UNL     1       5.496   0.698   0.000  0.00  0.00    +0.000 A 
ATOM     15  C   UNL     1       5.496  -0.127   0.000  0.00  0.00    +0.000 A 
ATOM     16  C   UNL     1       4.781  -0.540   0.000  0.00  0.00    +0.000 A 
ATOM     17  F   UNL     1       4.781  -1.365   0.000  0.00  0.00    +0.000 F 
ATOM     18  C   UNL     1       4.067  -0.127   0.000  0.00  0.00    +0.000 A 
ENDBRANCH   2  12
BRANCH   1  20
ATOM     19  C   UNL     1       4.781   1.935   0.000  0.00  0.00    +0.000 C 
ATOM     20  C   UNL     1       4.067   2.348   0.000  0.00  0.00    +0.000 C 
BRANCH  20  21
ATOM     21  N   UNL     1       4.067   3.173   0.000  0.00  0.00    +0.000 NA
BRANCH  21  22
ATOM     22  C   UNL     1       4.781   3.585   0.000  0.00  0.00    +0.000 A 
ATOM     23  C   UNL     1       4.781   4.410   0.000  0.00  0.00    +0.000 A 
ATOM     24  N   UNL     1       4.168   4.963   0.000  0.00  0.00    +0.000 NA
ATOM     25  C   UNL     1       4.504   5.716   0.000  0.00  0.00    +0.000 A 
ATOM     26  N   UNL     1       5.324   5.630   0.000  0.00  0.00    +0.000 NA
ATOM     27  C   UNL     1       5.496   4.823   0.000  0.00  0.00    +0.000 A 
ATOM     28  N   UNL     1       6.210   4.410   0.000  0.00  0.00    +0.000 NA
ATOM     29  C   UNL     1       6.210   3.585   0.000  0.00  0.00    +0.000 A 
ATOM     30  N   UNL     1       5.496   3.173   0.000  0.00  0.00    +0.000 NA
ENDBRANCH  21  22
ENDBRANCH  20  21
ENDBRANCH   1  20
TORSDOF 4
