REMARK  Name = 
REMARK  7 active torsions:
REMARK  status: ('A' for Active; 'I' for Inactive)
REMARK    1  A    between atoms: C_2  and  C_5
REMARK    2  A    between atoms: C_3  and  C_4
REMARK    3  A    between atoms: C_5  and  C_8
REMARK    4  A    between atoms: C_5  and  N_10
REMARK    5  A    between atoms: N_6  and  C_12
REMARK    6  A    between atoms: C_8  and  C_13
REMARK    7  A    between atoms: C_12  and  C_16
REMARK                            x       y       z     vdW  Elec       q    Type
REMARK                         _______ _______ _______ _____ _____    ______ ____
ROOT
ATOM      1  N   UNL     1      -1.616  -0.452   0.000  0.00  0.00    +0.000 N 
ATOM      2  C   UNL     1      -2.291  -0.927   0.000  0.00  0.00    +0.000 C 
ATOM      3  C   UNL     1      -0.841  -0.719   0.000  0.00  0.00    +0.000 C 
ATOM      4  O   UNL     1      -2.220  -1.752   0.000  0.00  0.00    +0.000 OA
ATOM      5  C   UNL     1      -1.608   0.373   0.000  0.00  0.00    +0.000 C 
ATOM      6  C   UNL     1      -0.346  -0.065   0.000  0.00  0.00    +0.000 C 
ATOM      7  C   UNL     1      -0.816   0.619   0.000  0.00  0.00    +0.000 C 
ENDROOT
BRANCH   3   8
ATOM      8  C   UNL     1      -0.429  -1.431   0.000  0.00  0.00    +0.000 C 
ATOM      9  N   UNL     1       0.366  -1.218   0.000  0.00  0.00    +0.000 NA
ATOM     10  O   UNL     1      -0.442  -2.256   0.000  0.00  0.00    +0.000 OA
BRANCH   9  11
ATOM     11  C   UNL     1       0.946  -1.802   0.000  0.00  0.00    +0.000 C 
BRANCH  11  14
ATOM     12  N   UNL     1       4.740  -0.927   0.000  0.00  0.00    +0.000 NA
ATOM     13  C   UNL     1       4.028  -1.343   0.000  0.00  0.00    +0.000 C 
ATOM     14  C   UNL     1       1.654  -1.389   0.000  0.00  0.00    +0.000 C 
ATOM     15  C   UNL     1       3.253  -1.327   0.000  0.00  0.00    +0.000 C 
ATOM     16  C   UNL     1       3.320  -0.702   0.000  0.00  0.00    +0.000 C 
ATOM     17  C   UNL     1       2.366  -2.026   0.000  0.00  0.00    +0.000 C 
ATOM     18  C   UNL     1       2.478  -1.389   0.000  0.00  0.00    +0.000 C 
ENDBRANCH  11  14
ENDBRANCH   9  11
ENDBRANCH   3   8
BRANCH   2  19
ATOM     19  C   UNL     1      -3.041  -0.577   0.000  0.00  0.00    +0.000 C 
BRANCH  19  20
ATOM     20  N   UNL     1      -3.840  -0.789   0.000  0.00  0.00    +0.000 NA
ATOM     21  C   UNL     1      -4.428  -0.202   0.000  0.00  0.00    +0.000 C 
ENDBRANCH  19  20
BRANCH  19  22
ATOM     22  C   UNL     1      -2.970   0.248   0.000  0.00  0.00    +0.000 C 
BRANCH  22  23
ATOM     23  C   UNL     1      -3.645   0.719   0.000  0.00  0.00    +0.000 A 
ATOM     24  C   UNL     1      -3.116   1.356   0.000  0.00  0.00    +0.000 A 
ATOM     25  C   UNL     1      -4.453   0.856   0.000  0.00  0.00    +0.000 A 
ATOM     26  C   UNL     1      -3.407   2.122   0.000  0.00  0.00    +0.000 A 
ATOM     27  C   UNL     1      -4.740   1.618   0.000  0.00  0.00    +0.000 A 
ATOM     28  C   UNL     1      -4.215   2.256   0.000  0.00  0.00    +0.000 A 
ENDBRANCH  22  23
ENDBRANCH  19  22
ENDBRANCH   2  19
TORSDOF 7
