REMARK  Name = 
REMARK  6 active torsions:
REMARK  status: ('A' for Active; 'I' for Inactive)
REMARK    1  A    between atoms: C_9  and  C_11
REMARK    2  A    between atoms: C_13  and  O_17
REMARK    3  A    between atoms: O_17  and  C_18
REMARK    4  A    between atoms: C_18  and  C_19
REMARK    5  A    between atoms: C_19  and  C_21
REMARK    6  A    between atoms: C_21  and  C_22
REMARK                            x       y       z     vdW  Elec       q    Type
REMARK                         _______ _______ _______ _____ _____    ______ ____
ROOT
ATOM      1  C   UNL     1       1.503  -0.207   0.000  0.00  0.00    +0.000 A 
ATOM      2  C   UNL     1       0.788   0.203   0.000  0.00  0.00    +0.000 A 
ATOM      3  C   UNL     1       0.073  -0.207   0.000  0.00  0.00    +0.000 A 
ATOM      4  C   UNL     1       0.073  -1.035   0.000  0.00  0.00    +0.000 A 
ATOM      5  N   UNL     1       0.788  -1.453   0.000  0.00  0.00    +0.000 NA
ATOM      6  C   UNL     1       1.503  -1.035   0.000  0.00  0.00    +0.000 A 
ENDROOT
BRANCH   1  15
ATOM      7  C   UNL     1       4.691  -0.835   0.000  0.00  0.00    +0.000 C 
ATOM      8  C   UNL     1       4.436  -0.051   0.000  0.00  0.00    +0.000 A 
ATOM      9  C   UNL     1       3.647   0.205   0.000  0.00  0.00    +0.000 A 
ATOM     10  C   UNL     1       3.647   1.035   0.000  0.00  0.00    +0.000 A 
ATOM     11  N   UNL     1       4.436   1.291   0.000  0.00  0.00    +0.000 NA
ATOM     12  N   UNL     1       4.924   0.620   0.000  0.00  0.00    +0.000 NA
ATOM     13  C   UNL     1       2.931   1.453   0.000  0.00  0.00    +0.000 A 
ATOM     14  C   UNL     1       2.216   1.035   0.000  0.00  0.00    +0.000 A 
ATOM     15  C   UNL     1       2.216   0.206   0.000  0.00  0.00    +0.000 A 
ATOM     16  C   UNL     1       2.931  -0.204   0.000  0.00  0.00    +0.000 A 
ENDBRANCH   1  15
BRANCH   3  17
ATOM     17  O   UNL     1      -0.639   0.206   0.000  0.00  0.00    +0.000 OA
BRANCH  17  18
ATOM     18  C   UNL     1      -1.354  -0.205   0.000  0.00  0.00    +0.000 C 
BRANCH  18  19
ATOM     19  C   UNL     1      -2.067   0.208   0.000  0.00  0.00    +0.000 C 
ATOM     20  N   UNL     1      -2.067   1.032   0.000  0.00  0.00    +0.000 NA
BRANCH  19  21
ATOM     21  C   UNL     1      -2.781  -0.203   0.000  0.00  0.00    +0.000 C 
BRANCH  21  22
ATOM     22  C   UNL     1      -3.494   0.210   0.000  0.00  0.00    +0.000 A 
ATOM     23  C   UNL     1      -3.494   1.039   0.000  0.00  0.00    +0.000 A 
ATOM     24  C   UNL     1      -4.211   1.448   0.000  0.00  0.00    +0.000 A 
ATOM     25  C   UNL     1      -4.924   1.032   0.000  0.00  0.00    +0.000 A 
ATOM     26  C   UNL     1      -4.924   0.208   0.000  0.00  0.00    +0.000 A 
ATOM     27  C   UNL     1      -4.211  -0.205   0.000  0.00  0.00    +0.000 A 
ENDBRANCH  21  22
ENDBRANCH  19  21
ENDBRANCH  18  19
ENDBRANCH  17  18
ENDBRANCH   3  17
TORSDOF 6
