REMARK  Name = 
REMARK  3 active torsions:
REMARK  status: ('A' for Active; 'I' for Inactive)
REMARK    1  A    between atoms: C_4  and  O_5
REMARK    2  A    between atoms: O_5  and  C_6
REMARK    3  A    between atoms: C_6  and  C_7
REMARK                            x       y       z     vdW  Elec       q    Type
REMARK                         _______ _______ _______ _____ _____    ______ ____
ROOT
ATOM      1  N   UNL     1       1.706   2.681   0.000  0.00  0.00    +0.000 NA
ATOM      2  C   UNL     1       0.992   2.269   0.000  0.00  0.00    +0.000 A 
ATOM      3  N   UNL     1       0.992   1.444   0.000  0.00  0.00    +0.000 NA
ATOM      4  C   UNL     1       0.278   1.031   0.000  0.00  0.00    +0.000 A 
ATOM      5  C   UNL     1      -0.437   1.444   0.000  0.00  0.00    +0.000 A 
ATOM      6  N   UNL     1      -1.222   1.189   0.000  0.00  0.00    +0.000 NA
ATOM      7  C   UNL     1      -1.706   1.856   0.000  0.00  0.00    +0.000 A 
ATOM      8  N   UNL     1      -1.222   2.524   0.000  0.00  0.00    +0.000 NA
ATOM      9  C   UNL     1      -0.437   2.269   0.000  0.00  0.00    +0.000 A 
ATOM     10  N   UNL     1       0.278   2.681   0.000  0.00  0.00    +0.000 NA
ENDROOT
BRANCH   4  11
ATOM     11  O   UNL     1       0.278   0.206   0.000  0.00  0.00    +0.000 OA
BRANCH  11  12
ATOM     12  C   UNL     1       0.992  -0.206   0.000  0.00  0.00    +0.000 C 
BRANCH  12  13
ATOM     13  C   UNL     1       0.992  -1.031   0.000  0.00  0.00    +0.000 A 
ATOM     14  C   UNL     1       1.706  -1.444   0.000  0.00  0.00    +0.000 A 
ATOM     15  C   UNL     1       1.706  -2.269   0.000  0.00  0.00    +0.000 A 
ATOM     16  C   UNL     1       0.992  -2.681   0.000  0.00  0.00    +0.000 A 
ATOM     17  C   UNL     1       0.278  -2.269   0.000  0.00  0.00    +0.000 A 
ATOM     18  C   UNL     1       0.278  -1.444   0.000  0.00  0.00    +0.000 A 
ENDBRANCH  12  13
ENDBRANCH  11  12
ENDBRANCH   4  11
TORSDOF 3
