REMARK  Name = 
REMARK  5 active torsions:
REMARK  status: ('A' for Active; 'I' for Inactive)
REMARK    1  A    between atoms: C_1  and  CA_4
REMARK    2  A    between atoms: CA_11  and  N_14
REMARK    3  A    between atoms: C_16  and  C_17
REMARK    4  A    between atoms: C_17  and  C_20
REMARK    5  A    between atoms: N_19  and  O_26
REMARK                            x       y       z     vdW  Elec       q    Type
REMARK                         _______ _______ _______ _____ _____    ______ ____
ROOT
ATOM      1  CA  UNL     1       2.547  -1.238   0.000  0.00  0.00    +0.000 C 
ATOM      2  N   UNL     1       1.831  -0.824   0.000  0.00  0.00    +0.000 N 
ATOM      3  C   UNL     1       3.260  -0.824   0.000  0.00  0.00    +0.000 C 
ATOM      4  C   UNL     1       1.831   0.001   0.000  0.00  0.00    +0.000 C 
ATOM      5  C   UNL     1       1.006  -0.824   0.000  0.00  0.00    +0.000 C 
ATOM      6  C   UNL     1       3.977  -1.238   0.000  0.00  0.00    +0.000 C 
ATOM      7  C   UNL     1       3.260   0.001   0.000  0.00  0.00    +0.000 C 
ATOM      8  CA  UNL     1       1.006   0.001   0.000  0.00  0.00    +0.000 C 
ATOM      9  S   UNL     1       2.547   0.412   0.000  0.00  0.00    +0.000 S 
ATOM     10  O   UNL     1       0.422  -1.408   0.000  0.00  0.00    +0.000 OA
ENDROOT
BRANCH   1  11
ATOM     11  C   UNL     1       2.547  -2.063   0.000  0.00  0.00    +0.000 C 
ATOM     12  O   UNL     1       1.833  -2.475   0.000  0.00  0.00    +0.000 OA
ATOM     13  OXT UNL     1       3.262  -2.475   0.000  0.00  0.00    +0.000 OA
ENDBRANCH   1  11
BRANCH   8  14
ATOM     14  N   UNL     1       0.293   0.412   0.000  0.00  0.00    +0.000 NA
ATOM     15  C   UNL     1      -0.421  -0.000   0.000  0.00  0.00    +0.000 C 
ATOM     16  O   UNL     1      -0.421  -0.826   0.000  0.00  0.00    +0.000 OA
BRANCH  15  17
ATOM     17  C   UNL     1      -1.136   0.412   0.000  0.00  0.00    +0.000 C 
ATOM     18  N   UNL     1      -1.136   1.237   0.000  0.00  0.00    +0.000 NA
BRANCH  17  19
ATOM     19  C   UNL     1      -1.850  -0.000   0.000  0.00  0.00    +0.000 A 
ATOM     20  C   UNL     1      -1.937  -0.821   0.000  0.00  0.00    +0.000 A 
ATOM     21  N   UNL     1      -2.604   0.335   0.000  0.00  0.00    +0.000 NA
ATOM     22  S   UNL     1      -2.744  -0.992   0.000  0.00  0.00    +0.000 S 
ATOM     23  C   UNL     1      -3.156  -0.278   0.000  0.00  0.00    +0.000 A 
ATOM     24  N   UNL     1      -3.977  -0.192   0.000  0.00  0.00    +0.000 NA
ENDBRANCH  17  19
BRANCH  18  25
ATOM     25  O   UNL     1      -0.421   1.650   0.000  0.00  0.00    +0.000 OA
ATOM     26  C   UNL     1      -0.421   2.475   0.000  0.00  0.00    +0.000 C 
ENDBRANCH  18  25
ENDBRANCH  15  17
ENDBRANCH   8  14
TORSDOF 5
