REMARK  Name = 
REMARK  2 active torsions:
REMARK  status: ('A' for Active; 'I' for Inactive)
REMARK    1  A    between atoms: N_1  and  C_2
REMARK    2  A    between atoms: C_5  and  C_11
REMARK                            x       y       z     vdW  Elec       q    Type
REMARK                         _______ _______ _______ _____ _____    ______ ____
ROOT
ATOM      1  C   UNL     1      -3.905  -1.459   0.000  0.00  0.00    +0.000 A 
ATOM      2  C   UNL     1      -3.188  -1.871   0.000  0.00  0.00    +0.000 A 
ATOM      3  C   UNL     1      -2.476  -1.455   0.000  0.00  0.00    +0.000 A 
ATOM      4  C   UNL     1      -2.480  -0.628   0.000  0.00  0.00    +0.000 A 
ATOM      5  C   UNL     1      -3.203  -0.219   0.000  0.00  0.00    +0.000 A 
ATOM      6  C   UNL     1      -3.912  -0.638   0.000  0.00  0.00    +0.000 A 
ENDROOT
BRANCH   1   7
ATOM      7  N   UNL     1      -4.618  -1.876   0.000  0.00  0.00    +0.000 NA
ATOM      8  C   UNL     1      -5.335  -1.463   0.000  0.00  0.00    +0.000 C 
ATOM      9  N   UNL     1      -5.339  -0.638   0.000  0.00  0.00    +0.000 NA
ATOM     10  N   UNL     1      -6.052  -1.872   0.000  0.00  0.00    +0.000 NA
ENDBRANCH   1   7
BRANCH   4  11
ATOM     11  C   UNL     1      -1.771  -0.208   0.000  0.00  0.00    +0.000 C 
ATOM     12  O   UNL     1      -1.775   0.617   0.000  0.00  0.00    +0.000 OA
ATOM     13  O   UNL     1      -1.058  -0.621   0.000  0.00  0.00    +0.000 OA
ENDBRANCH   4  11
TORSDOF 2
