REMARK  Name = 
REMARK  10 active torsions:
REMARK  status: ('A' for Active; 'I' for Inactive)
REMARK    1  A    between atoms: N_1  and  C_2
REMARK    2  A    between atoms: C_3  and  N_12
REMARK    3  A    between atoms: C_3  and  N_13
REMARK    4  A    between atoms: C_4  and  C_11
REMARK    5  A    between atoms: C_6  and  C_16
REMARK    6  A    between atoms: C_11  and  N_14
REMARK    7  A    between atoms: N_13  and  C_17
REMARK    8  A    between atoms: S_15  and  C_16
REMARK    9  A    between atoms: S_15  and  C_18
REMARK   10  A    between atoms: C_17  and  C_18
REMARK                            x       y       z     vdW  Elec       q    Type
REMARK                         _______ _______ _______ _____ _____    ______ ____
ROOT
ATOM      1  S   UNL     1       0.329   0.760   0.000  0.00  0.00    +0.000 S 
ENDROOT
BRANCH   1   2
ATOM      2  C   UNL     1      -0.376   1.172   0.000  0.00  0.00    +0.000 C 
BRANCH   2   5
ATOM      3  C   UNL     1      -2.412   0.736   0.000  0.00  0.00    +0.000 A 
ATOM      4  O   UNL     1      -1.759   1.172   0.000  0.00  0.00    +0.000 OA
ATOM      5  C   UNL     1      -1.072   0.736   0.000  0.00  0.00    +0.000 A 
ATOM      6  C   UNL     1      -2.156  -0.064   0.000  0.00  0.00    +0.000 A 
ATOM      7  C   UNL     1      -1.328  -0.064   0.000  0.00  0.00    +0.000 A 
BRANCH   3   8
ATOM      8  C   UNL     1      -3.122   1.172   0.000  0.00  0.00    +0.000 C 
BRANCH   8   9
ATOM      9  N   UNL     1      -3.818   0.736   0.000  0.00  0.00    +0.000 NA
ATOM     10  C   UNL     1      -3.818  -0.064   0.000  0.00  0.00    +0.000 C 
ATOM     11  C   UNL     1      -4.523   1.172   0.000  0.00  0.00    +0.000 C 
ENDBRANCH   8   9
ENDBRANCH   3   8
ENDBRANCH   2   5
ENDBRANCH   1   2
BRANCH   1  12
ATOM     12  C   UNL     1       1.011   1.172   0.000  0.00  0.00    +0.000 C 
BRANCH  12  13
ATOM     13  C   UNL     1       1.726   0.760   0.000  0.00  0.00    +0.000 C 
BRANCH  13  14
ATOM     14  N   UNL     1       2.407   1.172   0.000  0.00  0.00    +0.000 NA
BRANCH  14  16
ATOM     15  C   UNL     1       3.141   0.007   0.000  0.00  0.00    +0.000 C 
ATOM     16  C   UNL     1       3.141   0.760   0.000  0.00  0.00    +0.000 C 
BRANCH  15  17
ATOM     17  N   UNL     1       3.808  -0.405   0.000  0.00  0.00    +0.000 N 
ATOM     18  O   UNL     1       4.504  -0.031   0.000  0.00  0.00    +0.000 OA
ATOM     19  O   UNL     1       3.827  -1.172   0.000  0.00  0.00    +0.000 OA
ENDBRANCH  15  17
BRANCH  16  20
ATOM     20  N   UNL     1       3.842   1.172   0.000  0.00  0.00    +0.000 NA
ATOM     21  C   UNL     1       4.523   0.760   0.000  0.00  0.00    +0.000 C 
ENDBRANCH  16  20
ENDBRANCH  14  16
ENDBRANCH  13  14
ENDBRANCH  12  13
ENDBRANCH   1  12
TORSDOF 10
