REMARK  Name = 
REMARK  26 active torsions:
REMARK  status: ('A' for Active; 'I' for Inactive)
REMARK    1  A    between atoms: CG_4  and  CB_6
REMARK    2  A    between atoms: CB_6  and  CA_7
REMARK    3  A    between atoms: CA_11  and  CB_12
REMARK    4  A    between atoms: CB_12  and  CG_13
REMARK    5  A    between atoms: CG_13  and  CD_14
REMARK    6  A    between atoms: CD_14  and  CE_15
REMARK    7  A    between atoms: CA_20  and  CB_21
REMARK    8  A    between atoms: CA_27  and  C_28
REMARK    9  A    between atoms: N_30  and  CA_31
REMARK   10  A    between atoms: CA_31  and  C_32
REMARK   11  A    between atoms: CA_31  and  CB_35
REMARK   12  A    between atoms: CA_42  and  N_43
REMARK   13  A    between atoms: C_44  and  CA_46
REMARK   14  A    between atoms: CA_46  and  CB_47
REMARK   15  A    between atoms: CA_46  and  N_54
REMARK   16  A    between atoms: CB_47  and  CG_48
REMARK   17  A    between atoms: C_55  and  C_56
REMARK   18  A    between atoms: C_56  and  N_57
REMARK   19  A    between atoms: N_60  and  C_61
REMARK   20  A    between atoms: C_61  and  C_62
REMARK   21  A    between atoms: N_67  and  C_68
REMARK   22  A    between atoms: C_68  and  C_69
REMARK   23  A    between atoms: N_74  and  C_75
REMARK   24  A    between atoms: C_75  and  C_76
REMARK   25  A    between atoms: CA_85  and  CB_86
REMARK   26  A    between atoms: CB_86  and  CG_87
REMARK                            x       y       z     vdW  Elec       q    Type
REMARK                         _______ _______ _______ _____ _____    ______ ____
ROOT
ATOM      1  CA  CYS A   3      -5.333  -0.142   0.000  0.00  0.00    +0.000 C 
ATOM      2  C   CYS A   3      -5.562   0.652   0.000  0.00  0.00    +0.000 C 
ATOM      3  O   CYS A   3      -6.381   0.555   0.000  0.00  0.00    +0.000 OA
ATOM      4  N   PHE A   1      -5.562   1.476   0.000  0.00  0.00    +0.000 NA
ATOM      5  CA  PHE A   1      -5.253   2.255   0.000  0.00  0.00    +0.000 C 
ATOM      6  C   PHE A   1      -4.743   2.904   0.000  0.00  0.00    +0.000 C 
ATOM      7  O   PHE A   1      -5.304   3.511   0.000  0.00  0.00    +0.000 OA
ATOM      8  N   TYR A   2      -4.056   3.366   0.000  0.00  0.00    +0.000 NA
ATOM      9  CA  TYR A   2      -3.262   3.595   0.000  0.00  0.00    +0.000 C 
ATOM     10  C   TYR A   2      -2.437   3.595   0.000  0.00  0.00    +0.000 C 
ATOM     11  O   TYR A   2      -2.280   4.375   0.000  0.00  0.00    +0.000 OA
ATOM     12  N   CYS A   3      -1.663   3.281   0.000  0.00  0.00    +0.000 NA
ATOM     13  CA  CYS A   3      -1.015   2.771   0.000  0.00  0.00    +0.000 C 
ATOM     14  CB  CYS A   3      -0.553   2.089   0.000  0.00  0.00    +0.000 C 
ATOM     15  SG  CYS A   3      -0.323   1.294   0.000  0.00  0.00    +0.000 S 
ATOM     16  SG  PHE A   1      -0.323   0.470   0.000  0.00  0.00    +0.000 S 
ATOM     17  CB  PHE A   1      -0.638  -0.309   0.000  0.00  0.00    +0.000 C 
ATOM     18  CA  PHE A   1      -1.143  -0.957   0.000  0.00  0.00    +0.000 C 
ATOM     19  C   PHE A   1      -1.830  -1.419   0.000  0.00  0.00    +0.000 C 
ATOM     20  O   PHE A   1      -1.480  -2.168   0.000  0.00  0.00    +0.000 OA
ATOM     21  N   TYR A   2      -2.624  -1.616   0.000  0.00  0.00    +0.000 NA
ATOM     22  CA  TYR A   2      -3.449  -1.616   0.000  0.00  0.00    +0.000 C 
ATOM     23  C   TYR A   2      -4.223  -1.334   0.000  0.00  0.00    +0.000 C 
ATOM     24  O   TYR A   2      -4.626  -2.053   0.000  0.00  0.00    +0.000 OA
ATOM     25  N   CYS A   3      -4.876  -0.824   0.000  0.00  0.00    +0.000 NA
ENDROOT
BRANCH   9  26
ATOM     26  CB  TYR A   2      -3.364   4.413   0.000  0.00  0.00    +0.000 C 
ATOM     27  CG2 TYR A   2      -2.705   4.910   0.000  0.00  0.00    +0.000 C 
ATOM     28  OG1 TYR A   2      -4.125   4.735   0.000  0.00  0.00    +0.000 OA
ENDBRANCH   9  26
BRANCH  13  29
ATOM     29  C   CYS A   3      -0.408   3.336   0.000  0.00  0.00    +0.000 C 
ATOM     30  O   CYS A   3       0.381   3.095   0.000  0.00  0.00    +0.000 OA
ATOM     31  N   THR A   4      -0.595   4.138   0.000  0.00  0.00    +0.000 NA
BRANCH  31  32
ATOM     32  CA  THR A   4       0.100   4.591   0.000  0.00  0.00    +0.000 C 
BRANCH  32  33
ATOM     33  C   THR A   4       0.834   4.215   0.000  0.00  0.00    +0.000 C 
ATOM     34  O   THR A   4       0.834   3.387   0.000  0.00  0.00    +0.000 OA
ATOM     35  OXT THR A   4       1.525   4.664   0.000  0.00  0.00    +0.000 OA
ENDBRANCH  32  33
BRANCH  32  36
ATOM     36  CB  THR A   4       0.100   5.415   0.000  0.00  0.00    +0.000 C 
ATOM     37  CG2 THR A   4       0.749   5.863   0.000  0.00  0.00    +0.000 C 
ATOM     38  OG1 THR A   4      -0.681   5.790   0.000  0.00  0.00    +0.000 OA
ENDBRANCH  32  36
ENDBRANCH  31  32
ENDBRANCH  13  29
BRANCH  18  39
ATOM     39  N   PHE A   1      -0.582  -1.559   0.000  0.00  0.00    +0.000 NA
ATOM     40  C   PHE A   1       0.179  -1.238   0.000  0.00  0.00    +0.000 C 
ATOM     41  O   PHE A   1       0.278  -0.420   0.000  0.00  0.00    +0.000 OA
BRANCH  40  42
ATOM     42  CA  PHE A   1       0.838  -1.735   0.000  0.00  0.00    +0.000 C 
BRANCH  42  43
ATOM     43  N   PHE A   1       1.529  -1.287   0.000  0.00  0.00    +0.000 NA
ATOM     44  C   UNK A   0       2.263  -1.662   0.000  0.00  0.00    +0.000 C 
ATOM     45  O   UNK A   0       2.296  -2.239   0.000  0.00  0.00    +0.000 OA
BRANCH  44  46
ATOM     46  C   UNK A   0       2.959  -1.214   0.000  0.00  0.00    +0.000 C 
BRANCH  46  47
ATOM     47  N   UNK A   0       3.692  -1.589   0.000  0.00  0.00    +0.000 NA
ATOM     48  C   UNK A   0       4.247  -0.972   0.000  0.00  0.00    +0.000 C 
ATOM     49  C   UNK A   0       5.032  -0.722   0.000  0.00  0.00    +0.000 C 
ATOM     50  N   UNK A   0       5.837  -0.890   0.000  0.00  0.00    +0.000 NA
ATOM     51  C   UNK A   0       6.453  -1.444   0.000  0.00  0.00    +0.000 C 
ATOM     52  C   UNK A   0       6.704  -2.229   0.000  0.00  0.00    +0.000 C 
ATOM     53  N   UNK A   0       6.536  -3.038   0.000  0.00  0.00    +0.000 NA
ATOM     54  C   UNK A   0       5.982  -3.651   0.000  0.00  0.00    +0.000 C 
ATOM     55  C   UNK A   0       5.197  -3.906   0.000  0.00  0.00    +0.000 C 
ATOM     56  N   UNK A   0       4.387  -3.733   0.000  0.00  0.00    +0.000 NA
ATOM     57  C   UNK A   0       3.775  -3.179   0.000  0.00  0.00    +0.000 C 
ATOM     58  C   UNK A   0       3.520  -2.394   0.000  0.00  0.00    +0.000 C 
BRANCH  50  59
ATOM     59  C   UNK A   0       6.212  -0.156   0.000  0.00  0.00    +0.000 C 
BRANCH  59  60
ATOM     60  C   UNK A   0       5.651   0.446   0.000  0.00  0.00    +0.000 C 
ATOM     61  O   UNK A   0       5.892   1.236   0.000  0.00  0.00    +0.000 OA
ATOM     62  O   UNK A   0       4.845   0.263   0.000  0.00  0.00    +0.000 OA
ENDBRANCH  59  60
ENDBRANCH  50  59
BRANCH  53  63
ATOM     63  C   UNK A   0       7.270  -3.414   0.000  0.00  0.00    +0.000 C 
BRANCH  63  64
ATOM     64  C   UNK A   0       7.872  -2.848   0.000  0.00  0.00    +0.000 C 
ATOM     65  O   UNK A   0       8.661  -3.089   0.000  0.00  0.00    +0.000 OA
ATOM     66  O   UNK A   0       7.689  -2.047   0.000  0.00  0.00    +0.000 OA
ENDBRANCH  63  64
ENDBRANCH  53  63
BRANCH  56  67
ATOM     67  C   UNK A   0       4.012  -4.467   0.000  0.00  0.00    +0.000 C 
BRANCH  67  68
ATOM     68  C   UNK A   0       4.577  -5.074   0.000  0.00  0.00    +0.000 C 
ATOM     69  O   UNK A   0       4.336  -5.863   0.000  0.00  0.00    +0.000 OA
ATOM     70  O   UNK A   0       5.379  -4.886   0.000  0.00  0.00    +0.000 OA
ENDBRANCH  67  68
ENDBRANCH  56  67
ENDBRANCH  46  47
ENDBRANCH  44  46
ENDBRANCH  42  43
BRANCH  42  71
ATOM     71  CB  PHE A   1       0.735  -2.554   0.000  0.00  0.00    +0.000 C 
BRANCH  71  72
ATOM     72  CG  PHE A   1       1.393  -3.051   0.000  0.00  0.00    +0.000 A 
ATOM     73  CD1 PHE A   1       1.294  -3.873   0.000  0.00  0.00    +0.000 A 
ATOM     74  CE1 PHE A   1       1.953  -4.370   0.000  0.00  0.00    +0.000 A 
ATOM     75  CZ  PHE A   1       2.715  -4.045   0.000  0.00  0.00    +0.000 A 
ATOM     76  CE2 PHE A   1       2.813  -3.227   0.000  0.00  0.00    +0.000 A 
ATOM     77  CD2 PHE A   1       2.155  -2.729   0.000  0.00  0.00    +0.000 A 
ENDBRANCH  71  72
ENDBRANCH  42  71
ENDBRANCH  40  42
ENDBRANCH  18  39
BRANCH   1  78
ATOM     78  CB  CYS A   3      -6.082  -0.488   0.000  0.00  0.00    +0.000 C 
BRANCH  78  82
ATOM     79  NE1 CYS A   3      -5.492  -2.542   0.000  0.00  0.00    +0.000 NA
ATOM     80  CE2 CYS A   3      -6.314  -2.612   0.000  0.00  0.00    +0.000 A 
ATOM     81  CD2 CYS A   3      -6.635  -1.851   0.000  0.00  0.00    +0.000 A 
ATOM     82  CG  CYS A   3      -6.011  -1.309   0.000  0.00  0.00    +0.000 A 
ATOM     83  CD1 CYS A   3      -5.304  -1.736   0.000  0.00  0.00    +0.000 A 
ATOM     84  CE3 CYS A   3      -7.453  -1.752   0.000  0.00  0.00    +0.000 A 
ATOM     85  CZ3 CYS A   3      -7.950  -2.411   0.000  0.00  0.00    +0.000 A 
ATOM     86  CH2 CYS A   3      -7.629  -3.172   0.000  0.00  0.00    +0.000 A 
ATOM     87  CZ2 CYS A   3      -6.811  -3.271   0.000  0.00  0.00    +0.000 A 
ENDBRANCH  78  82
ENDBRANCH   1  78
BRANCH   5  88
ATOM     88  CB  PHE A   1      -5.972   2.654   0.000  0.00  0.00    +0.000 C 
BRANCH  88  89
ATOM     89  CG  PHE A   1      -6.595   2.113   0.000  0.00  0.00    +0.000 C 
BRANCH  89  90
ATOM     90  CD  PHE A   1      -7.319   2.516   0.000  0.00  0.00    +0.000 C 
BRANCH  90  91
ATOM     91  CE  PHE A   1      -7.942   1.970   0.000  0.00  0.00    +0.000 C 
ATOM     92  NZ  PHE A   1      -8.661   2.374   0.000  0.00  0.00    +0.000 NA
ENDBRANCH  90  91
ENDBRANCH  89  90
ENDBRANCH  88  89
ENDBRANCH   5  88
BRANCH  22  93
ATOM     93  CB  TYR A   2      -3.606  -2.429   0.000  0.00  0.00    +0.000 C 
BRANCH  93  94
ATOM     94  CG  TYR A   2      -2.898  -2.851   0.000  0.00  0.00    +0.000 A 
ATOM     95  CD1 TYR A   2      -2.898  -3.676   0.000  0.00  0.00    +0.000 A 
ATOM     96  CE1 TYR A   2      -2.207  -4.102   0.000  0.00  0.00    +0.000 A 
ATOM     97  CZ  TYR A   2      -1.483  -3.704   0.000  0.00  0.00    +0.000 A 
ATOM     98  CE2 TYR A   2      -1.483  -2.879   0.000  0.00  0.00    +0.000 A 
ATOM     99  CD2 TYR A   2      -2.179  -2.453   0.000  0.00  0.00    +0.000 A 
ATOM    100  OH  TYR A   2      -0.775  -4.126   0.000  0.00  0.00    +0.000 OA
ENDBRANCH  93  94
ENDBRANCH  22  93
TORSDOF 26
REMARK  Name = 
REMARK  26 active torsions:
REMARK  status: ('A' for Active; 'I' for Inactive)
REMARK    1  A    between atoms: CG_4  and  CB_6
REMARK    2  A    between atoms: CB_6  and  CA_7
REMARK    3  A    between atoms: CA_11  and  CB_12
REMARK    4  A    between atoms: CB_12  and  CG_13
REMARK    5  A    between atoms: CG_13  and  CD_14
REMARK    6  A    between atoms: CD_14  and  CE_15
REMARK    7  A    between atoms: CA_20  and  CB_21
REMARK    8  A    between atoms: CA_27  and  C_28
REMARK    9  A    between atoms: N_30  and  CA_31
REMARK   10  A    between atoms: CA_31  and  C_32
REMARK   11  A    between atoms: CA_31  and  CB_35
REMARK   12  A    between atoms: CA_42  and  N_43
REMARK   13  A    between atoms: C_44  and  CA_46
REMARK   14  A    between atoms: CA_46  and  CB_47
REMARK   15  A    between atoms: CA_46  and  N_54
REMARK   16  A    between atoms: CB_47  and  CG_48
REMARK   17  A    between atoms: C_55  and  C_56
REMARK   18  A    between atoms: C_56  and  N_57
REMARK   19  A    between atoms: N_60  and  C_61
REMARK   20  A    between atoms: C_61  and  C_62
REMARK   21  A    between atoms: N_67  and  C_68
REMARK   22  A    between atoms: C_68  and  C_69
REMARK   23  A    between atoms: N_74  and  C_75
REMARK   24  A    between atoms: C_75  and  C_76
REMARK   25  A    between atoms: CA_85  and  CB_86
REMARK   26  A    between atoms: CB_86  and  CG_87
REMARK                            x       y       z     vdW  Elec       q    Type
REMARK                         _______ _______ _______ _____ _____    ______ ____
ROOT
ATOM      1 CU   UNL     1       5.042  -2.324   0.000  0.00  0.00    +0.000 Cu
ENDROOT
TORSDOF 0
