REMARK  Name = 
REMARK  2 active torsions:
REMARK  status: ('A' for Active; 'I' for Inactive)
REMARK    1  A    between atoms: C_4  and  C_6
REMARK    2  A    between atoms: C_5  and  C_6
REMARK                            x       y       z     vdW  Elec       q    Type
REMARK                         _______ _______ _______ _____ _____    ______ ____
ROOT
ATOM      1  C   UNL     1       1.650   0.000   0.000  0.00  0.00    +0.000 C 
ATOM      2  C   UNL     1       0.825   0.000   0.000  0.00  0.00    +0.000 C 
ATOM      3  O   UNL     1       0.000   0.000   0.000  0.00  0.00    +0.000 OA
ENDROOT
BRANCH   2   5
ATOM      4  C   UNL     1       0.825   1.650   0.000  0.00  0.00    +0.000 C 
ATOM      5  C   UNL     1       0.825   0.825   0.000  0.00  0.00    +0.000 C 
ENDBRANCH   2   5
BRANCH   2   7
ATOM      6  C   UNL     1       1.540  -1.238   0.000  0.00  0.00    +0.000 C 
ATOM      7  C   UNL     1       0.825  -0.825   0.000  0.00  0.00    +0.000 C 
ENDBRANCH   2   7
TORSDOF 2
