REMARK  Name = 
REMARK  17 active torsions:
REMARK  status: ('A' for Active; 'I' for Inactive)
REMARK    1  A    between atoms: C_7  and  C_8
REMARK    2  A    between atoms: C_7  and  O_20
REMARK    3  A    between atoms: C_8  and  O_21
REMARK    4  A    between atoms: C_9  and  C_11
REMARK    5  A    between atoms: C_9  and  N_16
REMARK    6  A    between atoms: C_10  and  C_14
REMARK    7  A    between atoms: C_10  and  O_22
REMARK    8  A    between atoms: C_11  and  O_21
REMARK    9  A    between atoms: C_12  and  C_15
REMARK   10  A    between atoms: C_13  and  O_22
REMARK   11  A    between atoms: C_25  and  N_37
REMARK   12  A    between atoms: C_26  and  N_37
REMARK   13  A    between atoms: C_31  and  C_32
REMARK   14  A    between atoms: C_31  and  N_37
REMARK   15  A    between atoms: C_32  and  O_39
REMARK   16  A    between atoms: C_33  and  C_35
REMARK   17  A    between atoms: C_35  and  O_39
REMARK                            x       y       z     vdW  Elec       q    Type
REMARK                         _______ _______ _______ _____ _____    ______ ____
ROOT
ATOM      1  C   UNL     1      -3.679   2.888   0.000  0.00  0.00    +0.000 A 
ATOM      2  C   UNL     1      -4.394   3.300   0.000  0.00  0.00    +0.000 A 
ATOM      3  C   UNL     1      -3.679   2.062   0.000  0.00  0.00    +0.000 A 
ATOM      4  C   UNL     1      -5.108   2.888   0.000  0.00  0.00    +0.000 A 
ATOM      5  C   UNL     1      -4.394   1.650   0.000  0.00  0.00    +0.000 A 
ATOM      6  C   UNL     1      -5.108   2.062   0.000  0.00  0.00    +0.000 A 
ENDROOT
BRANCH   5   7
ATOM      7  C   UNL     1      -4.394   0.825   0.000  0.00  0.00    +0.000 C 
ATOM      8  N   UNL     1      -5.108   0.412   0.000  0.00  0.00    +0.000 NA
ATOM      9  O   UNL     1      -3.679   0.412   0.000  0.00  0.00    +0.000 OA
BRANCH   8  10
ATOM     10  C   UNL     1      -5.108  -0.412   0.000  0.00  0.00    +0.000 C 
BRANCH  10  12
ATOM     11  C   UNL     1      -4.394  -1.650   0.000  0.00  0.00    +0.000 C 
ATOM     12  C   UNL     1      -4.394  -0.825   0.000  0.00  0.00    +0.000 C 
BRANCH  12  13
ATOM     13  O   UNL     1      -3.679  -0.412   0.000  0.00  0.00    +0.000 OA
BRANCH  13  14
ATOM     14  C   UNL     1      -2.965  -0.825   0.000  0.00  0.00    +0.000 C 
BRANCH  14  15
ATOM     15  C   UNL     1      -2.250  -0.412   0.000  0.00  0.00    +0.000 C 
BRANCH  15  17
ATOM     16  C   UNL     1      -1.536  -1.650   0.000  0.00  0.00    +0.000 C 
ATOM     17  O   UNL     1      -1.536  -0.825   0.000  0.00  0.00    +0.000 OA
ENDBRANCH  15  17
ENDBRANCH  14  15
ENDBRANCH  13  14
ENDBRANCH  12  13
ENDBRANCH  10  12
ENDBRANCH   8  10
ENDBRANCH   5   7
BRANCH   6  18
ATOM     18  O   UNL     1      -5.823   1.650   0.000  0.00  0.00    +0.000 OA
BRANCH  18  19
ATOM     19  C   UNL     1      -5.823   0.825   0.000  0.00  0.00    +0.000 C 
BRANCH  19  20
ATOM     20  C   UNL     1      -6.537   0.412   0.000  0.00  0.00    +0.000 C 
ATOM     21  O   UNL     1      -6.537  -0.412   0.000  0.00  0.00    +0.000 OA
ATOM     22  O   UNL     1      -7.252   0.825   0.000  0.00  0.00    +0.000 OA
ENDBRANCH  19  20
ENDBRANCH  18  19
ENDBRANCH   6  18
TORSDOF 10
REMARK  Name = 
REMARK  17 active torsions:
REMARK  status: ('A' for Active; 'I' for Inactive)
REMARK    1  A    between atoms: C_7  and  C_8
REMARK    2  A    between atoms: C_7  and  O_20
REMARK    3  A    between atoms: C_8  and  O_21
REMARK    4  A    between atoms: C_9  and  C_11
REMARK    5  A    between atoms: C_9  and  N_16
REMARK    6  A    between atoms: C_10  and  C_14
REMARK    7  A    between atoms: C_10  and  O_22
REMARK    8  A    between atoms: C_11  and  O_21
REMARK    9  A    between atoms: C_12  and  C_15
REMARK   10  A    between atoms: C_13  and  O_22
REMARK   11  A    between atoms: C_25  and  N_37
REMARK   12  A    between atoms: C_26  and  N_37
REMARK   13  A    between atoms: C_31  and  C_32
REMARK   14  A    between atoms: C_31  and  N_37
REMARK   15  A    between atoms: C_32  and  O_39
REMARK   16  A    between atoms: C_33  and  C_35
REMARK   17  A    between atoms: C_35  and  O_39
REMARK                            x       y       z     vdW  Elec       q    Type
REMARK                         _______ _______ _______ _____ _____    ______ ____
ROOT
ATOM      1  C   UNL     1       5.108   0.319   0.000  0.00  0.00    +0.000 C 
ATOM      2  O   UNL     1       5.108  -0.506   0.000  0.00  0.00    +0.000 OA
ENDROOT
BRANCH   1   7
ATOM      3  C   UNL     1       6.537   0.319   0.000  0.00  0.00    +0.000 A 
ATOM      4  C   UNL     1       5.823   1.556   0.000  0.00  0.00    +0.000 A 
ATOM      5  C   UNL     1       7.252   0.731   0.000  0.00  0.00    +0.000 A 
ATOM      6  C   UNL     1       6.537   1.969   0.000  0.00  0.00    +0.000 A 
ATOM      7  C   UNL     1       5.823   0.731   0.000  0.00  0.00    +0.000 A 
ATOM      8  C   UNL     1       7.252   1.556   0.000  0.00  0.00    +0.000 A 
ATOM      9  N   UNL     1       7.966   1.969   0.000  0.00  0.00    +0.000 NA
ENDBRANCH   1   7
BRANCH   1  10
ATOM     10  O   UNL     1       4.394   0.731   0.000  0.00  0.00    +0.000 OA
BRANCH  10  11
ATOM     11  C   UNL     1       3.679   0.319   0.000  0.00  0.00    +0.000 C 
BRANCH  11  12
ATOM     12  C   UNL     1       2.965   0.731   0.000  0.00  0.00    +0.000 C 
BRANCH  12  13
ATOM     13  N   UNL     1       2.250   0.319   0.000  0.00  0.00    +0.000 NA
BRANCH  13  15
ATOM     14  C   UNL     1       0.821   0.319   0.000  0.00  0.00    +0.000 C 
ATOM     15  C   UNL     1       1.536   0.731   0.000  0.00  0.00    +0.000 C 
ENDBRANCH  13  15
BRANCH  13  17
ATOM     16  C   UNL     1       1.536  -0.919   0.000  0.00  0.00    +0.000 C 
ATOM     17  C   UNL     1       2.250  -0.506   0.000  0.00  0.00    +0.000 C 
ENDBRANCH  13  17
ENDBRANCH  12  13
ENDBRANCH  11  12
ENDBRANCH  10  11
ENDBRANCH   1  10
TORSDOF 7
REMARK  Name = 
REMARK  17 active torsions:
REMARK  status: ('A' for Active; 'I' for Inactive)
REMARK    1  A    between atoms: C_7  and  C_8
REMARK    2  A    between atoms: C_7  and  O_20
REMARK    3  A    between atoms: C_8  and  O_21
REMARK    4  A    between atoms: C_9  and  C_11
REMARK    5  A    between atoms: C_9  and  N_16
REMARK    6  A    between atoms: C_10  and  C_14
REMARK    7  A    between atoms: C_10  and  O_22
REMARK    8  A    between atoms: C_11  and  O_21
REMARK    9  A    between atoms: C_12  and  C_15
REMARK   10  A    between atoms: C_13  and  O_22
REMARK   11  A    between atoms: C_25  and  N_37
REMARK   12  A    between atoms: C_26  and  N_37
REMARK   13  A    between atoms: C_31  and  C_32
REMARK   14  A    between atoms: C_31  and  N_37
REMARK   15  A    between atoms: C_32  and  O_39
REMARK   16  A    between atoms: C_33  and  C_35
REMARK   17  A    between atoms: C_35  and  O_39
REMARK                            x       y       z     vdW  Elec       q    Type
REMARK                         _______ _______ _______ _____ _____    ______ ____
ROOT
ATOM      1 HG   UNL     1      -7.966   1.238   0.000  0.00  0.00    +0.000 Hg
ENDROOT
TORSDOF 0
REMARK  Name = 
REMARK  17 active torsions:
REMARK  status: ('A' for Active; 'I' for Inactive)
REMARK    1  A    between atoms: C_7  and  C_8
REMARK    2  A    between atoms: C_7  and  O_20
REMARK    3  A    between atoms: C_8  and  O_21
REMARK    4  A    between atoms: C_9  and  C_11
REMARK    5  A    between atoms: C_9  and  N_16
REMARK    6  A    between atoms: C_10  and  C_14
REMARK    7  A    between atoms: C_10  and  O_22
REMARK    8  A    between atoms: C_11  and  O_21
REMARK    9  A    between atoms: C_12  and  C_15
REMARK   10  A    between atoms: C_13  and  O_22
REMARK   11  A    between atoms: C_25  and  N_37
REMARK   12  A    between atoms: C_26  and  N_37
REMARK   13  A    between atoms: C_31  and  C_32
REMARK   14  A    between atoms: C_31  and  N_37
REMARK   15  A    between atoms: C_32  and  O_39
REMARK   16  A    between atoms: C_33  and  C_35
REMARK   17  A    between atoms: C_35  and  O_39
REMARK                            x       y       z     vdW  Elec       q    Type
REMARK                         _______ _______ _______ _____ _____    ______ ____
ROOT
ATOM      1  O   HOH     1      -4.580  -3.300   0.000  0.00  0.00    +0.000 OA
ENDROOT
TORSDOF 0
