REMARK  Name = 
REMARK  0 active torsions:
REMARK  status: ('A' for Active; 'I' for Inactive)
REMARK                            x       y       z     vdW  Elec       q    Type
REMARK                         _______ _______ _______ _____ _____    ______ ____
ROOT
ATOM      1  C   UNL     1       0.582  -0.822   0.000  0.00  0.00    +0.000 C 
ATOM      2  C   UNL     1      -0.117  -1.225   0.000  0.00  0.00    +0.000 C 
ATOM      3  C   UNL     1      -0.835  -0.819   0.000  0.00  0.00    +0.000 C 
ATOM      4  C   UNL     1      -0.821  -0.003   0.000  0.00  0.00    +0.000 C 
ATOM      5  C   UNL     1      -1.304   0.008   0.000  0.00  0.00    +0.000 C 
ATOM      6  C   UNL     1      -0.590  -0.404   0.000  0.00  0.00    +0.000 C 
ATOM      7  C   UNL     1      -1.304  -0.817   0.000  0.00  0.00    +0.000 C 
ATOM      8  C   UNL     1      -0.121   0.400   0.000  0.00  0.00    +0.000 C 
ATOM      9  C   UNL     1      -0.106   1.225   0.000  0.00  0.00    +0.000 C 
ATOM     10  C   UNL     1       0.582  -0.002   0.000  0.00  0.00    +0.000 C 
ATOM     11  O   UNL     1       1.304   0.397   0.000  0.00  0.00    +0.000 OA
ENDROOT
TORSDOF 0
