REMARK  Name = 
REMARK  17 active torsions:
REMARK  status: ('A' for Active; 'I' for Inactive)
REMARK    1  A    between atoms: C_4  and  C_5
REMARK    2  A    between atoms: C_5  and  C_6
REMARK    3  A    between atoms: C_6  and  C_7
REMARK    4  A    between atoms: C_9  and  C_10
REMARK    5  A    between atoms: C_10  and  C_11
REMARK    6  A    between atoms: C_11  and  C_12
REMARK    7  A    between atoms: C_14  and  C_15
REMARK    8  A    between atoms: C_15  and  C_16
REMARK    9  A    between atoms: C_16  and  C_17
REMARK   10  A    between atoms: C_19  and  C_20
REMARK   11  A    between atoms: C_20  and  C_21
REMARK   12  A    between atoms: C_21  and  C_22
REMARK   13  A    between atoms: C_24  and  C_25
REMARK   14  A    between atoms: C_25  and  C_26
REMARK   15  A    between atoms: C_26  and  C_27
REMARK   16  A    between atoms: C_29  and  C_30
REMARK   17  A    between atoms: C_30  and  C_31
REMARK                            x       y       z     vdW  Elec       q    Type
REMARK                         _______ _______ _______ _____ _____    ______ ____
ROOT
ATOM      1  C   UNL     1      -0.715   3.712   0.000  0.00  0.00    +0.000 C 
ATOM      2  C   UNL     1       0.000   3.300   0.000  0.00  0.00    +0.000 C 
ATOM      3  C   UNL     1      -1.429   3.300   0.000  0.00  0.00    +0.000 C 
ENDROOT
BRANCH   1   4
ATOM      4  C   UNL     1      -0.715   4.537   0.000  0.00  0.00    +0.000 C 
BRANCH   4   5
ATOM      5  C   UNL     1       0.000   4.950   0.000  0.00  0.00    +0.000 C 
BRANCH   5   8
ATOM      6  C   UNL     1       0.715   6.188   0.000  0.00  0.00    +0.000 C 
ATOM      7  C   UNL     1       1.429   5.775   0.000  0.00  0.00    +0.000 C 
ATOM      8  C   UNL     1       0.000   5.775   0.000  0.00  0.00    +0.000 C 
BRANCH   6   9
ATOM      9  C   UNL     1       0.715   7.013   0.000  0.00  0.00    +0.000 C 
BRANCH   9  10
ATOM     10  C   UNL     1       1.429   7.425   0.000  0.00  0.00    +0.000 C 
BRANCH  10  13
ATOM     11  C   UNL     1       2.143   8.662   0.000  0.00  0.00    +0.000 C 
ATOM     12  C   UNL     1       2.858   8.250   0.000  0.00  0.00    +0.000 C 
ATOM     13  C   UNL     1       1.429   8.250   0.000  0.00  0.00    +0.000 C 
BRANCH  11  14
ATOM     14  C   UNL     1       2.143   9.488   0.000  0.00  0.00    +0.000 C 
BRANCH  14  15
ATOM     15  C   UNL     1       2.858   9.900   0.000  0.00  0.00    +0.000 C 
BRANCH  15  18
ATOM     16  C   UNL     1       3.572  11.137   0.000  0.00  0.00    +0.000 C 
ATOM     17  C   UNL     1       4.287  10.725   0.000  0.00  0.00    +0.000 C 
ATOM     18  C   UNL     1       2.858  10.725   0.000  0.00  0.00    +0.000 C 
BRANCH  16  19
ATOM     19  C   UNL     1       3.572  11.963   0.000  0.00  0.00    +0.000 C 
BRANCH  19  20
ATOM     20  C   UNL     1       4.287  12.375   0.000  0.00  0.00    +0.000 C 
BRANCH  20  24
ATOM     21  C   UNL     1       5.001  14.438   0.000  0.00  0.00    +0.000 C 
ATOM     22  C   UNL     1       5.001  13.613   0.000  0.00  0.00    +0.000 C 
ATOM     23  C   UNL     1       5.716  13.200   0.000  0.00  0.00    +0.000 C 
ATOM     24  C   UNL     1       4.287  13.200   0.000  0.00  0.00    +0.000 C 
ENDBRANCH  20  24
ENDBRANCH  19  20
ENDBRANCH  16  19
ENDBRANCH  15  18
ENDBRANCH  14  15
ENDBRANCH  11  14
ENDBRANCH  10  13
ENDBRANCH   9  10
ENDBRANCH   6   9
ENDBRANCH   5   8
ENDBRANCH   4   5
ENDBRANCH   1   4
BRANCH   3  25
ATOM     25  C   UNL     1      -1.429   2.475   0.000  0.00  0.00    +0.000 C 
BRANCH  25  26
ATOM     26  C   UNL     1      -2.143   2.062   0.000  0.00  0.00    +0.000 C 
BRANCH  26  27
ATOM     27  C   UNL     1      -2.143   1.238   0.000  0.00  0.00    +0.000 C 
ATOM     28  C   UNL     1      -2.858   0.825   0.000  0.00  0.00    +0.000 C 
ATOM     29  C   UNL     1      -1.429   0.825   0.000  0.00  0.00    +0.000 C 
BRANCH  29  30
ATOM     30  C   UNL     1      -1.429   0.000   0.000  0.00  0.00    +0.000 C 
BRANCH  30  31
ATOM     31  C   UNL     1      -0.715  -0.412   0.000  0.00  0.00    +0.000 C 
ATOM     32  C   UNL     1      -0.715  -1.238   0.000  0.00  0.00    +0.000 C 
ATOM     33  C   UNL     1      -1.429  -1.650   0.000  0.00  0.00    +0.000 C 
ATOM     34  C   UNL     1       0.000  -1.650   0.000  0.00  0.00    +0.000 C 
ATOM     35  O   UNL     1       0.000  -2.475   0.000  0.00  0.00    +0.000 OA
ATOM     36  C   UNL     1       0.715  -1.238   0.000  0.00  0.00    +0.000 A 
ATOM     37  C   UNL     1       0.715  -0.412   0.000  0.00  0.00    +0.000 A 
ATOM     38  C   UNL     1       1.429   0.000   0.000  0.00  0.00    +0.000 A 
ATOM     39  C   UNL     1       2.143  -0.412   0.000  0.00  0.00    +0.000 A 
ATOM     40  C   UNL     1       2.143  -1.238   0.000  0.00  0.00    +0.000 A 
ATOM     41  C   UNL     1       1.429  -1.650   0.000  0.00  0.00    +0.000 A 
ATOM     42  C   UNL     1       0.000   0.000   0.000  0.00  0.00    +0.000 C 
ATOM     43  O   UNL     1       0.000   0.825   0.000  0.00  0.00    +0.000 OA
ENDBRANCH  30  31
ENDBRANCH  29  30
ENDBRANCH  26  27
ENDBRANCH  25  26
ENDBRANCH   3  25
TORSDOF 17
