REMARK  Name = 
REMARK  1 active torsions:
REMARK  status: ('A' for Active; 'I' for Inactive)
REMARK    1  A    between atoms: C_19  and  N_22
REMARK                            x       y       z     vdW  Elec       q    Type
REMARK                         _______ _______ _______ _____ _____    ______ ____
ROOT
ATOM      1  C   UNL     1       2.639   0.594   0.000  0.00  0.00    +0.000 C 
ATOM      2  C   UNL     1       2.543  -0.261   0.000  0.00  0.00    +0.000 C 
ATOM      3  C   UNL     1       3.106  -0.880   0.000  0.00  0.00    +0.000 C 
ATOM      4  C   UNL     1       3.826  -0.449   0.000  0.00  0.00    +0.000 C 
ATOM      5  C   UNL     1       4.514  -0.904   0.000  0.00  0.00    +0.000 C 
ATOM      6  C   UNL     1       3.942   0.398   0.000  0.00  0.00    +0.000 C 
ATOM      7  C   UNL     1       4.800   0.409   0.000  0.00  0.00    +0.000 C 
ATOM      8  C   UNL     1       5.288   1.098   0.000  0.00  0.00    +0.000 C 
ATOM      9  C   UNL     1       4.803   1.796   0.000  0.00  0.00    +0.000 C 
ATOM     10  C   UNL     1       5.488   2.255   0.000  0.00  0.00    +0.000 C 
ATOM     11  O   UNL     1       4.346   2.505   0.000  0.00  0.00    +0.000 OA
ATOM     12  O   UNL     1       3.620   2.044   0.000  0.00  0.00    +0.000 OA
ATOM     13  C   UNL     1       3.381   1.093   0.000  0.00  0.00    +0.000 C 
ATOM     14  C   UNL     1       3.038   1.804   0.000  0.00  0.00    +0.000 C 
ATOM     15  O   UNL     1       2.223   2.074   0.000  0.00  0.00    +0.000 OA
ATOM     16  C   UNL     1       1.518   1.617   0.000  0.00  0.00    +0.000 C 
ATOM     17  C   UNL     1       1.806   0.827   0.000  0.00  0.00    +0.000 C 
ATOM     18  C   UNL     1       1.246   0.221   0.000  0.00  0.00    +0.000 C 
ATOM     19  O   UNL     1       3.970   1.583   0.000  0.00  0.00    +0.000 OA
ENDROOT
BRANCH  16  20
ATOM     20  N   UNL     1       0.735   1.878   0.000  0.00  0.00    +0.000 NA
ATOM     21  C   UNL     1       0.118   1.331   0.000  0.00  0.00    +0.000 C 
ATOM     22  C   UNL     1      -0.665   1.593   0.000  0.00  0.00    +0.000 C 
ATOM     23  S   UNL     1      -0.830   2.401   0.000  0.00  0.00    +0.000 S 
ATOM     24  O   UNL     1      -1.597   2.099   0.000  0.00  0.00    +0.000 OA
ATOM     25  O   UNL     1      -1.261   3.104   0.000  0.00  0.00    +0.000 OA
ATOM     26  C   UNL     1      -0.212   2.948   0.000  0.00  0.00    +0.000 C 
ATOM     27  C   UNL     1       0.571   2.687   0.000  0.00  0.00    +0.000 C 
ENDBRANCH  16  20
TORSDOF 1
