REMARK  Name = 
REMARK  3 active torsions:
REMARK  status: ('A' for Active; 'I' for Inactive)
REMARK    1  A    between atoms: C_16  and  C_24
REMARK    2  A    between atoms: C_18  and  O_28
REMARK    3  A    between atoms: C_24  and  O_28
REMARK                            x       y       z     vdW  Elec       q    Type
REMARK                         _______ _______ _______ _____ _____    ______ ____
ROOT
ATOM      1  C   UNL     1       2.031   1.736   0.000  0.00  0.00    +0.000 C 
ATOM      2  C   UNL     1       4.575  -0.849   0.000  0.00  0.00    +0.000 C 
ATOM      3  C   UNL     1       6.171   1.043   0.000  0.00  0.00    +0.000 A 
ATOM      4  C   UNL     1       3.763  -0.704   0.000  0.00  0.00    +0.000 C 
ATOM      5  C   UNL     1       5.359   1.188   0.000  0.00  0.00    +0.000 A 
ATOM      6  C   UNL     1       2.019  -0.289   0.000  0.00  0.00    +0.000 C 
ATOM      7  C   UNL     1       1.337   0.174   0.000  0.00  0.00    +0.000 C 
ATOM      8  C   UNL     1       3.735   1.479   0.000  0.00  0.00    +0.000 C 
ATOM      9  C   UNL     1       2.922   1.624   0.000  0.00  0.00    +0.000 C 
ATOM     10  C   UNL     1       5.919  -0.363   0.000  0.00  0.00    +0.000 A 
ATOM     11  C   UNL     1       5.107  -0.218   0.000  0.00  0.00    +0.000 A 
ATOM     12  C   UNL     1       6.451   0.267   0.000  0.00  0.00    +0.000 A 
ATOM     13  C   UNL     1       4.827   0.558   0.000  0.00  0.00    +0.000 A 
ATOM     14  C   UNL     1       4.015   0.703   0.000  0.00  0.00    +0.000 C 
ATOM     15  C   UNL     1       3.483   0.072   0.000  0.00  0.00    +0.000 C 
ATOM     16  C   UNL     1       2.671   0.217   0.000  0.00  0.00    +0.000 C 
ATOM     17  C   UNL     1       1.566   0.967   0.000  0.00  0.00    +0.000 C 
ATOM     18  C   UNL     1       2.390   0.993   0.000  0.00  0.00    +0.000 C 
ATOM     19  O   UNL     1       1.060   1.618   0.000  0.00  0.00    +0.000 OA
ENDROOT
BRANCH  12  20
ATOM     20  O   UNL     1       7.263   0.122   0.000  0.00  0.00    +0.000 OA
BRANCH  20  21
ATOM     21  C   UNL     1       7.543  -0.654   0.000  0.00  0.00    +0.000 C 
ATOM     22  O   UNL     1       7.012  -1.285   0.000  0.00  0.00    +0.000 OA
BRANCH  21  28
ATOM     23  C   UNL     1       9.980  -1.089   0.000  0.00  0.00    +0.000 A 
ATOM     24  C   UNL     1       9.700  -0.314   0.000  0.00  0.00    +0.000 A 
ATOM     25  C   UNL     1       9.448  -1.720   0.000  0.00  0.00    +0.000 A 
ATOM     26  C   UNL     1       8.887  -0.168   0.000  0.00  0.00    +0.000 A 
ATOM     27  C   UNL     1       8.636  -1.575   0.000  0.00  0.00    +0.000 A 
ATOM     28  C   UNL     1       8.356  -0.799   0.000  0.00  0.00    +0.000 A 
ENDBRANCH  21  28
ENDBRANCH  20  21
ENDBRANCH  12  20
TORSDOF 3
