REMARK  Name = 
REMARK  5 active torsions:
REMARK  status: ('A' for Active; 'I' for Inactive)
REMARK    1  A    between atoms: O_2  and  C_3
REMARK    2  A    between atoms: N_9  and  C_17
REMARK    3  A    between atoms: C_11  and  C_12
REMARK    4  A    between atoms: C_12  and  C_13
REMARK    5  A    between atoms: C_17  and  C_18
REMARK                            x       y       z     vdW  Elec       q    Type
REMARK                         _______ _______ _______ _____ _____    ______ ____
ROOT
ATOM      1  C   UNL     1       1.047  -0.719   0.000  0.00  0.00    +0.000 A 
ATOM      2  C   UNL     1       0.333  -1.132   0.000  0.00  0.00    +0.000 A 
ATOM      3  C   UNL     1      -0.382  -0.719   0.000  0.00  0.00    +0.000 A 
ATOM      4  C   UNL     1      -0.382   0.106   0.000  0.00  0.00    +0.000 A 
ATOM      5  C   UNL     1       0.333   0.518   0.000  0.00  0.00    +0.000 A 
ATOM      6  C   UNL     1       1.047   0.106   0.000  0.00  0.00    +0.000 A 
ATOM      7  N   UNL     1      -1.166   0.361   0.000  0.00  0.00    +0.000 N 
ATOM      8  C   UNL     1      -1.651  -0.307   0.000  0.00  0.00    +0.000 A 
ATOM      9  C   UNL     1      -1.166  -0.974   0.000  0.00  0.00    +0.000 A 
ATOM     10  C   UNL     1      -2.476  -0.307   0.000  0.00  0.00    +0.000 C 
ENDROOT
BRANCH   1  12
ATOM     11  C   UNL     1       2.476  -0.719   0.000  0.00  0.00    +0.000 C 
ATOM     12  O   UNL     1       1.762  -1.132   0.000  0.00  0.00    +0.000 OA
ENDBRANCH   1  12
BRANCH   9  13
ATOM     13  C   UNL     1      -1.421  -1.759   0.000  0.00  0.00    +0.000 C 
BRANCH  13  14
ATOM     14  C   UNL     1      -0.869  -2.372   0.000  0.00  0.00    +0.000 C 
ATOM     15  O   UNL     1      -0.062  -2.200   0.000  0.00  0.00    +0.000 OA
ATOM     16  O   UNL     1      -1.124  -3.156   0.000  0.00  0.00    +0.000 OA
ENDBRANCH  13  14
ENDBRANCH   9  13
BRANCH   7  17
ATOM     17  C   UNL     1      -1.421   1.145   0.000  0.00  0.00    +0.000 C 
BRANCH  17  18
ATOM     18  C   UNL     1      -0.869   1.759   0.000  0.00  0.00    +0.000 A 
ATOM     19  C   UNL     1      -1.124   2.543   0.000  0.00  0.00    +0.000 A 
ATOM     20  C   UNL     1      -0.572   3.156   0.000  0.00  0.00    +0.000 A 
ATOM     21  C   UNL     1       0.235   2.985   0.000  0.00  0.00    +0.000 A 
ATOM     22  C   UNL     1       0.490   2.200   0.000  0.00  0.00    +0.000 A 
ATOM     23  C   UNL     1      -0.062   1.587   0.000  0.00  0.00    +0.000 A 
ENDBRANCH  17  18
ENDBRANCH   7  17
TORSDOF 5
