REMARK  Name = 
REMARK  2 active torsions:
REMARK  status: ('A' for Active; 'I' for Inactive)
REMARK    1  A    between atoms: N_3  and  C_7
REMARK    2  A    between atoms: C_13  and  C_14
REMARK                            x       y       z     vdW  Elec       q    Type
REMARK                         _______ _______ _______ _____ _____    ______ ____
ROOT
ATOM      1  O   UNL     1      -1.431   0.030   0.000  0.00  0.00    +0.000 OA
ATOM      2  N   UNL     1      -0.084  -0.411   0.000  0.00  0.00    +0.000 N 
ATOM      3  C   UNL     1      -0.883  -0.578   0.000  0.00  0.00    +0.000 C 
ATOM      4  H   UNL     1       0.259  -0.791   0.000  0.00  0.00    +0.000 HD
ENDROOT
BRANCH   3   7
ATOM      5  N   UNL     1      -0.662  -2.024   0.000  0.00  0.00    +0.000 NA
ATOM      6  N   UNL     1      -1.141  -2.686   0.000  0.00  0.00    +0.000 N 
ATOM      7  C   UNL     1      -1.141  -1.362   0.000  0.00  0.00    +0.000 A 
ATOM      8  C   UNL     1      -1.918  -1.613   0.000  0.00  0.00    +0.000 A 
ATOM      9  C   UNL     1      -1.918  -2.435   0.000  0.00  0.00    +0.000 A 
ATOM     10  C   UNL     1      -2.626  -1.202   0.000  0.00  0.00    +0.000 A 
ATOM     11  C   UNL     1      -2.626  -2.846   0.000  0.00  0.00    +0.000 A 
ATOM     12  C   UNL     1      -3.341  -1.613   0.000  0.00  0.00    +0.000 A 
ATOM     13  C   UNL     1      -3.341  -2.435   0.000  0.00  0.00    +0.000 A 
ATOM     14  H   UNL     1      -0.982  -3.173   0.000  0.00  0.00    +0.000 HD
ENDBRANCH   3   7
BRANCH   2  17
ATOM     15  N   UNL     1       1.149   2.024   0.000  0.00  0.00    +0.000 NA
ATOM     16  C   UNL     1       1.522   1.286   0.000  0.00  0.00    +0.000 C 
ATOM     17  C   UNL     1       0.175   0.365   0.000  0.00  0.00    +0.000 C 
ATOM     18  C   UNL     1       2.001   2.915   0.000  0.00  0.00    +0.000 C 
ATOM     19  C   UNL     1       3.082   0.776   0.000  0.00  0.00    +0.000 C 
ATOM     20  C   UNL     1      -0.198   1.103   0.000  0.00  0.00    +0.000 C 
ATOM     21  C   UNL     1       1.218   3.173   0.000  0.00  0.00    +0.000 C 
ATOM     22  C   UNL     1       3.341   1.560   0.000  0.00  0.00    +0.000 C 
ENDBRANCH   2  17
TORSDOF 2
