REMARK  Name = 
REMARK  2 active torsions:
REMARK  status: ('A' for Active; 'I' for Inactive)
REMARK    1  A    between atoms: C_4  and  C_15
REMARK    2  A    between atoms: C_8  and  C_20
REMARK                            x       y       z     vdW  Elec       q    Type
REMARK                         _______ _______ _______ _____ _____    ______ ____
ROOT
ATOM      1  O   UNL     1       7.783   1.555   0.000  0.00  0.00    +0.000 OA
ATOM      2  O   UNL     1       2.094  -1.584   0.000  0.00  0.00    +0.000 OA
ATOM      3  N   UNL     1       2.807  -2.000   0.000  0.00  0.00    +0.000 NA
ATOM      4  C   UNL     1       7.256   0.519   0.000  0.00  0.00    +0.000 C 
ATOM      5  C   UNL     1       7.256  -0.306   0.000  0.00  0.00    +0.000 C 
ATOM      6  C   UNL     1       6.542  -0.719   0.000  0.00  0.00    +0.000 C 
ATOM      7  C   UNL     1       5.827  -0.306   0.000  0.00  0.00    +0.000 C 
ATOM      8  C   UNL     1       8.037   0.770   0.000  0.00  0.00    +0.000 C 
ATOM      9  C   UNL     1       6.542   0.931   0.000  0.00  0.00    +0.000 C 
ATOM     10  C   UNL     1       8.037  -0.558   0.000  0.00  0.00    +0.000 C 
ATOM     11  C   UNL     1       5.827   0.519   0.000  0.00  0.00    +0.000 C 
ATOM     12  C   UNL     1       5.077  -0.725   0.000  0.00  0.00    +0.000 C 
ATOM     13  C   UNL     1       8.518   0.106   0.000  0.00  0.00    +0.000 C 
ATOM     14  C   UNL     1       6.555  -1.578   0.000  0.00  0.00    +0.000 C 
ATOM     15  C   UNL     1       5.814  -2.014   0.000  0.00  0.00    +0.000 C 
ATOM     16  C   UNL     1       5.070  -1.584   0.000  0.00  0.00    +0.000 C 
ATOM     17  C   UNL     1       4.312  -0.259   0.000  0.00  0.00    +0.000 C 
ATOM     18  C   UNL     1       3.530  -0.695   0.000  0.00  0.00    +0.000 C 
ATOM     19  C   UNL     1       4.298  -2.037   0.000  0.00  0.00    +0.000 C 
ATOM     20  C   UNL     1       3.523  -1.590   0.000  0.00  0.00    +0.000 C 
ENDROOT
BRANCH   4  21
ATOM     21  C   UNL     1       7.256   1.344   0.000  0.00  0.00    +0.000 C 
ATOM     22  C   UNL     1       6.542   1.756   0.000  0.00  0.00    +0.000 C 
ENDBRANCH   4  21
BRANCH   8  23
ATOM     23  C   UNL     1       8.705   1.254   0.000  0.00  0.00    +0.000 C 
ATOM     24  C   UNL     1       9.373   1.738   0.000  0.00  0.00    +0.000 C 
ENDBRANCH   8  23
TORSDOF 2
