REMARK  Name = 
REMARK  6 active torsions:
REMARK  status: ('A' for Active; 'I' for Inactive)
REMARK    1  A    between atoms: P_2  and  O_7
REMARK    2  A    between atoms: P_2  and  O_10
REMARK    3  A    between atoms: P_3  and  O_10
REMARK    4  A    between atoms: O_7  and  C_26
REMARK    5  A    between atoms: N_17  and  C_24
REMARK    6  A    between atoms: C_25  and  C_26
REMARK                            x       y       z     vdW  Elec       q    Type
REMARK                         _______ _______ _______ _____ _____    ______ ____
ROOT
ATOM      1  P   UNL     1       2.502  -0.550   0.000  0.00  0.00    +0.000 P 
ATOM      2  O   UNL     1      -0.030  -0.546   0.000  0.00  0.00    +0.000 OA
ATOM      3  O   UNL     1       2.019  -1.213   0.000  0.00  0.00    +0.000 OA
ATOM      4  O   UNL     1       2.021   0.114   0.000  0.00  0.00    +0.000 OA
ATOM      5  O   UNL     1       3.170  -0.066   0.000  0.00  0.00    +0.000 OA
ATOM      6  O   UNL     1       3.168  -1.036   0.000  0.00  0.00    +0.000 OA
ATOM      7  C   UNL     1       1.239  -0.961   0.000  0.00  0.00    +0.000 C 
ATOM      8  C   UNL     1       1.240  -0.136   0.000  0.00  0.00    +0.000 C 
ATOM      9  C   UNL     1       0.454  -1.214   0.000  0.00  0.00    +0.000 C 
ATOM     10  C   UNL     1       0.456   0.121   0.000  0.00  0.00    +0.000 C 
ENDROOT
BRANCH   9  12
ATOM     11  O   UNL     1      -1.298  -4.312   0.000  0.00  0.00    +0.000 OA
ATOM     12  N   UNL     1       0.197  -1.998   0.000  0.00  0.00    +0.000 N 
ATOM     13  N   UNL     1       0.197  -3.326   0.000  0.00  0.00    +0.000 NA
ATOM     14  N   UNL     1      -1.298  -1.837   0.000  0.00  0.00    +0.000 N 
ATOM     15  N   UNL     1      -2.012  -3.075   0.000  0.00  0.00    +0.000 NA
ATOM     16  N   UNL     1      -2.727  -1.837   0.000  0.00  0.00    +0.000 N 
ATOM     17  C   UNL     1      -0.583  -2.250   0.000  0.00  0.00    +0.000 A 
ATOM     18  C   UNL     1       0.679  -2.662   0.000  0.00  0.00    +0.000 A 
ATOM     19  C   UNL     1      -0.583  -3.075   0.000  0.00  0.00    +0.000 A 
ATOM     20  C   UNL     1      -1.298  -3.487   0.000  0.00  0.00    +0.000 A 
ATOM     21  C   UNL     1      -2.012  -2.250   0.000  0.00  0.00    +0.000 A 
ATOM     22  H   UNL     1      -1.298  -1.326   0.000  0.00  0.00    +0.000 HD
ATOM     23  H   UNL     1      -3.170  -2.093   0.000  0.00  0.00    +0.000 HD
ATOM     24  H   UNL     1      -2.727  -1.326   0.000  0.00  0.00    +0.000 HD
ENDBRANCH   9  12
BRANCH  10  25
ATOM     25  C   UNL     1       0.202   0.906   0.000  0.00  0.00    +0.000 C 
BRANCH  25  26
ATOM     26  O   UNL     1       0.755   1.518   0.000  0.00  0.00    +0.000 OA
BRANCH  26  27
ATOM     27  P   UNL     1       0.502   2.303   0.000  0.00  0.00    +0.000 P 
ATOM     28  O   UNL     1       1.287   2.557   0.000  0.00  0.00    +0.000 OA
ATOM     29  O   UNL     1      -0.283   2.049   0.000  0.00  0.00    +0.000 OA
BRANCH  27  30
ATOM     30  O   UNL     1       0.248   3.088   0.000  0.00  0.00    +0.000 OA
BRANCH  30  31
ATOM     31  P   UNL     1       0.801   3.700   0.000  0.00  0.00    +0.000 P 
ATOM     32  O   UNL     1       0.189   4.253   0.000  0.00  0.00    +0.000 OA
ATOM     33  O   UNL     1       1.354   4.312   0.000  0.00  0.00    +0.000 OA
ATOM     34  O   UNL     1       1.413   3.147   0.000  0.00  0.00    +0.000 OA
ENDBRANCH  30  31
ENDBRANCH  27  30
ENDBRANCH  26  27
ENDBRANCH  25  26
ENDBRANCH  10  25
TORSDOF 6
