REMARK  Name = 
REMARK  9 active torsions:
REMARK  status: ('A' for Active; 'I' for Inactive)
REMARK    1  A    between atoms: S_1  and  C_4
REMARK    2  A    between atoms: S_2  and  C_7
REMARK    3  A    between atoms: C_3  and  C_5
REMARK    4  A    between atoms: C_5  and  C_22
REMARK    5  A    between atoms: N_9  and  C_30
REMARK    6  A    between atoms: N_9  and  C_31
REMARK    7  A    between atoms: C_23  and  N_25
REMARK    8  A    between atoms: N_25  and  C_32
REMARK    9  A    between atoms: N_25  and  C_33
REMARK                            x       y       z     vdW  Elec       q    Type
REMARK                         _______ _______ _______ _____ _____    ______ ____
ROOT
ATOM      1  C   UNL     1       0.361   0.417   0.000  0.00  0.00    +0.000 C 
ATOM      2  C   UNL     1      -0.366   0.839   0.000  0.00  0.00    +0.000 C 
ATOM      3  N   UNL     1      -2.519   2.099   0.000  0.00  0.00    +0.000 N 
ATOM      4  C   UNL     1      -1.796   1.677   0.000  0.00  0.00    +0.000 C 
ATOM      5  C   UNL     1      -1.079   0.441   0.000  0.00  0.00    +0.000 C 
ATOM      6  C   UNL     1      -0.366   1.648   0.000  0.00  0.00    +0.000 C 
ATOM      7  C   UNL     1      -1.122   2.075   0.000  0.00  0.00    +0.000 C 
ATOM      8  C   UNL     1      -1.806   0.863   0.000  0.00  0.00    +0.000 C 
ENDROOT
BRANCH   1   9
ATOM      9  C   UNL     1       1.059   0.815   0.000  0.00  0.00    +0.000 A 
ATOM     10  C   UNL     1       1.045   1.639   0.000  0.00  0.00    +0.000 A 
ATOM     11  C   UNL     1       2.509   0.819   0.000  0.00  0.00    +0.000 A 
ATOM     12  C   UNL     1       1.787   0.398   0.000  0.00  0.00    +0.000 A 
ATOM     13  C   UNL     1       1.767   2.070   0.000  0.00  0.00    +0.000 A 
ATOM     14  C   UNL     1       2.529   1.619   0.000  0.00  0.00    +0.000 A 
BRANCH  10  15
ATOM     15  S   UNL     1       0.342   2.056   0.000  0.00  0.00    +0.000 S 
ATOM     16  O   UNL     1      -0.395   2.478   0.000  0.00  0.00    +0.000 OA
ATOM     17  O   UNL     1       0.768   2.783   0.000  0.00  0.00    +0.000 OA
ATOM     18  O   UNL     1      -0.075   1.343   0.000  0.00  0.00    +0.000 OA
ENDBRANCH  10  15
BRANCH  11  19
ATOM     19  S   UNL     1       3.212   0.402   0.000  0.00  0.00    +0.000 S 
ATOM     20  O   UNL     1       3.930   0.815   0.000  0.00  0.00    +0.000 OA
ATOM     21  O   UNL     1       3.619  -0.310   0.000  0.00  0.00    +0.000 OA
ATOM     22  O   UNL     1       2.800  -0.310   0.000  0.00  0.00    +0.000 OA
ENDBRANCH  11  19
ENDBRANCH   1   9
BRANCH   1  23
ATOM     23  C   UNL     1       0.332  -0.431   0.000  0.00  0.00    +0.000 A 
ATOM     24  C   UNL     1       0.376  -2.075   0.000  0.00  0.00    +0.000 A 
ATOM     25  C   UNL     1      -0.381  -0.839   0.000  0.00  0.00    +0.000 A 
ATOM     26  C   UNL     1       1.059  -0.853   0.000  0.00  0.00    +0.000 A 
ATOM     27  C   UNL     1       1.059  -1.682   0.000  0.00  0.00    +0.000 A 
ATOM     28  C   UNL     1      -0.366  -1.663   0.000  0.00  0.00    +0.000 A 
BRANCH  24  29
ATOM     29  N   UNL     1       0.405  -2.919   0.000  0.00  0.00    +0.000 N 
BRANCH  29  30
ATOM     30  C   UNL     1      -0.279  -3.365   0.000  0.00  0.00    +0.000 C 
ATOM     31  C   UNL     1      -1.011  -2.991   0.000  0.00  0.00    +0.000 C 
ENDBRANCH  29  30
BRANCH  29  32
ATOM     32  C   UNL     1       1.118  -3.326   0.000  0.00  0.00    +0.000 C 
ATOM     33  C   UNL     1       1.869  -2.987   0.000  0.00  0.00    +0.000 C 
ENDBRANCH  29  32
ENDBRANCH  24  29
ENDBRANCH   1  23
BRANCH   3  34
ATOM     34  C   UNL     1      -3.222   1.712   0.000  0.00  0.00    +0.000 C 
ATOM     35  C   UNL     1      -3.930   2.143   0.000  0.00  0.00    +0.000 C 
ENDBRANCH   3  34
BRANCH   3  36
ATOM     36  C   UNL     1      -2.504   2.933   0.000  0.00  0.00    +0.000 C 
ATOM     37  C   UNL     1      -3.207   3.365   0.000  0.00  0.00    +0.000 C 
ENDBRANCH   3  36
TORSDOF 9
