REMARK  Name = 
REMARK  0 active torsions:
REMARK  status: ('A' for Active; 'I' for Inactive)
REMARK                            x       y       z     vdW  Elec       q    Type
REMARK                         _______ _______ _______ _____ _____    ______ ____
ROOT
ATOM      1  B   UNL     1       1.139  -0.030   0.000  0.00  0.00    +0.000 B 
ATOM      2  C   UNL     1       1.923  -0.285   0.000  0.00  0.00    +0.000 A 
ATOM      3  C   UNL     1       2.638   0.127   0.000  0.00  0.00    +0.000 A 
ATOM      4  C   UNL     1       3.352  -0.285   0.000  0.00  0.00    +0.000 A 
ATOM      5  C   UNL     1       3.352  -1.110   0.000  0.00  0.00    +0.000 A 
ATOM      6  C   UNL     1       2.638  -1.523   0.000  0.00  0.00    +0.000 A 
ATOM      7  C   UNL     1       1.923  -1.110   0.000  0.00  0.00    +0.000 A 
ATOM      8  C   UNL     1       1.139  -1.365   0.000  0.00  0.00    +0.000 C 
ATOM      9  O   UNL     1       0.654  -0.698   0.000  0.00  0.00    +0.000 OA
ATOM     10 CL   UNL     1       4.067  -1.523   0.000  0.00  0.00    +0.000 Cl
ATOM     11  O   UNL     1       0.884   0.754   0.000  0.00  0.00    +0.000 OA
ENDROOT
TORSDOF 0
