REMARK  Name = 
REMARK  126 active torsions:
REMARK  status: ('A' for Active; 'I' for Inactive)
REMARK    1  A    between atoms: C_2  and  C_4
REMARK    2  A    between atoms: C_4  and  C_5
REMARK    3  A    between atoms: C_5  and  N_6
REMARK    4  A    between atoms: C_5  and  C_82
REMARK    5  A    between atoms: C_7  and  C_9
REMARK    6  A    between atoms: C_9  and  C_10
REMARK    7  A    between atoms: C_9  and  N_17
REMARK    8  A    between atoms: C_10  and  C_11
REMARK    9  A    between atoms: C_18  and  C_20
REMARK   10  A    between atoms: C_25  and  C_27
REMARK   11  A    between atoms: C_27  and  C_28
REMARK   12  A    between atoms: C_27  and  N_33
REMARK   13  A    between atoms: C_28  and  C_29
REMARK   14  A    between atoms: C_29  and  C_30
REMARK   15  A    between atoms: C_34  and  C_36
REMARK   16  A    between atoms: C_36  and  N_37
REMARK   17  A    between atoms: C_36  and  C_79
REMARK   18  A    between atoms: C_38  and  C_40
REMARK   19  A    between atoms: C_45  and  C_47
REMARK   20  A    between atoms: C_47  and  C_48
REMARK   21  A    between atoms: C_47  and  N_55
REMARK   22  A    between atoms: C_48  and  C_49
REMARK   23  A    between atoms: C_49  and  C_50
REMARK   24  A    between atoms: C_50  and  N_51
REMARK   25  A    between atoms: C_56  and  CA_58
REMARK   26  A    between atoms: CA_58  and  C_59
REMARK   27  A    between atoms: CA_58  and  N_61
REMARK   28  A    between atoms: C_62  and  CA_64
REMARK   29  A    between atoms: CA_64  and  CB_65
REMARK   30  A    between atoms: CA_64  and  N_70
REMARK   31  A    between atoms: CB_65  and  CG_66
REMARK   32  A    between atoms: CG_66  and  CD_67
REMARK   33  A    between atoms: C_71  and  CA_73
REMARK   34  A    between atoms: CA_73  and  CB_75
REMARK   35  A    between atoms: CB_75  and  CG_76
REMARK   36  A    between atoms: N_84  and  C_85
REMARK   37  A    between atoms: C_85  and  C_86
REMARK   38  A    between atoms: C_85  and  C_90
REMARK   39  A    between atoms: C_86  and  C_87
REMARK   40  A    between atoms: N_92  and  C_93
REMARK   41  A    between atoms: C_93  and  C_94
REMARK   42  A    between atoms: C_93  and  C_98
REMARK   43  A    between atoms: C_94  and  C_95
REMARK   44  A    between atoms: N_100  and  C_101
REMARK   45  A    between atoms: C_101  and  C_102
REMARK   46  A    between atoms: C_101  and  C_105
REMARK   47  A    between atoms: N_107  and  C_108
REMARK   48  A    between atoms: C_108  and  C_109
REMARK   49  A    between atoms: C_108  and  C_112
REMARK   50  A    between atoms: C_118  and  C_119
REMARK   51  A    between atoms: N_121  and  C_122
REMARK   52  A    between atoms: C_122  and  C_123
REMARK   53  A    between atoms: C_122  and  C_130
REMARK   54  A    between atoms: C_123  and  C_124
REMARK   55  A    between atoms: C_124  and  C_125
REMARK   56  A    between atoms: C_125  and  N_126
REMARK   57  A    between atoms: N_132  and  C_133
REMARK   58  A    between atoms: C_133  and  C_134
REMARK   59  A    between atoms: C_133  and  C_139
REMARK   60  A    between atoms: C_134  and  C_135
REMARK   61  A    between atoms: C_135  and  C_136
REMARK   62  A    between atoms: C_136  and  C_137
REMARK   63  A    between atoms: C_145  and  C_146
REMARK   64  A    between atoms: N_148  and  C_149
REMARK   65  A    between atoms: C_149  and  C_150
REMARK   66  A    between atoms: C_149  and  C_157
REMARK   67  A    between atoms: C_150  and  C_151
REMARK   68  A    between atoms: C_151  and  C_152
REMARK   69  A    between atoms: C_152  and  N_153
REMARK   70  A    between atoms: C_163  and  C_164
REMARK   71  A    between atoms: C_170  and  C_171
REMARK   72  A    between atoms: N_173  and  C_174
REMARK   73  A    between atoms: C_174  and  C_175
REMARK   74  A    between atoms: C_174  and  C_182
REMARK   75  A    between atoms: C_175  and  C_176
REMARK   76  A    between atoms: C_176  and  C_177
REMARK   77  A    between atoms: C_177  and  N_178
REMARK   78  A    between atoms: N_184  and  C_185
REMARK   79  A    between atoms: C_185  and  C_186
REMARK   80  A    between atoms: C_185  and  C_193
REMARK   81  A    between atoms: C_186  and  C_187
REMARK   82  A    between atoms: C_187  and  C_188
REMARK   83  A    between atoms: C_188  and  N_189
REMARK   84  A    between atoms: N_195  and  C_196
REMARK   85  A    between atoms: C_196  and  C_197
REMARK   86  A    between atoms: C_196  and  C_204
REMARK   87  A    between atoms: C_197  and  C_198
REMARK   88  A    between atoms: C_198  and  C_199
REMARK   89  A    between atoms: C_199  and  N_200
REMARK   90  A    between atoms: N_206  and  C_207
REMARK   91  A    between atoms: C_207  and  C_208
REMARK   92  A    between atoms: C_207  and  C_213
REMARK   93  A    between atoms: C_208  and  C_209
REMARK   94  A    between atoms: C_209  and  C_210
REMARK   95  A    between atoms: N_215  and  C_216
REMARK   96  A    between atoms: C_216  and  C_217
REMARK   97  A    between atoms: C_216  and  C_224
REMARK   98  A    between atoms: C_217  and  C_218
REMARK   99  A    between atoms: C_218  and  C_219
REMARK  100  A    between atoms: C_219  and  N_220
REMARK  101  A    between atoms: N_226  and  C_227
REMARK  102  A    between atoms: C_227  and  C_228
REMARK  103  A    between atoms: C_227  and  C_235
REMARK  104  A    between atoms: C_228  and  C_229
REMARK  105  A    between atoms: C_229  and  C_230
REMARK  106  A    between atoms: C_230  and  N_231
REMARK  107  A    between atoms: N_237  and  C_238
REMARK  108  A    between atoms: C_238  and  C_239
REMARK  109  A    between atoms: C_238  and  C_244
REMARK  110  A    between atoms: C_239  and  C_240
REMARK  111  A    between atoms: C_240  and  C_241
REMARK  112  A    between atoms: C_241  and  C_242
REMARK  113  A    between atoms: N_246  and  C_247
REMARK  114  A    between atoms: C_247  and  C_248
REMARK  115  A    between atoms: C_247  and  C_253
REMARK  116  A    between atoms: C_248  and  C_249
REMARK  117  A    between atoms: C_249  and  C_250
REMARK  118  A    between atoms: C_250  and  C_251
REMARK  119  A    between atoms: N_255  and  C_256
REMARK  120  A    between atoms: C_256  and  C_257
REMARK  121  A    between atoms: C_256  and  C_264
REMARK  122  A    between atoms: C_257  and  C_258
REMARK  123  A    between atoms: C_258  and  C_259
REMARK  124  A    between atoms: C_259  and  N_260
REMARK  125  A    between atoms: N_266  and  C_267
REMARK  126  A    between atoms: C_267  and  C_268
REMARK                            x       y       z     vdW  Elec       q    Type
REMARK                         _______ _______ _______ _____ _____    ______ ____
ROOT
ATOM      1  C   UNL     1     -21.916 -16.613   0.000  0.00  0.00    +0.000 C 
ENDROOT
BRANCH   1   2
ATOM      2  C   UNL     1     -21.595 -17.373   0.000  0.00  0.00    +0.000 C 
ATOM      3  O   UNL     1     -22.092 -18.031   0.000  0.00  0.00    +0.000 OA
ATOM      4  N   UNL     1     -20.776 -17.475   0.000  0.00  0.00    +0.000 N 
ATOM      5  C   UNL     1     -20.212 -16.872   0.000  0.00  0.00    +0.000 C 
ATOM      6  C   UNL     1     -19.465 -17.223   0.000  0.00  0.00    +0.000 C 
ATOM      7  C   UNL     1     -19.567 -18.041   0.000  0.00  0.00    +0.000 C 
ATOM      8  C   UNL     1     -20.377 -18.197   0.000  0.00  0.00    +0.000 C 
BRANCH   8   9
ATOM      9  C   UNL     1     -20.727 -18.944   0.000  0.00  0.00    +0.000 C 
ATOM     10  O   UNL     1     -21.549 -19.015   0.000  0.00  0.00    +0.000 OA
ATOM     11  N   UNL     1     -20.255 -19.621   0.000  0.00  0.00    +0.000 NA
BRANCH  11  12
ATOM     12  C   UNL     1     -19.433 -19.550   0.000  0.00  0.00    +0.000 C 
BRANCH  12  13
ATOM     13  C   UNL     1     -18.961 -20.227   0.000  0.00  0.00    +0.000 C 
ATOM     14  O   UNL     1     -18.139 -20.157   0.000  0.00  0.00    +0.000 OA
ATOM     15  N   UNL     1     -19.311 -20.974   0.000  0.00  0.00    +0.000 N 
ATOM     16  C   UNL     1     -20.122 -21.130   0.000  0.00  0.00    +0.000 C 
ATOM     17  C   UNL     1     -20.224 -21.949   0.000  0.00  0.00    +0.000 C 
ATOM     18  C   UNL     1     -19.477 -22.299   0.000  0.00  0.00    +0.000 C 
ATOM     19  C   UNL     1     -18.913 -21.696   0.000  0.00  0.00    +0.000 C 
BRANCH  19  20
ATOM     20  C   UNL     1     -18.094 -21.799   0.000  0.00  0.00    +0.000 C 
ATOM     21  O   UNL     1     -17.596 -21.140   0.000  0.00  0.00    +0.000 OA
ATOM     22  N   UNL     1     -17.773 -22.558   0.000  0.00  0.00    +0.000 N 
ATOM     23  C   UNL     1     -18.200 -23.265   0.000  0.00  0.00    +0.000 C 
ATOM     24  C   UNL     1     -17.659 -23.889   0.000  0.00  0.00    +0.000 C 
ATOM     25  C   UNL     1     -16.899 -23.568   0.000  0.00  0.00    +0.000 C 
ATOM     26  C   UNL     1     -16.970 -22.746   0.000  0.00  0.00    +0.000 C 
BRANCH  26  27
ATOM     27  C   UNL     1     -16.346 -22.206   0.000  0.00  0.00    +0.000 C 
ATOM     28  O   UNL     1     -16.502 -21.395   0.000  0.00  0.00    +0.000 OA
ATOM     29  N   UNL     1     -15.566 -22.476   0.000  0.00  0.00    +0.000 NA
BRANCH  29  30
ATOM     30  C   UNL     1     -14.943 -21.936   0.000  0.00  0.00    +0.000 C 
BRANCH  30  31
ATOM     31  C   UNL     1     -14.163 -22.206   0.000  0.00  0.00    +0.000 C 
ATOM     32  O   UNL     1     -14.007 -23.016   0.000  0.00  0.00    +0.000 OA
ATOM     33  N   UNL     1     -13.540 -21.665   0.000  0.00  0.00    +0.000 NA
BRANCH  33  34
ATOM     34  C   UNL     1     -12.760 -21.936   0.000  0.00  0.00    +0.000 C 
BRANCH  34  35
ATOM     35  C   UNL     1     -12.136 -21.395   0.000  0.00  0.00    +0.000 C 
ATOM     36  O   UNL     1     -12.292 -20.585   0.000  0.00  0.00    +0.000 OA
ATOM     37  N   UNL     1     -11.357 -21.665   0.000  0.00  0.00    +0.000 NA
BRANCH  37  38
ATOM     38  C   UNL     1     -10.733 -21.125   0.000  0.00  0.00    +0.000 C 
BRANCH  38  39
ATOM     39  C   UNL     1      -9.954 -21.395   0.000  0.00  0.00    +0.000 C 
ATOM     40  O   UNL     1      -9.798 -22.206   0.000  0.00  0.00    +0.000 OA
ATOM     41  N   UNL     1      -9.330 -20.855   0.000  0.00  0.00    +0.000 NA
BRANCH  41  42
ATOM     42  C   UNL     1      -8.551 -21.125   0.000  0.00  0.00    +0.000 C 
BRANCH  42  43
ATOM     43  C   UNL     1      -7.927 -20.585   0.000  0.00  0.00    +0.000 C 
ATOM     44  O   UNL     1      -8.083 -19.775   0.000  0.00  0.00    +0.000 OA
ATOM     45  N   UNL     1      -7.147 -20.855   0.000  0.00  0.00    +0.000 NA
BRANCH  45  46
ATOM     46  C   UNL     1      -6.524 -20.315   0.000  0.00  0.00    +0.000 C 
BRANCH  46  47
ATOM     47  C   UNL     1      -5.744 -20.585   0.000  0.00  0.00    +0.000 C 
ATOM     48  O   UNL     1      -5.588 -21.395   0.000  0.00  0.00    +0.000 OA
ATOM     49  N   UNL     1      -5.120 -20.045   0.000  0.00  0.00    +0.000 NA
BRANCH  49  50
ATOM     50  C   UNL     1      -4.341 -20.315   0.000  0.00  0.00    +0.000 C 
BRANCH  50  51
ATOM     51  C   UNL     1      -3.717 -19.775   0.000  0.00  0.00    +0.000 C 
ATOM     52  O   UNL     1      -3.873 -18.965   0.000  0.00  0.00    +0.000 OA
ATOM     53  N   UNL     1      -2.938 -20.045   0.000  0.00  0.00    +0.000 NA
BRANCH  53  54
ATOM     54  C   UNL     1      -2.314 -19.505   0.000  0.00  0.00    +0.000 C 
BRANCH  54  55
ATOM     55  C   UNL     1      -1.535 -19.775   0.000  0.00  0.00    +0.000 C 
ATOM     56  O   UNL     1      -1.379 -20.585   0.000  0.00  0.00    +0.000 OA
ATOM     57  N   UNL     1      -0.911 -19.235   0.000  0.00  0.00    +0.000 NA
BRANCH  57  58
ATOM     58  C   UNL     1      -0.131 -19.505   0.000  0.00  0.00    +0.000 C 
BRANCH  58  59
ATOM     59  C   UNL     1       0.492 -18.965   0.000  0.00  0.00    +0.000 C 
ATOM     60  O   UNL     1       0.336 -18.155   0.000  0.00  0.00    +0.000 OA
ATOM     61  N   UNL     1       1.272 -19.235   0.000  0.00  0.00    +0.000 NA
BRANCH  61  62
ATOM     62  C   UNL     1       1.895 -18.695   0.000  0.00  0.00    +0.000 C 
BRANCH  62  63
ATOM     63  C   UNL     1       1.740 -17.885   0.000  0.00  0.00    +0.000 C 
ATOM     64  O   UNL     1       2.363 -17.345   0.000  0.00  0.00    +0.000 OA
ATOM     65  N   UNL     1       0.960 -17.615   0.000  0.00  0.00    +0.000 NA
BRANCH  65  66
ATOM     66  C   UNL     1       0.804 -16.805   0.000  0.00  0.00    +0.000 C 
BRANCH  66  67
ATOM     67  C   UNL     1       0.025 -16.535   0.000  0.00  0.00    +0.000 C 
ATOM     68  N   UNL     1      -0.599 -17.075   0.000  0.00  0.00    +0.000 NA
ATOM     69  O   UNL     1      -0.131 -15.724   0.000  0.00  0.00    +0.000 OA
ENDBRANCH  66  67
ENDBRANCH  65  66
ENDBRANCH  62  63
BRANCH  62  70
ATOM     70  C   UNL     1       2.675 -18.965   0.000  0.00  0.00    +0.000 C 
BRANCH  70  71
ATOM     71  C   UNL     1       3.299 -18.425   0.000  0.00  0.00    +0.000 C 
BRANCH  71  72
ATOM     72  C   UNL     1       4.078 -18.695   0.000  0.00  0.00    +0.000 C 
BRANCH  72  73
ATOM     73  N   UNL     1       4.702 -18.155   0.000  0.00  0.00    +0.000 NA
ATOM     74  C   UNL     1       5.481 -18.425   0.000  0.00  0.00    +0.000 C 
ATOM     75  N   UNL     1       6.105 -17.885   0.000  0.00  0.00    +0.000 NA
ATOM     76  N   UNL     1       5.637 -19.235   0.000  0.00  0.00    +0.000 NA
ENDBRANCH  72  73
ENDBRANCH  71  72
ENDBRANCH  70  71
ENDBRANCH  62  70
ENDBRANCH  61  62
ENDBRANCH  58  59
BRANCH  58  77
ATOM     77  C   UNL     1       0.025 -20.315   0.000  0.00  0.00    +0.000 C 
BRANCH  77  78
ATOM     78  C   UNL     1       0.804 -20.585   0.000  0.00  0.00    +0.000 C 
BRANCH  78  79
ATOM     79  C   UNL     1       0.960 -21.395   0.000  0.00  0.00    +0.000 C 
BRANCH  79  80
ATOM     80  C   UNL     1       1.740 -21.665   0.000  0.00  0.00    +0.000 C 
ATOM     81  N   UNL     1       1.895 -22.476   0.000  0.00  0.00    +0.000 NA
ENDBRANCH  79  80
ENDBRANCH  78  79
ENDBRANCH  77  78
ENDBRANCH  58  77
ENDBRANCH  57  58
ENDBRANCH  54  55
BRANCH  54  82
ATOM     82  C   UNL     1      -2.470 -18.695   0.000  0.00  0.00    +0.000 C 
BRANCH  82  83
ATOM     83  C   UNL     1      -3.250 -18.425   0.000  0.00  0.00    +0.000 C 
BRANCH  83  84
ATOM     84  C   UNL     1      -3.405 -17.615   0.000  0.00  0.00    +0.000 C 
BRANCH  84  85
ATOM     85  C   UNL     1      -4.185 -17.345   0.000  0.00  0.00    +0.000 C 
ATOM     86  N   UNL     1      -4.341 -16.535   0.000  0.00  0.00    +0.000 NA
ENDBRANCH  84  85
ENDBRANCH  83  84
ENDBRANCH  82  83
ENDBRANCH  54  82
ENDBRANCH  53  54
ENDBRANCH  50  51
BRANCH  50  87
ATOM     87  C   UNL     1      -4.185 -21.125   0.000  0.00  0.00    +0.000 C 
BRANCH  87  88
ATOM     88  C   UNL     1      -4.809 -21.665   0.000  0.00  0.00    +0.000 C 
BRANCH  88  89
ATOM     89  C   UNL     1      -4.653 -22.476   0.000  0.00  0.00    +0.000 C 
BRANCH  89  90
ATOM     90  N   UNL     1      -5.277 -23.016   0.000  0.00  0.00    +0.000 NA
ATOM     91  C   UNL     1      -5.120 -23.826   0.000  0.00  0.00    +0.000 C 
ATOM     92  N   UNL     1      -4.341 -24.096   0.000  0.00  0.00    +0.000 NA
ATOM     93  N   UNL     1      -5.744 -24.366   0.000  0.00  0.00    +0.000 NA
ENDBRANCH  89  90
ENDBRANCH  88  89
ENDBRANCH  87  88
ENDBRANCH  50  87
ENDBRANCH  49  50
ENDBRANCH  46  47
BRANCH  46  94
ATOM     94  C   UNL     1      -6.680 -19.505   0.000  0.00  0.00    +0.000 C 
BRANCH  94  95
ATOM     95  C   UNL     1      -6.056 -18.965   0.000  0.00  0.00    +0.000 C 
BRANCH  95  96
ATOM     96  C   UNL     1      -6.212 -18.155   0.000  0.00  0.00    +0.000 C 
BRANCH  96  97
ATOM     97  N   UNL     1      -5.588 -17.615   0.000  0.00  0.00    +0.000 NA
ATOM     98  C   UNL     1      -5.744 -16.805   0.000  0.00  0.00    +0.000 C 
ATOM     99  N   UNL     1      -6.524 -16.535   0.000  0.00  0.00    +0.000 NA
ATOM    100  N   UNL     1      -5.120 -16.265   0.000  0.00  0.00    +0.000 NA
ENDBRANCH  96  97
ENDBRANCH  95  96
ENDBRANCH  94  95
ENDBRANCH  46  94
ENDBRANCH  45  46
ENDBRANCH  42  43
BRANCH  42 101
ATOM    101  C   UNL     1      -8.395 -21.936   0.000  0.00  0.00    +0.000 C 
BRANCH 101 102
ATOM    102  C   UNL     1      -7.615 -22.206   0.000  0.00  0.00    +0.000 C 
BRANCH 102 103
ATOM    103  C   UNL     1      -7.459 -23.016   0.000  0.00  0.00    +0.000 C 
ATOM    104  N   UNL     1      -8.083 -23.556   0.000  0.00  0.00    +0.000 NA
ATOM    105  O   UNL     1      -6.680 -23.286   0.000  0.00  0.00    +0.000 OA
ENDBRANCH 102 103
ENDBRANCH 101 102
ENDBRANCH  42 101
ENDBRANCH  41  42
ENDBRANCH  38  39
BRANCH  38 106
ATOM    106  C   UNL     1     -10.889 -20.315   0.000  0.00  0.00    +0.000 C 
BRANCH 106 107
ATOM    107  C   UNL     1     -10.266 -19.775   0.000  0.00  0.00    +0.000 C 
BRANCH 107 108
ATOM    108  C   UNL     1     -10.421 -18.965   0.000  0.00  0.00    +0.000 C 
BRANCH 108 109
ATOM    109  N   UNL     1      -9.798 -18.425   0.000  0.00  0.00    +0.000 NA
ATOM    110  C   UNL     1      -9.954 -17.615   0.000  0.00  0.00    +0.000 C 
ATOM    111  N   UNL     1     -10.733 -17.345   0.000  0.00  0.00    +0.000 NA
ATOM    112  N   UNL     1      -9.330 -17.075   0.000  0.00  0.00    +0.000 NA
ENDBRANCH 108 109
ENDBRANCH 107 108
ENDBRANCH 106 107
ENDBRANCH  38 106
ENDBRANCH  37  38
ENDBRANCH  34  35
BRANCH  34 113
ATOM    113  C   UNL     1     -12.604 -22.746   0.000  0.00  0.00    +0.000 C 
BRANCH 113 114
ATOM    114  C   UNL     1     -13.228 -23.286   0.000  0.00  0.00    +0.000 C 
BRANCH 114 115
ATOM    115  C   UNL     1     -13.072 -24.096   0.000  0.00  0.00    +0.000 C 
BRANCH 115 116
ATOM    116  N   UNL     1     -13.696 -24.636   0.000  0.00  0.00    +0.000 NA
ATOM    117  C   UNL     1     -13.540 -25.446   0.000  0.00  0.00    +0.000 C 
ATOM    118  N   UNL     1     -12.760 -25.716   0.000  0.00  0.00    +0.000 NA
ATOM    119  N   UNL     1     -14.163 -25.986   0.000  0.00  0.00    +0.000 NA
ENDBRANCH 115 116
ENDBRANCH 114 115
ENDBRANCH 113 114
ENDBRANCH  34 113
ENDBRANCH  33  34
ENDBRANCH  30  31
BRANCH  30 120
ATOM    120  C   UNL     1     -15.099 -21.125   0.000  0.00  0.00    +0.000 C 
BRANCH 120 121
ATOM    121  C   UNL     1     -14.475 -20.585   0.000  0.00  0.00    +0.000 C 
BRANCH 121 122
ATOM    122  C   UNL     1     -14.631 -19.775   0.000  0.00  0.00    +0.000 C 
BRANCH 122 123
ATOM    123  N   UNL     1     -14.007 -19.235   0.000  0.00  0.00    +0.000 NA
ATOM    124  C   UNL     1     -14.163 -18.425   0.000  0.00  0.00    +0.000 C 
ATOM    125  N   UNL     1     -14.943 -18.155   0.000  0.00  0.00    +0.000 NA
ATOM    126  N   UNL     1     -13.540 -17.885   0.000  0.00  0.00    +0.000 NA
ENDBRANCH 122 123
ENDBRANCH 121 122
ENDBRANCH 120 121
ENDBRANCH  30 120
ENDBRANCH  29  30
ENDBRANCH  26  27
ENDBRANCH  19  20
ENDBRANCH  12  13
BRANCH  12 127
ATOM    127  C   UNL     1     -19.083 -18.803   0.000  0.00  0.00    +0.000 C 
BRANCH 127 128
ATOM    128  C   UNL     1     -18.261 -18.733   0.000  0.00  0.00    +0.000 C 
BRANCH 128 129
ATOM    129  C   UNL     1     -17.911 -17.986   0.000  0.00  0.00    +0.000 C 
BRANCH 129 130
ATOM    130  N   UNL     1     -17.089 -17.916   0.000  0.00  0.00    +0.000 NA
ATOM    131  C   UNL     1     -16.739 -17.169   0.000  0.00  0.00    +0.000 C 
ATOM    132  N   UNL     1     -17.211 -16.492   0.000  0.00  0.00    +0.000 NA
ATOM    133  N   UNL     1     -15.917 -17.098   0.000  0.00  0.00    +0.000 NA
ENDBRANCH 129 130
ENDBRANCH 128 129
ENDBRANCH 127 128
ENDBRANCH  12 127
ENDBRANCH  11  12
ENDBRANCH   8   9
ENDBRANCH   1   2
BRANCH   1 136
ATOM    134  C   UNL     1     -23.055 -15.751   0.000  0.00  0.00    +0.000 C 
ATOM    135  O   UNL     1     -22.557 -15.093   0.000  0.00  0.00    +0.000 OA
ATOM    136  N   UNL     1     -22.734 -16.511   0.000  0.00  0.00    +0.000 NA
BRANCH 134 137
ATOM    137  C   UNL     1     -23.874 -15.649   0.000  0.00  0.00    +0.000 C 
BRANCH 137 140
ATOM    138  C   UNL     1     -25.013 -14.786   0.000  0.00  0.00    +0.000 C 
ATOM    139  O   UNL     1     -24.774 -15.576   0.000  0.00  0.00    +0.000 OA
ATOM    140  N   UNL     1     -24.195 -14.889   0.000  0.00  0.00    +0.000 NA
BRANCH 138 147
ATOM    141  C   UNL     1     -26.761 -14.379   0.000  0.00  0.00    +0.000 C 
ATOM    142  O   UNL     1     -27.541 -14.109   0.000  0.00  0.00    +0.000 OA
ATOM    143  N   UNL     1     -26.138 -13.839   0.000  0.00  0.00    +0.000 N 
ATOM    144  C   UNL     1     -26.208 -13.017   0.000  0.00  0.00    +0.000 C 
ATOM    145  C   UNL     1     -25.448 -12.696   0.000  0.00  0.00    +0.000 C 
ATOM    146  C   UNL     1     -24.908 -13.320   0.000  0.00  0.00    +0.000 C 
ATOM    147  C   UNL     1     -25.334 -14.026   0.000  0.00  0.00    +0.000 C 
BRANCH 141 148
ATOM    148  C   UNL     1     -26.605 -15.190   0.000  0.00  0.00    +0.000 C 
BRANCH 148 151
ATOM    149  C   UNL     1     -28.009 -15.460   0.000  0.00  0.00    +0.000 C 
ATOM    150  O   UNL     1     -28.165 -14.649   0.000  0.00  0.00    +0.000 OA
ATOM    151  N   UNL     1     -27.229 -15.730   0.000  0.00  0.00    +0.000 NA
BRANCH 149 152
ATOM    152  C   UNL     1     -28.632 -16.000   0.000  0.00  0.00    +0.000 C 
BRANCH 152 155
ATOM    153  C   UNL     1     -30.035 -16.270   0.000  0.00  0.00    +0.000 C 
ATOM    154  O   UNL     1     -29.880 -17.080   0.000  0.00  0.00    +0.000 OA
ATOM    155  N   UNL     1     -29.412 -15.730   0.000  0.00  0.00    +0.000 NA
BRANCH 153 156
ATOM    156  C   UNL     1     -30.815 -16.000   0.000  0.00  0.00    +0.000 C 
BRANCH 156 159
ATOM    157  C   UNL     1     -32.218 -16.270   0.000  0.00  0.00    +0.000 C 
ATOM    158  O   UNL     1     -32.374 -15.460   0.000  0.00  0.00    +0.000 OA
ATOM    159  N   UNL     1     -31.439 -16.540   0.000  0.00  0.00    +0.000 NA
BRANCH 157 160
ATOM    160  C   UNL     1     -32.842 -16.810   0.000  0.00  0.00    +0.000 C 
BRANCH 160 163
ATOM    161  C   UNL     1     -33.310 -18.160   0.000  0.00  0.00    +0.000 C 
ATOM    162  O   UNL     1     -33.154 -18.970   0.000  0.00  0.00    +0.000 OA
ATOM    163  N   UNL     1     -32.686 -17.620   0.000  0.00  0.00    +0.000 NA
BRANCH 161 164
ATOM    164  C   UNL     1     -34.089 -17.890   0.000  0.00  0.00    +0.000 C 
BRANCH 164 165
ATOM    165  N   UNL     1     -34.713 -18.430   0.000  0.00  0.00    +0.000 NA
ATOM    166  C   UNL     1     -35.492 -18.160   0.000  0.00  0.00    +0.000 C 
ATOM    167  O   UNL     1     -36.095 -17.596   0.000  0.00  0.00    +0.000 OA
BRANCH 166 168
ATOM    168  C   UNL     1     -36.116 -18.700   0.000  0.00  0.00    +0.000 C 
BRANCH 168 169
ATOM    169  N   UNL     1     -35.960 -19.510   0.000  0.00  0.00    +0.000 NA
ATOM    170  C   UNL     1     -35.181 -19.780   0.000  0.00  0.00    +0.000 C 
ATOM    171  O   UNL     1     -34.557 -19.240   0.000  0.00  0.00    +0.000 OA
BRANCH 170 172
ATOM    172  C   UNL     1     -35.025 -20.590   0.000  0.00  0.00    +0.000 C 
ATOM    173  C   UNL     1     -35.588 -21.193   0.000  0.00  0.00    +0.000 C 
ATOM    174  C   UNL     1     -35.190 -21.915   0.000  0.00  0.00    +0.000 C 
ATOM    175  C   UNL     1     -34.380 -21.759   0.000  0.00  0.00    +0.000 C 
ATOM    176  N   UNL     1     -34.278 -20.941   0.000  0.00  0.00    +0.000 N 
ATOM    177  C   UNL     1     -33.555 -20.542   0.000  0.00  0.00    +0.000 C 
ATOM    178  O   UNL     1     -33.539 -19.717   0.000  0.00  0.00    +0.000 OA
BRANCH 177 179
ATOM    179  C   UNL     1     -32.849 -20.968   0.000  0.00  0.00    +0.000 C 
BRANCH 179 180
ATOM    180  N   UNL     1     -32.865 -21.793   0.000  0.00  0.00    +0.000 NA
ATOM    181  C   UNL     1     -32.158 -22.219   0.000  0.00  0.00    +0.000 C 
ATOM    182  O   UNL     1     -31.436 -21.820   0.000  0.00  0.00    +0.000 OA
BRANCH 181 183
ATOM    183  C   UNL     1     -32.174 -23.044   0.000  0.00  0.00    +0.000 C 
BRANCH 183 184
ATOM    184  N   UNL     1     -31.468 -23.470   0.000  0.00  0.00    +0.000 NA
ATOM    185  C   UNL     1     -31.484 -24.295   0.000  0.00  0.00    +0.000 C 
ATOM    186  O   UNL     1     -32.206 -24.694   0.000  0.00  0.00    +0.000 OA
BRANCH 185 187
ATOM    187  C   UNL     1     -30.778 -24.721   0.000  0.00  0.00    +0.000 C 
ATOM    188  C   UNL     1     -30.018 -24.400   0.000  0.00  0.00    +0.000 C 
ATOM    189  C   UNL     1     -29.477 -25.024   0.000  0.00  0.00    +0.000 C 
ATOM    190  C   UNL     1     -29.904 -25.730   0.000  0.00  0.00    +0.000 C 
ATOM    191  N   UNL     1     -30.707 -25.543   0.000  0.00  0.00    +0.000 N 
ATOM    192  C   UNL     1     -31.331 -26.083   0.000  0.00  0.00    +0.000 C 
ATOM    193  O   UNL     1     -32.110 -25.813   0.000  0.00  0.00    +0.000 OA
BRANCH 192 194
ATOM    194  C   UNL     1     -31.175 -26.893   0.000  0.00  0.00    +0.000 C 
BRANCH 194 195
ATOM    195  N   UNL     1     -31.799 -27.434   0.000  0.00  0.00    +0.000 NA
ATOM    196  C   UNL     1     -31.643 -28.244   0.000  0.00  0.00    +0.000 C 
ATOM    197  O   UNL     1     -30.863 -28.514   0.000  0.00  0.00    +0.000 OA
BRANCH 196 198
ATOM    198  CA  UNL     1     -32.266 -28.784   0.000  0.00  0.00    +0.000 C 
BRANCH 198 199
ATOM    199  N   ACE A   3     -32.110 -29.594   0.000  0.00  0.00    +0.000 NA
ATOM    200  C   UNL     1     -32.734 -30.134   0.000  0.00  0.00    +0.000 C 
ATOM    201  O   UNL     1     -33.514 -29.864   0.000  0.00  0.00    +0.000 OA
BRANCH 200 202
ATOM    202  CA  UNL     1     -32.578 -30.944   0.000  0.00  0.00    +0.000 C 
BRANCH 202 203
ATOM    203  N   UNL     1     -33.202 -31.484   0.000  0.00  0.00    +0.000 NA
ATOM    204  C   UNL     1     -33.046 -32.294   0.000  0.00  0.00    +0.000 C 
ATOM    205  O   UNL     1     -32.266 -32.564   0.000  0.00  0.00    +0.000 OA
BRANCH 204 206
ATOM    206  CA  UNL     1     -33.669 -32.834   0.000  0.00  0.00    +0.000 C 
ATOM    207  N   UNL     1     -34.449 -32.564   0.000  0.00  0.00    +0.000 NA
BRANCH 206 208
ATOM    208  CB  UNL     1     -33.514 -33.645   0.000  0.00  0.00    +0.000 C 
BRANCH 208 209
ATOM    209  CG  UNL     1     -34.137 -34.185   0.000  0.00  0.00    +0.000 C 
ATOM    210  OD1 UNL     1     -34.917 -33.915   0.000  0.00  0.00    +0.000 OA
ATOM    211  OD2 UNL     1     -33.981 -34.995   0.000  0.00  0.00    +0.000 OA
ENDBRANCH 208 209
ENDBRANCH 206 208
ENDBRANCH 204 206
ENDBRANCH 202 203
BRANCH 202 212
ATOM    212  CB  UNL     1     -31.799 -31.214   0.000  0.00  0.00    +0.000 C 
BRANCH 212 213
ATOM    213  CG  UNL     1     -31.175 -30.674   0.000  0.00  0.00    +0.000 C 
BRANCH 213 214
ATOM    214  CD  UNL     1     -30.395 -30.944   0.000  0.00  0.00    +0.000 C 
ATOM    215  NE2 UNL     1     -29.772 -30.404   0.000  0.00  0.00    +0.000 NA
ATOM    216  OE1 UNL     1     -30.239 -31.754   0.000  0.00  0.00    +0.000 OA
ENDBRANCH 213 214
ENDBRANCH 212 213
ENDBRANCH 202 212
ENDBRANCH 200 202
ENDBRANCH 198 199
BRANCH 198 217
ATOM    217  C   UNL     1     -33.046 -28.514   0.000  0.00  0.00    +0.000 C 
ATOM    218  O   UNL     1     -33.202 -27.704   0.000  0.00  0.00    +0.000 OA
ENDBRANCH 198 217
ENDBRANCH 196 198
ENDBRANCH 194 195
BRANCH 194 219
ATOM    219  C   UNL     1     -30.395 -27.164   0.000  0.00  0.00    +0.000 C 
BRANCH 219 220
ATOM    220  C   UNL     1     -30.239 -27.974   0.000  0.00  0.00    +0.000 C 
BRANCH 220 221
ATOM    221  C   UNL     1     -29.460 -28.244   0.000  0.00  0.00    +0.000 C 
BRANCH 221 222
ATOM    222  N   UNL     1     -29.304 -29.054   0.000  0.00  0.00    +0.000 NA
ATOM    223  C   UNL     1     -28.524 -29.324   0.000  0.00  0.00    +0.000 C 
ATOM    224  N   UNL     1     -27.901 -28.784   0.000  0.00  0.00    +0.000 NA
ATOM    225  N   UNL     1     -28.369 -30.134   0.000  0.00  0.00    +0.000 NA
ENDBRANCH 221 222
ENDBRANCH 220 221
ENDBRANCH 219 220
ENDBRANCH 194 219
ENDBRANCH 192 194
ENDBRANCH 185 187
ENDBRANCH 183 184
BRANCH 183 226
ATOM    226  C   UNL     1     -32.897 -23.443   0.000  0.00  0.00    +0.000 C 
ATOM    227  C   UNL     1     -32.913 -24.267   0.000  0.00  0.00    +0.000 C 
ATOM    228  C   UNL     1     -33.603 -23.016   0.000  0.00  0.00    +0.000 C 
ENDBRANCH 183 226
ENDBRANCH 181 183
ENDBRANCH 179 180
BRANCH 179 229
ATOM    229  C   UNL     1     -32.127 -20.570   0.000  0.00  0.00    +0.000 C 
BRANCH 229 230
ATOM    230  C   UNL     1     -31.420 -20.996   0.000  0.00  0.00    +0.000 C 
BRANCH 230 231
ATOM    231  C   UNL     1     -30.698 -20.597   0.000  0.00  0.00    +0.000 C 
ATOM    232  N   UNL     1     -30.682 -19.772   0.000  0.00  0.00    +0.000 NA
ATOM    233  O   UNL     1     -29.992 -21.023   0.000  0.00  0.00    +0.000 OA
ENDBRANCH 230 231
ENDBRANCH 229 230
ENDBRANCH 179 229
ENDBRANCH 177 179
ENDBRANCH 170 172
ENDBRANCH 168 169
BRANCH 168 234
ATOM    234  C   UNL     1     -36.896 -18.430   0.000  0.00  0.00    +0.000 C 
BRANCH 234 235
ATOM    235  C   UNL     1     -37.519 -18.970   0.000  0.00  0.00    +0.000 A 
ATOM    236  C   UNL     1     -37.363 -19.780   0.000  0.00  0.00    +0.000 A 
ATOM    237  C   UNL     1     -37.987 -20.320   0.000  0.00  0.00    +0.000 A 
ATOM    238  C   UNL     1     -38.767 -20.050   0.000  0.00  0.00    +0.000 A 
ATOM    239  C   UNL     1     -38.922 -19.240   0.000  0.00  0.00    +0.000 A 
ATOM    240  C   UNL     1     -38.299 -18.700   0.000  0.00  0.00    +0.000 A 
ENDBRANCH 234 235
ENDBRANCH 168 234
ENDBRANCH 166 168
ENDBRANCH 164 165
BRANCH 164 241
ATOM    241  C   UNL     1     -34.245 -17.080   0.000  0.00  0.00    +0.000 C 
BRANCH 241 243
ATOM    242  C   UNL     1     -35.181 -16.000   0.000  0.00  0.00    +0.000 C 
ATOM    243  C   UNL     1     -35.025 -16.810   0.000  0.00  0.00    +0.000 C 
ATOM    244  C   UNL     1     -35.648 -17.350   0.000  0.00  0.00    +0.000 C 
ENDBRANCH 241 243
ENDBRANCH 164 241
ENDBRANCH 161 164
ENDBRANCH 160 163
BRANCH 160 245
ATOM    245  C   UNL     1     -33.621 -16.540   0.000  0.00  0.00    +0.000 C 
BRANCH 245 246
ATOM    246  C   UNL     1     -33.777 -15.730   0.000  0.00  0.00    +0.000 C 
ATOM    247  N   UNL     1     -34.557 -15.460   0.000  0.00  0.00    +0.000 NA
ATOM    248  O   UNL     1     -33.154 -15.190   0.000  0.00  0.00    +0.000 OA
ENDBRANCH 245 246
ENDBRANCH 160 245
ENDBRANCH 157 160
ENDBRANCH 156 159
BRANCH 156 249
ATOM    249  C   UNL     1     -30.971 -15.190   0.000  0.00  0.00    +0.000 C 
BRANCH 249 250
ATOM    250  C   UNL     1     -30.347 -14.649   0.000  0.00  0.00    +0.000 C 
ATOM    251  C   UNL     1     -30.503 -13.839   0.000  0.00  0.00    +0.000 C 
ATOM    252  C   UNL     1     -29.568 -14.919   0.000  0.00  0.00    +0.000 C 
ENDBRANCH 249 250
ENDBRANCH 156 249
ENDBRANCH 153 156
ENDBRANCH 152 155
BRANCH 152 253
ATOM    253  C   UNL     1     -28.476 -16.810   0.000  0.00  0.00    +0.000 C 
ATOM    254  C   UNL     1     -29.100 -17.350   0.000  0.00  0.00    +0.000 C 
ATOM    255  O   UNL     1     -27.697 -17.080   0.000  0.00  0.00    +0.000 OA
ENDBRANCH 152 253
ENDBRANCH 149 152
ENDBRANCH 148 151
BRANCH 148 256
ATOM    256  C   UNL     1     -25.826 -15.460   0.000  0.00  0.00    +0.000 C 
ATOM    257  C   UNL     1     -25.066 -15.139   0.000  0.00  0.00    +0.000 C 
ATOM    258  O   UNL     1     -25.670 -16.270   0.000  0.00  0.00    +0.000 OA
ENDBRANCH 148 256
ENDBRANCH 141 148
ENDBRANCH 138 147
ENDBRANCH 137 140
BRANCH 137 259
ATOM    259  C   UNL     1     -24.372 -16.306   0.000  0.00  0.00    +0.000 C 
BRANCH 259 260
ATOM    260  C   UNL     1     -24.050 -17.067   0.000  0.00  0.00    +0.000 C 
BRANCH 260 261
ATOM    261  C   UNL     1     -24.548 -17.724   0.000  0.00  0.00    +0.000 C 
BRANCH 261 262
ATOM    262  N   UNL     1     -24.227 -18.484   0.000  0.00  0.00    +0.000 NA
ATOM    263  C   UNL     1     -24.725 -19.142   0.000  0.00  0.00    +0.000 C 
ATOM    264  N   UNL     1     -24.404 -19.902   0.000  0.00  0.00    +0.000 NA
ATOM    265  N   UNL     1     -25.544 -19.040   0.000  0.00  0.00    +0.000 NA
ENDBRANCH 261 262
ENDBRANCH 260 261
ENDBRANCH 259 260
ENDBRANCH 137 259
ENDBRANCH 134 137
ENDBRANCH   1 136
BRANCH   1 266
ATOM    266  C   UNL     1     -21.418 -15.955   0.000  0.00  0.00    +0.000 C 
BRANCH 266 267
ATOM    267  C   UNL     1     -21.739 -15.195   0.000  0.00  0.00    +0.000 C 
BRANCH 267 268
ATOM    268  C   UNL     1     -21.241 -14.537   0.000  0.00  0.00    +0.000 C 
BRANCH 268 269
ATOM    269  C   UNL     1     -21.562 -13.777   0.000  0.00  0.00    +0.000 C 
ATOM    270  N   UNL     1     -21.064 -13.119   0.000  0.00  0.00    +0.000 NA
ENDBRANCH 268 269
ENDBRANCH 267 268
ENDBRANCH 266 267
ENDBRANCH   1 266
TORSDOF 126
