REMARK  Name = 
REMARK  1 active torsions:
REMARK  status: ('A' for Active; 'I' for Inactive)
REMARK    1  A    between atoms: C_3  and  C_9
REMARK                            x       y       z     vdW  Elec       q    Type
REMARK                         _______ _______ _______ _____ _____    ______ ____
ROOT
ATOM      1  C   UNL     1      -0.722   0.190   0.000  0.00  0.00    +0.000 A 
ATOM      2  O   UNL     1       0.000   0.608   0.000  0.00  0.00    +0.000 OA
ATOM      3  C   UNL     1       0.703   0.190   0.000  0.00  0.00    +0.000 A 
ATOM      4  C   UNL     1      -0.722  -0.627   0.000  0.00  0.00    +0.000 A 
ATOM      5  C   UNL     1       0.703  -0.627   0.000  0.00  0.00    +0.000 A 
ATOM      6  C   UNL     1       0.000  -1.026   0.000  0.00  0.00    +0.000 A 
ATOM      7  C   UNL     1      -1.425   0.608   0.000  0.00  0.00    +0.000 A 
ATOM      8  C   UNL     1      -1.425  -1.026   0.000  0.00  0.00    +0.000 A 
ATOM      9  O   UNL     1       0.000  -1.843   0.000  0.00  0.00    +0.000 OA
ATOM     10  C   UNL     1      -2.147   0.190   0.000  0.00  0.00    +0.000 A 
ATOM     11  C   UNL     1      -2.147  -0.627   0.000  0.00  0.00    +0.000 A 
ATOM     12  C   UNL     1      -1.425   1.444   0.000  0.00  0.00    +0.000 A 
ATOM     13  C   UNL     1      -2.850   0.608   0.000  0.00  0.00    +0.000 A 
ATOM     14  C   UNL     1      -2.147   1.843   0.000  0.00  0.00    +0.000 A 
ATOM     15  C   UNL     1      -2.850   1.444   0.000  0.00  0.00    +0.000 A 
ENDROOT
BRANCH   3  16
ATOM     16  C   UNL     1       1.406   0.608   0.000  0.00  0.00    +0.000 A 
ATOM     17  C   UNL     1       1.406   1.444   0.000  0.00  0.00    +0.000 A 
ATOM     18  C   UNL     1       2.128   0.190   0.000  0.00  0.00    +0.000 A 
ATOM     19  C   UNL     1       2.128   1.843   0.000  0.00  0.00    +0.000 A 
ATOM     20  C   UNL     1       2.850   0.608   0.000  0.00  0.00    +0.000 A 
ATOM     21  C   UNL     1       2.850   1.444   0.000  0.00  0.00    +0.000 A 
ENDBRANCH   3  16
TORSDOF 1
