REMARK  Name = 
REMARK  4 active torsions:
REMARK  status: ('A' for Active; 'I' for Inactive)
REMARK    1  A    between atoms: N_1  and  C_2
REMARK    2  A    between atoms: C_7  and  C_12
REMARK    3  A    between atoms: C_12  and  C_15
REMARK    4  A    between atoms: C_15  and  C_16
REMARK                            x       y       z     vdW  Elec       q    Type
REMARK                         _______ _______ _______ _____ _____    ______ ____
ROOT
ATOM      1  N   UNL     1      -0.847  -0.169   0.000  0.00  0.00    +0.000 N 
ATOM      2  C   UNL     1      -0.094  -0.504   0.000  0.00  0.00    +0.000 C 
ATOM      3  N   UNL     1      -0.761   0.651   0.000  0.00  0.00    +0.000 NA
ATOM      4  C   UNL     1       0.458   0.108   0.000  0.00  0.00    +0.000 C 
ATOM      5  O   UNL     1       0.078  -1.312   0.000  0.00  0.00    +0.000 OA
ATOM      6  C   UNL     1       0.046   0.823   0.000  0.00  0.00    +0.000 C 
ATOM      7  O   UNL     1       0.381   1.577   0.000  0.00  0.00    +0.000 OA
ENDROOT
BRANCH   1   8
ATOM      8  C   UNL     1      -1.562  -0.581   0.000  0.00  0.00    +0.000 A 
ATOM      9  C   UNL     1      -2.276  -0.169   0.000  0.00  0.00    +0.000 A 
ATOM     10  C   UNL     1      -1.562  -1.406   0.000  0.00  0.00    +0.000 A 
ATOM     11  C   UNL     1      -2.991  -0.581   0.000  0.00  0.00    +0.000 A 
ATOM     12  C   UNL     1      -2.276  -1.819   0.000  0.00  0.00    +0.000 A 
ATOM     13  C   UNL     1      -2.991  -1.406   0.000  0.00  0.00    +0.000 A 
ENDBRANCH   1   8
BRANCH   4  14
ATOM     14  C   UNL     1       1.279   0.022   0.000  0.00  0.00    +0.000 C 
BRANCH  14  15
ATOM     15  C   UNL     1       1.764   0.690   0.000  0.00  0.00    +0.000 C 
BRANCH  15  16
ATOM     16  C   UNL     1       2.584   0.603   0.000  0.00  0.00    +0.000 C 
ATOM     17  C   UNL     1       3.069   1.271   0.000  0.00  0.00    +0.000 C 
ENDBRANCH  15  16
ENDBRANCH  14  15
ENDBRANCH   4  14
TORSDOF 4
