REMARK  Name = 
REMARK  2 active torsions:
REMARK  status: ('A' for Active; 'I' for Inactive)
REMARK    1  A    between atoms: C_1  and  O_2
REMARK    2  A    between atoms: O_2  and  C_5
REMARK                            x       y       z     vdW  Elec       q    Type
REMARK                         _______ _______ _______ _____ _____    ______ ____
ROOT
ATOM      1  O   UNL     1      -0.047  -0.831   0.000  0.00  0.00    +0.000 OA
ENDROOT
BRANCH   1   2
ATOM      2  C   UNL     1       0.653  -0.407   0.000  0.00  0.00    +0.000 A 
ATOM      3  C   UNL     1       1.396  -0.822   0.000  0.00  0.00    +0.000 A 
ATOM      4  C   UNL     1       0.653   0.418   0.000  0.00  0.00    +0.000 A 
ATOM      5  C   UNL     1       2.087  -0.396   0.000  0.00  0.00    +0.000 A 
ATOM      6  C   UNL     1       1.367   0.831   0.000  0.00  0.00    +0.000 A 
ATOM      7  C   UNL     1       2.087   0.418   0.000  0.00  0.00    +0.000 A 
ATOM      8  C   UNL     1       2.830  -0.819   0.000  0.00  0.00    +0.000 C 
ENDBRANCH   1   2
BRANCH   1   9
ATOM      9  C   UNL     1      -0.778  -0.410   0.000  0.00  0.00    +0.000 A 
ATOM     10  C   UNL     1      -1.478  -0.831   0.000  0.00  0.00    +0.000 A 
ATOM     11  C   UNL     1      -0.778   0.415   0.000  0.00  0.00    +0.000 A 
ATOM     12  N   UNL     1      -2.195  -0.430   0.000  0.00  0.00    +0.000 NA
ATOM     13  N   UNL     1      -1.504   0.802   0.000  0.00  0.00    +0.000 NA
ATOM     14  C   UNL     1      -2.204   0.356   0.000  0.00  0.00    +0.000 A 
ATOM     15  O   UNL     1      -2.830   0.760   0.000  0.00  0.00    +0.000 OA
ENDBRANCH   1   9
TORSDOF 2
