REMARK  Name = 
REMARK  6 active torsions:
REMARK  status: ('A' for Active; 'I' for Inactive)
REMARK    1  A    between atoms: C_7  and  C_23
REMARK    2  A    between atoms: C_8  and  C_17
REMARK    3  A    between atoms: N_9  and  C_12
REMARK    4  A    between atoms: C_12  and  C_13
REMARK    5  A    between atoms: N_25  and  C_26
REMARK    6  A    between atoms: C_30  and  C_32
REMARK                            x       y       z     vdW  Elec       q    Type
REMARK                         _______ _______ _______ _____ _____    ______ ____
ROOT
ATOM      1  C   UNL     1      -0.715  -0.412   0.000  0.00  0.00    +0.000 A 
ATOM      2  C   UNL     1      -0.715  -1.238   0.000  0.00  0.00    +0.000 A 
ATOM      3  C   UNL     1       0.000  -1.650   0.000  0.00  0.00    +0.000 A 
ATOM      4  C   UNL     1       0.715  -1.238   0.000  0.00  0.00    +0.000 A 
ATOM      5  C   UNL     1       0.715  -0.412   0.000  0.00  0.00    +0.000 A 
ATOM      6  C   UNL     1       0.000   0.000   0.000  0.00  0.00    +0.000 A 
ATOM      7  C   UNL     1       1.429   0.000   0.000  0.00  0.00    +0.000 C 
ATOM      8  C   UNL     1       2.143  -0.412   0.000  0.00  0.00    +0.000 C 
ATOM      9  N   UNL     1       2.143  -1.238   0.000  0.00  0.00    +0.000 N 
ATOM     10  C   UNL     1       1.429  -1.650   0.000  0.00  0.00    +0.000 C 
ATOM     11  O   UNL     1       1.429  -2.475   0.000  0.00  0.00    +0.000 OA
ENDROOT
BRANCH   8  12
ATOM     12  C   UNL     1       2.858   0.000   0.000  0.00  0.00    +0.000 A 
ATOM     13  C   UNL     1       2.858   0.825   0.000  0.00  0.00    +0.000 A 
ATOM     14  C   UNL     1       3.572   1.238   0.000  0.00  0.00    +0.000 A 
ATOM     15  C   UNL     1       4.287   0.825   0.000  0.00  0.00    +0.000 A 
ATOM     16  N   UNL     1       4.287   0.000   0.000  0.00  0.00    +0.000 NA
ATOM     17  C   UNL     1       3.572  -0.412   0.000  0.00  0.00    +0.000 A 
ENDBRANCH   8  12
BRANCH   7  18
ATOM     18  C   UNL     1       1.429   0.825   0.000  0.00  0.00    +0.000 C 
ATOM     19  O   UNL     1       0.715   1.238   0.000  0.00  0.00    +0.000 OA
ATOM     20  N   UNL     1       2.143   1.238   0.000  0.00  0.00    +0.000 NA
BRANCH  20  21
ATOM     21  C   UNL     1       2.143   2.062   0.000  0.00  0.00    +0.000 A 
ATOM     22  C   UNL     1       1.429   2.475   0.000  0.00  0.00    +0.000 A 
ATOM     23  C   UNL     1       1.429   3.300   0.000  0.00  0.00    +0.000 A 
ATOM     24  C   UNL     1       2.143   3.712   0.000  0.00  0.00    +0.000 A 
ATOM     25  C   UNL     1       2.858   3.300   0.000  0.00  0.00    +0.000 A 
ATOM     26  C   UNL     1       2.858   2.475   0.000  0.00  0.00    +0.000 A 
ATOM     27  F   UNL     1       2.143   4.537   0.000  0.00  0.00    +0.000 F 
BRANCH  25  28
ATOM     28  C   UNL     1       3.572   3.712   0.000  0.00  0.00    +0.000 C 
ATOM     29  N   UNL     1       4.287   4.125   0.000  0.00  0.00    +0.000 NA
ENDBRANCH  25  28
ENDBRANCH  20  21
ENDBRANCH   7  18
BRANCH   9  30
ATOM     30  C   UNL     1       2.858  -1.650   0.000  0.00  0.00    +0.000 C 
BRANCH  30  31
ATOM     31  C   UNL     1       2.858  -2.475   0.000  0.00  0.00    +0.000 C 
ATOM     32  F   UNL     1       2.858  -3.300   0.000  0.00  0.00    +0.000 F 
ATOM     33  F   UNL     1       3.683  -2.475   0.000  0.00  0.00    +0.000 F 
ATOM     34  F   UNL     1       2.033  -2.475   0.000  0.00  0.00    +0.000 F 
ENDBRANCH  30  31
ENDBRANCH   9  30
TORSDOF 6
