REMARK  Name = 
REMARK  7 active torsions:
REMARK  status: ('A' for Active; 'I' for Inactive)
REMARK    1  A    between atoms: C_2  and  C_10
REMARK    2  A    between atoms: C_13  and  O_16
REMARK    3  A    between atoms: O_16  and  C_17
REMARK    4  A    between atoms: C_17  and  C_18
REMARK    5  A    between atoms: C_18  and  N_19
REMARK    6  A    between atoms: N_19  and  C_20
REMARK    7  A    between atoms: N_19  and  C_22
REMARK                            x       y       z     vdW  Elec       q    Type
REMARK                         _______ _______ _______ _____ _____    ______ ____
ROOT
ATOM      1  C   UNL     1      -0.562  -1.016   0.000  0.00  0.00    +0.000 A 
ATOM      2  C   UNL     1      -0.150  -1.731   0.000  0.00  0.00    +0.000 A 
ATOM      3  C   UNL     1       0.675  -1.731   0.000  0.00  0.00    +0.000 A 
ATOM      4  C   UNL     1       1.088  -1.016   0.000  0.00  0.00    +0.000 A 
ATOM      5  C   UNL     1       0.675  -0.302   0.000  0.00  0.00    +0.000 A 
ATOM      6  C   UNL     1      -0.150  -0.302   0.000  0.00  0.00    +0.000 A 
ENDROOT
BRANCH   1   8
ATOM      7  S   UNL     1      -1.872  -0.349   0.000  0.00  0.00    +0.000 S 
ATOM      8  C   UNL     1      -1.387  -1.016   0.000  0.00  0.00    +0.000 A 
ATOM      9  N   UNL     1      -1.872  -1.684   0.000  0.00  0.00    +0.000 NA
ATOM     10  C   UNL     1      -2.657  -1.429   0.000  0.00  0.00    +0.000 A 
ATOM     11  C   UNL     1      -2.657  -0.604   0.000  0.00  0.00    +0.000 A 
ATOM     12  C   UNL     1      -3.371  -1.841   0.000  0.00  0.00    +0.000 A 
ATOM     13  C   UNL     1      -4.086  -1.428   0.000  0.00  0.00    +0.000 A 
ATOM     14  C   UNL     1      -4.086  -0.603   0.000  0.00  0.00    +0.000 A 
ATOM     15  C   UNL     1      -3.371  -0.191   0.000  0.00  0.00    +0.000 A 
ATOM     16 CL   UNL     1      -4.800  -1.841   0.000  0.00  0.00    +0.000 Cl
ENDBRANCH   1   8
BRANCH   4  17
ATOM     17  O   UNL     1       1.913  -1.016   0.000  0.00  0.00    +0.000 OA
BRANCH  17  18
ATOM     18  C   UNL     1       2.325  -0.302   0.000  0.00  0.00    +0.000 C 
BRANCH  18  19
ATOM     19  C   UNL     1       3.150  -0.302   0.000  0.00  0.00    +0.000 C 
BRANCH  19  20
ATOM     20  N   UNL     1       3.563   0.412   0.000  0.00  0.00    +0.000 NA
BRANCH  20  21
ATOM     21  C   UNL     1       3.150   1.127   0.000  0.00  0.00    +0.000 C 
ATOM     22  C   UNL     1       3.563   1.841   0.000  0.00  0.00    +0.000 C 
ENDBRANCH  20  21
BRANCH  20  23
ATOM     23  C   UNL     1       4.388   0.412   0.000  0.00  0.00    +0.000 C 
ATOM     24  C   UNL     1       4.800   1.127   0.000  0.00  0.00    +0.000 C 
ENDBRANCH  20  23
ENDBRANCH  19  20
ENDBRANCH  18  19
ENDBRANCH  17  18
ENDBRANCH   4  17
TORSDOF 7
