REMARK  Name = 
REMARK  3 active torsions:
REMARK  status: ('A' for Active; 'I' for Inactive)
REMARK    1  A    between atoms: C_4  and  C_6
REMARK    2  A    between atoms: C_14  and  C_16
REMARK    3  A    between atoms: C_20  and  C_26
REMARK                            x       y       z     vdW  Elec       q    Type
REMARK                         _______ _______ _______ _____ _____    ______ ____
ROOT
ATOM      1  C   UNL     1      -0.893   0.992   0.000  0.00  0.00    +0.000 A 
ATOM      2  N   UNL     1      -1.306   0.278   0.000  0.00  0.00    +0.000 N 
ATOM      3  C   UNL     1      -0.754  -0.336   0.000  0.00  0.00    +0.000 A 
ATOM      4  C   UNL     1      -1.009  -1.120   0.000  0.00  0.00    +0.000 A 
ATOM      5  N   UNL     1      -1.816  -1.292   0.000  0.00  0.00    +0.000 NA
ATOM      6  C   UNL     1      -2.368  -0.679   0.000  0.00  0.00    +0.000 A 
ATOM      7  C   UNL     1      -2.113   0.106   0.000  0.00  0.00    +0.000 A 
ATOM      8  N   UNL     1      -0.457  -1.733   0.000  0.00  0.00    +0.000 NA
ATOM      9  C   UNL     1       0.000   0.000   0.000  0.00  0.00    +0.000 A 
ATOM     10  N   UNL     1      -0.086   0.821   0.000  0.00  0.00    +0.000 NA
ENDROOT
BRANCH   9  11
ATOM     11  C   UNL     1       0.715  -0.412   0.000  0.00  0.00    +0.000 A 
ATOM     12  C   UNL     1       1.429   0.000   0.000  0.00  0.00    +0.000 A 
ATOM     13  C   UNL     1       2.143  -0.412   0.000  0.00  0.00    +0.000 A 
ATOM     14  N   UNL     1       2.858   0.000   0.000  0.00  0.00    +0.000 NA
ATOM     15  C   UNL     1       3.572  -0.412   0.000  0.00  0.00    +0.000 A 
ATOM     16  C   UNL     1       3.572  -1.238   0.000  0.00  0.00    +0.000 A 
ATOM     17  C   UNL     1       2.858  -1.650   0.000  0.00  0.00    +0.000 A 
ATOM     18  C   UNL     1       2.143  -1.238   0.000  0.00  0.00    +0.000 A 
ATOM     19  C   UNL     1       1.429  -1.650   0.000  0.00  0.00    +0.000 A 
ATOM     20  C   UNL     1       0.715  -1.238   0.000  0.00  0.00    +0.000 A 
BRANCH  15  21
ATOM     21  C   UNL     1       4.287   0.000   0.000  0.00  0.00    +0.000 A 
ATOM     22  C   UNL     1       4.287   0.825   0.000  0.00  0.00    +0.000 A 
ATOM     23  C   UNL     1       5.001   1.238   0.000  0.00  0.00    +0.000 A 
ATOM     24  C   UNL     1       5.716   0.825   0.000  0.00  0.00    +0.000 A 
ATOM     25  C   UNL     1       5.716   0.000   0.000  0.00  0.00    +0.000 A 
ATOM     26  C   UNL     1       5.001  -0.412   0.000  0.00  0.00    +0.000 A 
ENDBRANCH  15  21
ENDBRANCH   9  11
BRANCH   1  30
ATOM     27  C   UNL     1      -2.474   3.107   0.000  0.00  0.00    +0.000 C 
ATOM     28  C   UNL     1      -1.703   2.812   0.000  0.00  0.00    +0.000 C 
ATOM     29  C   UNL     1      -0.933   2.516   0.000  0.00  0.00    +0.000 C 
ATOM     30  C   UNL     1      -1.229   1.746   0.000  0.00  0.00    +0.000 C 
ATOM     31  C   UNL     1      -1.999   2.041   0.000  0.00  0.00    +0.000 C 
ATOM     32  O   UNL     1      -1.408   3.582   0.000  0.00  0.00    +0.000 OA
ENDBRANCH   1  30
TORSDOF 3
