REMARK  Name = 
REMARK  3 active torsions:
REMARK  status: ('A' for Active; 'I' for Inactive)
REMARK    1  A    between atoms: C_5  and  C_8
REMARK    2  A    between atoms: C_8  and  C_9
REMARK    3  A    between atoms: N_21  and  C_24
REMARK                            x       y       z     vdW  Elec       q    Type
REMARK                         _______ _______ _______ _____ _____    ______ ____
ROOT
ATOM      1  C   UNL     1       1.540  -1.016   0.000  0.00  0.00    +0.000 A 
ATOM      2  C   UNL     1       2.365  -1.016   0.000  0.00  0.00    +0.000 A 
ATOM      3  C   UNL     1       2.777  -0.302   0.000  0.00  0.00    +0.000 A 
ATOM      4  C   UNL     1       2.365   0.412   0.000  0.00  0.00    +0.000 A 
ATOM      5  C   UNL     1       1.540   0.412   0.000  0.00  0.00    +0.000 A 
ATOM      6  C   UNL     1       1.127  -0.302   0.000  0.00  0.00    +0.000 A 
ATOM      7  C   UNL     1       0.302  -0.302   0.000  0.00  0.00    +0.000 A 
ATOM      8  C   UNL     1      -0.111   0.412   0.000  0.00  0.00    +0.000 A 
ATOM      9  C   UNL     1       0.302   1.127   0.000  0.00  0.00    +0.000 A 
ATOM     10  C   UNL     1       1.127   1.127   0.000  0.00  0.00    +0.000 A 
ATOM     11  N   UNL     1       2.777   1.127   0.000  0.00  0.00    +0.000 NA
ATOM     12  C   UNL     1       3.602   1.127   0.000  0.00  0.00    +0.000 A 
ATOM     13  N   UNL     1       4.014   0.412   0.000  0.00  0.00    +0.000 N 
ATOM     14  C   UNL     1       3.602  -0.302   0.000  0.00  0.00    +0.000 A 
ATOM     15  O   UNL     1       4.014  -1.016   0.000  0.00  0.00    +0.000 OA
ENDROOT
BRANCH  13  16
ATOM     16  C   UNL     1       4.840   0.412   0.000  0.00  0.00    +0.000 C 
ATOM     17  C   UNL     1       5.252   1.127   0.000  0.00  0.00    +0.000 C 
ATOM     18  C   UNL     1       6.077   1.127   0.000  0.00  0.00    +0.000 C 
ATOM     19  C   UNL     1       6.489   0.412   0.000  0.00  0.00    +0.000 C 
ATOM     20  C   UNL     1       6.077  -0.302   0.000  0.00  0.00    +0.000 C 
ATOM     21  C   UNL     1       5.252  -0.302   0.000  0.00  0.00    +0.000 C 
ATOM     22  O   UNL     1       4.840  -1.016   0.000  0.00  0.00    +0.000 OA
ENDBRANCH  13  16
BRANCH   1  23
ATOM     23  C   UNL     1       1.127  -1.731   0.000  0.00  0.00    +0.000 C 
BRANCH  23  28
ATOM     24  C   UNL     1      -2.173  -1.731   0.000  0.00  0.00    +0.000 C 
ATOM     25  C   UNL     1      -1.348  -1.731   0.000  0.00  0.00    +0.000 A 
ATOM     26  C   UNL     1      -0.935  -1.016   0.000  0.00  0.00    +0.000 A 
ATOM     27  C   UNL     1      -0.111  -1.016   0.000  0.00  0.00    +0.000 A 
ATOM     28  C   UNL     1       0.302  -1.731   0.000  0.00  0.00    +0.000 A 
ATOM     29  C   UNL     1      -0.111  -2.445   0.000  0.00  0.00    +0.000 A 
ATOM     30  N   UNL     1      -0.935  -2.445   0.000  0.00  0.00    +0.000 NA
ENDBRANCH  23  28
ENDBRANCH   1  23
TORSDOF 3
