REMARK  Name = 
REMARK  18 active torsions:
REMARK  status: ('A' for Active; 'I' for Inactive)
REMARK    1  A    between atoms: C_1  and  C_2
REMARK    2  A    between atoms: C_1  and  C_3
REMARK    3  A    between atoms: C_1  and  N_4
REMARK    4  A    between atoms: C_2  and  C_5
REMARK    5  A    between atoms: C_3  and  C_6
REMARK    6  A    between atoms: C_6  and  C_10
REMARK    7  A    between atoms: C_7  and  C_12
REMARK    8  A    between atoms: C_10  and  C_16
REMARK    9  A    between atoms: C_10  and  N_17
REMARK   10  A    between atoms: C_12  and  N_18
REMARK   11  A    between atoms: C_12  and  C_19
REMARK   12  A    between atoms: C_16  and  C_21
REMARK   13  A    between atoms: C_22  and  O_28
REMARK   14  A    between atoms: O_28  and  C_34
REMARK   15  A    between atoms: N_30  and  C_35
REMARK   16  A    between atoms: C_34  and  C_38
REMARK   17  A    between atoms: C_35  and  C_39
REMARK   18  A    between atoms: C_46  and  C_48
REMARK                            x       y       z     vdW  Elec       q    Type
REMARK                         _______ _______ _______ _____ _____    ______ ____
ROOT
ATOM      1  C   UNL     1       0.628  -0.028   0.000  0.00  0.00    +0.000 C 
ENDROOT
BRANCH   1   2
ATOM      2  N   UNL     1      -0.085   0.378   0.000  0.00  0.00    +0.000 NA
ATOM      3  C   UNL     1      -0.799  -0.032   0.000  0.00  0.00    +0.000 C 
ATOM      4  O   UNL     1      -0.799  -0.857   0.000  0.00  0.00    +0.000 OA
BRANCH   3   5
ATOM      5  C   UNL     1      -1.513   0.374   0.000  0.00  0.00    +0.000 C 
BRANCH   5   6
ATOM      6  N   UNL     1      -2.231  -0.036   0.000  0.00  0.00    +0.000 NA
ATOM      7  C   UNL     1      -2.945   0.370   0.000  0.00  0.00    +0.000 C 
ATOM      8  N   UNL     1      -3.655  -0.041   0.000  0.00  0.00    +0.000 N 
ATOM      9  O   UNL     1      -2.945   1.199   0.000  0.00  0.00    +0.000 OA
ATOM     10  C   UNL     1      -3.655  -0.866   0.000  0.00  0.00    +0.000 C 
BRANCH   8  11
ATOM     11  C   UNL     1      -4.369   0.365   0.000  0.00  0.00    +0.000 C 
BRANCH  11  12
ATOM     12  C   UNL     1      -5.087  -0.045   0.000  0.00  0.00    +0.000 A 
ATOM     13  N   UNL     1      -5.882   0.169   0.000  0.00  0.00    +0.000 NA
ATOM     14  C   UNL     1      -5.085  -0.870   0.000  0.00  0.00    +0.000 A 
ATOM     15  C   UNL     1      -6.339  -0.523   0.000  0.00  0.00    +0.000 A 
ATOM     16  S   UNL     1      -5.818  -1.165   0.000  0.00  0.00    +0.000 S 
BRANCH  15  17
ATOM     17  C   UNL     1      -7.164  -0.521   0.000  0.00  0.00    +0.000 C 
ATOM     18  C   UNL     1      -7.609   0.172   0.000  0.00  0.00    +0.000 C 
ATOM     19  C   UNL     1      -7.540  -1.260   0.000  0.00  0.00    +0.000 C 
ENDBRANCH  15  17
ENDBRANCH  11  12
ENDBRANCH   8  11
ENDBRANCH   5   6
BRANCH   5  20
ATOM     20  C   UNL     1      -1.518   1.368   0.000  0.00  0.00    +0.000 C 
ATOM     21  C   UNL     1      -0.799   1.783   0.000  0.00  0.00    +0.000 C 
ATOM     22  C   UNL     1      -2.236   1.783   0.000  0.00  0.00    +0.000 C 
ENDBRANCH   5  20
ENDBRANCH   3   5
ENDBRANCH   1   2
BRANCH   1  23
ATOM     23  C   UNL     1       1.347   0.383   0.000  0.00  0.00    +0.000 C 
BRANCH  23  24
ATOM     24  C   UNL     1       2.060  -0.023   0.000  0.00  0.00    +0.000 C 
ATOM     25  O   UNL     1       2.065  -0.848   0.000  0.00  0.00    +0.000 OA
BRANCH  24  26
ATOM     26  C   UNL     1       2.770   0.387   0.000  0.00  0.00    +0.000 C 
BRANCH  26  27
ATOM     27  N   UNL     1       3.484  -0.019   0.000  0.00  0.00    +0.000 NA
ATOM     28  C   UNL     1       4.202   0.391   0.000  0.00  0.00    +0.000 C 
ATOM     29  O   UNL     1       4.198   1.220   0.000  0.00  0.00    +0.000 OA
BRANCH  28  30
ATOM     30  O   UNL     1       4.916  -0.015   0.000  0.00  0.00    +0.000 OA
BRANCH  30  31
ATOM     31  C   UNL     1       5.630   0.395   0.000  0.00  0.00    +0.000 C 
BRANCH  31  32
ATOM     32  C   UNL     1       6.344  -0.011   0.000  0.00  0.00    +0.000 A 
ATOM     33  C   UNL     1       6.339  -0.836   0.000  0.00  0.00    +0.000 A 
ATOM     34  S   UNL     1       7.130   0.237   0.000  0.00  0.00    +0.000 S 
ATOM     35  N   UNL     1       7.122  -1.092   0.000  0.00  0.00    +0.000 NA
ATOM     36  C   UNL     1       7.609  -0.430   0.000  0.00  0.00    +0.000 A 
ENDBRANCH  31  32
ENDBRANCH  30  31
ENDBRANCH  28  30
ENDBRANCH  26  27
BRANCH  26  37
ATOM     37  C   UNL     1       2.770   1.216   0.000  0.00  0.00    +0.000 C 
BRANCH  37  38
ATOM     38  C   UNL     1       2.052   1.631   0.000  0.00  0.00    +0.000 A 
ATOM     39  C   UNL     1       2.052   2.456   0.000  0.00  0.00    +0.000 A 
ATOM     40  C   UNL     1       1.342   1.212   0.000  0.00  0.00    +0.000 A 
ATOM     41  C   UNL     1       1.338   2.866   0.000  0.00  0.00    +0.000 A 
ATOM     42  C   UNL     1       0.624   1.627   0.000  0.00  0.00    +0.000 A 
ATOM     43  C   UNL     1       0.624   2.452   0.000  0.00  0.00    +0.000 A 
ENDBRANCH  37  38
ENDBRANCH  26  37
ENDBRANCH  24  26
ENDBRANCH  23  24
ENDBRANCH   1  23
BRANCH   1  44
ATOM     44  C   UNL     1       0.633  -0.853   0.000  0.00  0.00    +0.000 C 
BRANCH  44  45
ATOM     45  C   UNL     1       1.214  -1.438   0.000  0.00  0.00    +0.000 A 
ATOM     46  C   UNL     1       0.795  -2.148   0.000  0.00  0.00    +0.000 A 
ATOM     47  C   UNL     1       2.035  -1.443   0.000  0.00  0.00    +0.000 A 
ATOM     48  C   UNL     1       1.206  -2.862   0.000  0.00  0.00    +0.000 A 
ATOM     49  C   UNL     1       2.445  -2.157   0.000  0.00  0.00    +0.000 A 
ATOM     50  C   UNL     1       2.026  -2.866   0.000  0.00  0.00    +0.000 A 
ENDBRANCH  44  45
ENDBRANCH   1  44
TORSDOF 18
