REMARK  Name = 
REMARK  5 active torsions:
REMARK  status: ('A' for Active; 'I' for Inactive)
REMARK    1  A    between atoms: C_15  and  C_16
REMARK    2  A    between atoms: C_17  and  C_23
REMARK    3  A    between atoms: C_18  and  C_20
REMARK    4  A    between atoms: C_19  and  C_20
REMARK    5  A    between atoms: C_24  and  N_26
REMARK                            x       y       z     vdW  Elec       q    Type
REMARK                         _______ _______ _______ _____ _____    ______ ____
ROOT
ATOM      1  C   UNL     1       2.143   2.062   0.000  0.00  0.00    +0.000 C 
ATOM      2  C   UNL     1       1.429   2.475   0.000  0.00  0.00    +0.000 C 
ENDROOT
BRANCH   2   8
ATOM      3  C   UNL     1       1.429   4.950   0.000  0.00  0.00    +0.000 A 
ATOM      4  C   UNL     1       0.715   4.537   0.000  0.00  0.00    +0.000 A 
ATOM      5  C   UNL     1       2.143   4.537   0.000  0.00  0.00    +0.000 A 
ATOM      6  C   UNL     1       0.715   3.712   0.000  0.00  0.00    +0.000 A 
ATOM      7  C   UNL     1       2.143   3.712   0.000  0.00  0.00    +0.000 A 
ATOM      8  C   UNL     1       1.429   3.300   0.000  0.00  0.00    +0.000 A 
ENDBRANCH   2   8
BRANCH   2  14
ATOM      9  C   UNL     1      -0.715   1.238   0.000  0.00  0.00    +0.000 A 
ATOM     10  C   UNL     1       0.000   0.825   0.000  0.00  0.00    +0.000 A 
ATOM     11  C   UNL     1      -0.715   2.062   0.000  0.00  0.00    +0.000 A 
ATOM     12  C   UNL     1       0.715   1.238   0.000  0.00  0.00    +0.000 A 
ATOM     13  C   UNL     1       0.000   2.475   0.000  0.00  0.00    +0.000 A 
ATOM     14  C   UNL     1       0.715   2.062   0.000  0.00  0.00    +0.000 A 
ENDBRANCH   2  14
BRANCH   1  15
ATOM     15  C   UNL     1       2.143   1.238   0.000  0.00  0.00    +0.000 C 
ATOM     16  N   UNL     1       1.429   0.825   0.000  0.00  0.00    +0.000 NA
BRANCH  16  24
ATOM     17  C   UNL     1      -0.715  -0.412   0.000  0.00  0.00    +0.000 A 
ATOM     18  C   UNL     1      -0.715  -1.238   0.000  0.00  0.00    +0.000 A 
ATOM     19  C   UNL     1       0.000   0.000   0.000  0.00  0.00    +0.000 A 
ATOM     20  C   UNL     1       0.000  -1.650   0.000  0.00  0.00    +0.000 A 
ATOM     21  C   UNL     1       0.715  -0.412   0.000  0.00  0.00    +0.000 A 
ATOM     22  C   UNL     1       0.715  -1.238   0.000  0.00  0.00    +0.000 A 
ATOM     23  C   UNL     1       2.143  -0.412   0.000  0.00  0.00    +0.000 A 
ATOM     24  C   UNL     1       1.429   0.000   0.000  0.00  0.00    +0.000 A 
ATOM     25  N   UNL     1       1.429  -1.650   0.000  0.00  0.00    +0.000 NA
ATOM     26  N   UNL     1       2.143  -1.238   0.000  0.00  0.00    +0.000 NA
BRANCH  23  27
ATOM     27  C   UNL     1       2.858   0.000   0.000  0.00  0.00    +0.000 C 
ATOM     28  N   UNL     1       3.572  -0.412   0.000  0.00  0.00    +0.000 NA
ENDBRANCH  23  27
ENDBRANCH  16  24
ENDBRANCH   1  15
TORSDOF 5
