REMARK  Name = 
REMARK  3 active torsions:
REMARK  status: ('A' for Active; 'I' for Inactive)
REMARK    1  A    between atoms: C_3  and  C_19
REMARK    2  A    between atoms: C_4  and  C_11
REMARK    3  A    between atoms: C_25  and  C_26
REMARK                            x       y       z     vdW  Elec       q    Type
REMARK                         _______ _______ _______ _____ _____    ______ ____
ROOT
ATOM      1  C   UNL     1       4.067   2.348   0.000  0.00  0.00    +0.000 C 
ATOM      2  C   UNL     1       3.352   1.935   0.000  0.00  0.00    +0.000 C 
ATOM      3  C   UNL     1       3.352   1.110   0.000  0.00  0.00    +0.000 C 
ATOM      4  C   UNL     1       2.638   0.698   0.000  0.00  0.00    +0.000 C 
ATOM      5  N   UNL     1       1.923   1.110   0.000  0.00  0.00    +0.000 N 
ATOM      6  C   UNL     1       1.923   1.935   0.000  0.00  0.00    +0.000 A 
ATOM      7  C   UNL     1       1.139   2.190   0.000  0.00  0.00    +0.000 A 
ATOM      8  C   UNL     1       0.654   1.523   0.000  0.00  0.00    +0.000 A 
ATOM      9  N   UNL     1       1.139   0.856   0.000  0.00  0.00    +0.000 NA
ATOM     10  N   UNL     1       2.638   2.348   0.000  0.00  0.00    +0.000 NA
ENDROOT
BRANCH   4  11
ATOM     11  C   UNL     1       2.638  -0.127   0.000  0.00  0.00    +0.000 A 
ATOM     12  C   UNL     1       3.352  -0.540   0.000  0.00  0.00    +0.000 A 
ATOM     13  C   UNL     1       3.352  -1.365   0.000  0.00  0.00    +0.000 A 
ATOM     14  C   UNL     1       2.638  -1.777   0.000  0.00  0.00    +0.000 A 
ATOM     15  C   UNL     1       1.923  -1.365   0.000  0.00  0.00    +0.000 A 
ATOM     16  C   UNL     1       1.923  -0.540   0.000  0.00  0.00    +0.000 A 
ATOM     17 CL   UNL     1       1.209  -1.777   0.000  0.00  0.00    +0.000 Cl
ATOM     18 CL   UNL     1       2.638  -2.602   0.000  0.00  0.00    +0.000 Cl
ENDBRANCH   4  11
BRANCH   3  19
ATOM     19  C   UNL     1       4.067   0.698   0.000  0.00  0.00    +0.000 C 
ATOM     20  O   UNL     1       4.067  -0.127   0.000  0.00  0.00    +0.000 OA
ATOM     21  N   UNL     1       4.781   1.110   0.000  0.00  0.00    +0.000 N 
ATOM     22  C   UNL     1       4.867   1.931   0.000  0.00  0.00    +0.000 C 
ATOM     23  C   UNL     1       5.674   2.103   0.000  0.00  0.00    +0.000 C 
ATOM     24  C   UNL     1       6.087   1.388   0.000  0.00  0.00    +0.000 C 
ATOM     25  C   UNL     1       5.535   0.775   0.000  0.00  0.00    +0.000 C 
BRANCH  25  26
ATOM     26  C   UNL     1       5.706  -0.032   0.000  0.00  0.00    +0.000 A 
ATOM     27  C   UNL     1       6.491  -0.287   0.000  0.00  0.00    +0.000 A 
ATOM     28  C   UNL     1       6.663  -1.094   0.000  0.00  0.00    +0.000 A 
ATOM     29  C   UNL     1       6.050  -1.646   0.000  0.00  0.00    +0.000 A 
ATOM     30  C   UNL     1       5.265  -1.391   0.000  0.00  0.00    +0.000 A 
ATOM     31  C   UNL     1       5.093  -0.584   0.000  0.00  0.00    +0.000 A 
ATOM     32  F   UNL     1       6.221  -2.453   0.000  0.00  0.00    +0.000 F 
ENDBRANCH  25  26
ENDBRANCH   3  19
TORSDOF 3
