REMARK  Name = 
REMARK  7 active torsions:
REMARK  status: ('A' for Active; 'I' for Inactive)
REMARK    1  A    between atoms: CA_3  and  C_23
REMARK    2  A    between atoms: C_4  and  C_14
REMARK    3  A    between atoms: CA_7  and  N_9
REMARK    4  A    between atoms: C_10  and  C_13
REMARK    5  A    between atoms: C_13  and  C_15
REMARK    6  A    between atoms: C_14  and  N_17
REMARK    7  A    between atoms: N_22  and  O_35
REMARK                            x       y       z     vdW  Elec       q    Type
REMARK                         _______ _______ _______ _____ _____    ______ ____
ROOT
ATOM      1  C   UNL     1       0.158   0.022   0.000  0.00  0.00    +0.000 C 
ATOM      2  N   UNL     1       0.158  -0.802   0.000  0.00  0.00    +0.000 N 
ATOM      3  CA  UNL     1       0.859  -1.215   0.000  0.00  0.00    +0.000 C 
ATOM      4  C   UNL     1       1.560  -0.802   0.000  0.00  0.00    +0.000 C 
ATOM      5  C   UNL     1       1.560   0.022   0.000  0.00  0.00    +0.000 C 
ATOM      6  S   UNL     1       0.859   0.435   0.000  0.00  0.00    +0.000 S 
ATOM      7  CA  UNL     1      -0.667   0.022   0.000  0.00  0.00    +0.000 C 
ATOM      8  C   UNL     1      -0.667  -0.802   0.000  0.00  0.00    +0.000 C 
ATOM      9  O   UNL     1      -1.410  -1.215   0.000  0.00  0.00    +0.000 OA
ENDROOT
BRANCH   7  10
ATOM     10  N   UNL     1      -1.410   0.435   0.000  0.00  0.00    +0.000 NA
ATOM     11  C   UNL     1      -2.111   0.022   0.000  0.00  0.00    +0.000 C 
ATOM     12  O   UNL     1      -2.111  -0.802   0.000  0.00  0.00    +0.000 OA
BRANCH  11  13
ATOM     13  C   UNL     1      -2.812   0.435   0.000  0.00  0.00    +0.000 C 
ATOM     14  N   UNL     1      -2.812   1.260   0.000  0.00  0.00    +0.000 NA
BRANCH  13  15
ATOM     15  C   UNL     1      -3.555   0.022   0.000  0.00  0.00    +0.000 A 
ATOM     16  N   UNL     1      -4.173   0.517   0.000  0.00  0.00    +0.000 NA
ATOM     17  S   UNL     1      -4.875   0.064   0.000  0.00  0.00    +0.000 S 
ATOM     18  C   UNL     1      -4.627  -0.761   0.000  0.00  0.00    +0.000 A 
ATOM     19  N   UNL     1      -3.802  -0.761   0.000  0.00  0.00    +0.000 NA
ATOM     20  N   UNL     1      -5.122  -1.421   0.000  0.00  0.00    +0.000 NA
ENDBRANCH  13  15
BRANCH  14  21
ATOM     21  O   UNL     1      -2.075   1.682   0.000  0.00  0.00    +0.000 OA
ATOM     22  C   UNL     1      -2.075   2.510   0.000  0.00  0.00    +0.000 C 
ENDBRANCH  14  21
ENDBRANCH  11  13
ENDBRANCH   7  10
BRANCH   3  23
ATOM     23  C   UNL     1       0.859  -2.040   0.000  0.00  0.00    +0.000 C 
ATOM     24  O   UNL     1       1.560  -2.453   0.000  0.00  0.00    +0.000 OA
ATOM     25  OXT UNL     1       0.117  -2.453   0.000  0.00  0.00    +0.000 OA
ENDBRANCH   3  23
BRANCH   4  26
ATOM     26  C   UNL     1       2.303  -1.215   0.000  0.00  0.00    +0.000 C 
BRANCH  26  27
ATOM     27  N   UNL     1       3.004  -0.802   0.000  0.00  0.00    +0.000 N 
ATOM     28  C   UNL     1       3.682  -1.276   0.000  0.00  0.00    +0.000 A 
ATOM     29  N   UNL     1       4.342  -0.779   0.000  0.00  0.00    +0.000 N 
ATOM     30  C   UNL     1       4.074   0.002   0.000  0.00  0.00    +0.000 A 
ATOM     31  C   UNL     1       3.248  -0.012   0.000  0.00  0.00    +0.000 A 
ATOM     32  C   UNL     1       3.682  -2.100   0.000  0.00  0.00    +0.000 A 
ATOM     33  C   UNL     1       4.389  -2.510   0.000  0.00  0.00    +0.000 A 
ATOM     34  C   UNL     1       5.122  -2.087   0.000  0.00  0.00    +0.000 A 
ATOM     35  N   UNL     1       5.122  -1.262   0.000  0.00  0.00    +0.000 NA
ENDBRANCH  26  27
ENDBRANCH   4  26
TORSDOF 7
