REMARK  Name = 
REMARK  6 active torsions:
REMARK  status: ('A' for Active; 'I' for Inactive)
REMARK    1  A    between atoms: C_2  and  O_4
REMARK    2  A    between atoms: O_4  and  C_5
REMARK    3  A    between atoms: C_9  and  C_12
REMARK    4  A    between atoms: N_14  and  C_15
REMARK    5  A    between atoms: C_15  and  C_17
REMARK    6  A    between atoms: C_18  and  C_19
REMARK                            x       y       z     vdW  Elec       q    Type
REMARK                         _______ _______ _______ _____ _____    ______ ____
ROOT
ATOM      1  C   UNL     1       3.963  -0.219   0.000  0.00  0.00    +0.000 A 
ATOM      2  N   UNL     1       3.478  -0.887   0.000  0.00  0.00    +0.000 NA
ATOM      3  N   UNL     1       3.963  -1.554   0.000  0.00  0.00    +0.000 N 
ATOM      4  C   UNL     1       4.748  -1.299   0.000  0.00  0.00    +0.000 A 
ATOM      5  C   UNL     1       4.748  -0.474   0.000  0.00  0.00    +0.000 A 
ATOM      6  C   UNL     1       5.462  -0.062   0.000  0.00  0.00    +0.000 A 
ATOM      7  N   UNL     1       5.462   0.763   0.000  0.00  0.00    +0.000 NA
ATOM      8  N   UNL     1       6.177  -0.474   0.000  0.00  0.00    +0.000 NA
ATOM      9  C   UNL     1       6.177  -1.299   0.000  0.00  0.00    +0.000 A 
ATOM     10  N   UNL     1       5.462  -1.712   0.000  0.00  0.00    +0.000 NA
ENDROOT
BRANCH   1  15
ATOM     11  C   UNL     1       3.198   2.135   0.000  0.00  0.00    +0.000 A 
ATOM     12  C   UNL     1       4.005   1.963   0.000  0.00  0.00    +0.000 A 
ATOM     13  F   UNL     1       4.557   2.576   0.000  0.00  0.00    +0.000 F 
ATOM     14  C   UNL     1       4.260   1.179   0.000  0.00  0.00    +0.000 A 
ATOM     15  C   UNL     1       3.708   0.566   0.000  0.00  0.00    +0.000 A 
ATOM     16  C   UNL     1       2.901   0.737   0.000  0.00  0.00    +0.000 A 
ATOM     17  C   UNL     1       2.646   1.522   0.000  0.00  0.00    +0.000 A 
BRANCH  11  18
ATOM     18  O   UNL     1       2.943   2.919   0.000  0.00  0.00    +0.000 OA
BRANCH  18  20
ATOM     19  C   UNL     1       1.882   3.876   0.000  0.00  0.00    +0.000 C 
ATOM     20  C   UNL     1       2.136   3.091   0.000  0.00  0.00    +0.000 C 
ATOM     21  C   UNL     1       1.585   2.478   0.000  0.00  0.00    +0.000 C 
ENDBRANCH  18  20
ENDBRANCH  11  18
ENDBRANCH   1  15
BRANCH   3  22
ATOM     22  C   UNL     1       3.708  -2.339   0.000  0.00  0.00    +0.000 C 
ATOM     23  C   UNL     1       4.260  -2.952   0.000  0.00  0.00    +0.000 C 
BRANCH  22  24
ATOM     24  C   UNL     1       2.901  -2.510   0.000  0.00  0.00    +0.000 A 
ATOM     25  C   UNL     1       2.646  -3.295   0.000  0.00  0.00    +0.000 A 
ATOM     26  C   UNL     1       1.839  -3.466   0.000  0.00  0.00    +0.000 A 
ATOM     27  O   UNL     1       1.585  -4.251   0.000  0.00  0.00    +0.000 OA
ATOM     28  C   UNL     1       1.287  -2.853   0.000  0.00  0.00    +0.000 A 
ATOM     29  C   UNL     1       0.480  -3.025   0.000  0.00  0.00    +0.000 A 
ATOM     30  C   UNL     1      -0.072  -2.412   0.000  0.00  0.00    +0.000 A 
ATOM     31  F   UNL     1      -0.879  -2.583   0.000  0.00  0.00    +0.000 F 
ATOM     32  C   UNL     1       0.183  -1.627   0.000  0.00  0.00    +0.000 A 
ATOM     33  C   UNL     1       0.990  -1.456   0.000  0.00  0.00    +0.000 A 
ATOM     34  C   UNL     1       1.542  -2.069   0.000  0.00  0.00    +0.000 A 
ATOM     35  O   UNL     1       2.349  -1.897   0.000  0.00  0.00    +0.000 OA
BRANCH  25  36
ATOM     36  C   UNL     1       3.198  -3.908   0.000  0.00  0.00    +0.000 A 
ATOM     37  C   UNL     1       4.005  -3.736   0.000  0.00  0.00    +0.000 A 
ATOM     38  C   UNL     1       4.557  -4.349   0.000  0.00  0.00    +0.000 A 
ATOM     39  C   UNL     1       4.303  -5.134   0.000  0.00  0.00    +0.000 A 
ATOM     40  C   UNL     1       3.495  -5.306   0.000  0.00  0.00    +0.000 A 
ATOM     41  F   UNL     1       3.241  -6.090   0.000  0.00  0.00    +0.000 F 
ATOM     42  C   UNL     1       2.943  -4.692   0.000  0.00  0.00    +0.000 A 
ENDBRANCH  25  36
ENDBRANCH  22  24
ENDBRANCH   3  22
TORSDOF 6
