REMARK  Name = 
REMARK  8 active torsions:
REMARK  status: ('A' for Active; 'I' for Inactive)
REMARK    1  A    between atoms: O_2  and  C_3
REMARK    2  A    between atoms: C_9  and  C_21
REMARK    3  A    between atoms: C_12  and  O_13
REMARK    4  A    between atoms: O_13  and  C_14
REMARK    5  A    between atoms: C_14  and  C_15
REMARK    6  A    between atoms: C_24  and  C_26
REMARK    7  A    between atoms: C_26  and  C_27
REMARK    8  A    between atoms: C_26  and  C_33
REMARK                            x       y       z     vdW  Elec       q    Type
REMARK                         _______ _______ _______ _____ _____    ______ ____
ROOT
ATOM      1  C   UNL     1       0.715  -1.238   0.000  0.00  0.00    +0.000 A 
ATOM      2  C   UNL     1       0.715  -0.412   0.000  0.00  0.00    +0.000 A 
ATOM      3  C   UNL     1       1.429   0.000   0.000  0.00  0.00    +0.000 A 
ATOM      4  C   UNL     1       2.143  -0.412   0.000  0.00  0.00    +0.000 A 
ATOM      5  C   UNL     1       2.858   0.000   0.000  0.00  0.00    +0.000 C 
ATOM      6  N   UNL     1       3.572  -0.412   0.000  0.00  0.00    +0.000 N 
ATOM      7  C   UNL     1       3.572  -1.238   0.000  0.00  0.00    +0.000 C 
ATOM      8  C   UNL     1       2.858  -1.650   0.000  0.00  0.00    +0.000 C 
ATOM      9  C   UNL     1       2.143  -1.238   0.000  0.00  0.00    +0.000 A 
ATOM     10  C   UNL     1       1.429  -1.650   0.000  0.00  0.00    +0.000 A 
ATOM     11  C   UNL     1       4.287   0.000   0.000  0.00  0.00    +0.000 C 
ATOM     12  O   UNL     1       5.001  -0.412   0.000  0.00  0.00    +0.000 OA
ENDROOT
BRANCH   7  13
ATOM     13  C   UNL     1       4.287  -1.650   0.000  0.00  0.00    +0.000 C 
ATOM     14  O   UNL     1       4.287  -2.475   0.000  0.00  0.00    +0.000 OA
ATOM     15  O   UNL     1       5.001  -1.238   0.000  0.00  0.00    +0.000 OA
ENDBRANCH   7  13
BRANCH   1  17
ATOM     16  C   UNL     1       0.000  -2.475   0.000  0.00  0.00    +0.000 C 
ATOM     17  O   UNL     1       0.000  -1.650   0.000  0.00  0.00    +0.000 OA
ENDBRANCH   1  17
BRANCH  11  18
ATOM     18  C   UNL     1       4.287   0.825   0.000  0.00  0.00    +0.000 C 
BRANCH  18  19
ATOM     19  C   UNL     1       5.001   1.238   0.000  0.00  0.00    +0.000 A 
ATOM     20  C   UNL     1       5.001   2.062   0.000  0.00  0.00    +0.000 A 
ATOM     21  C   UNL     1       5.716   2.475   0.000  0.00  0.00    +0.000 A 
ATOM     22  C   UNL     1       6.430   2.062   0.000  0.00  0.00    +0.000 A 
ATOM     23  C   UNL     1       6.430   1.238   0.000  0.00  0.00    +0.000 A 
ATOM     24  C   UNL     1       5.716   0.825   0.000  0.00  0.00    +0.000 A 
ENDBRANCH  18  19
BRANCH  18  25
ATOM     25  C   UNL     1       3.572   1.238   0.000  0.00  0.00    +0.000 A 
ATOM     26  C   UNL     1       2.858   0.825   0.000  0.00  0.00    +0.000 A 
ATOM     27  C   UNL     1       2.143   1.238   0.000  0.00  0.00    +0.000 A 
ATOM     28  C   UNL     1       2.143   2.062   0.000  0.00  0.00    +0.000 A 
ATOM     29  C   UNL     1       2.858   2.475   0.000  0.00  0.00    +0.000 A 
ATOM     30  C   UNL     1       3.572   2.062   0.000  0.00  0.00    +0.000 A 
ENDBRANCH  18  25
ENDBRANCH  11  18
BRANCH  10  31
ATOM     31  O   UNL     1       1.429  -2.475   0.000  0.00  0.00    +0.000 OA
BRANCH  31  32
ATOM     32  C   UNL     1       0.715  -2.888   0.000  0.00  0.00    +0.000 C 
BRANCH  32  33
ATOM     33  C   UNL     1       0.715  -3.712   0.000  0.00  0.00    +0.000 A 
ATOM     34  C   UNL     1       1.429  -4.125   0.000  0.00  0.00    +0.000 A 
ATOM     35  C   UNL     1       1.429  -4.950   0.000  0.00  0.00    +0.000 A 
ATOM     36  C   UNL     1       0.715  -5.362   0.000  0.00  0.00    +0.000 A 
ATOM     37  C   UNL     1       0.000  -4.950   0.000  0.00  0.00    +0.000 A 
ATOM     38  C   UNL     1       0.000  -4.125   0.000  0.00  0.00    +0.000 A 
ENDBRANCH  32  33
ENDBRANCH  31  32
ENDBRANCH  10  31
TORSDOF 8
