REMARK  Name = 
REMARK  6 active torsions:
REMARK  status: ('A' for Active; 'I' for Inactive)
REMARK    1  A    between atoms: C_2  and  C_3
REMARK    2  A    between atoms: C_6  and  O_7
REMARK    3  A    between atoms: O_7  and  C_8
REMARK    4  A    between atoms: C_8  and  C_9
REMARK    5  A    between atoms: C_14  and  C_15
REMARK    6  A    between atoms: N_17  and  C_18
REMARK                            x       y       z     vdW  Elec       q    Type
REMARK                         _______ _______ _______ _____ _____    ______ ____
ROOT
ATOM      1  C   UNL     1      -1.429   0.000   0.000  0.00  0.00    +0.000 A 
ATOM      2  C   UNL     1      -1.429   0.825   0.000  0.00  0.00    +0.000 A 
ATOM      3  C   UNL     1      -0.715   1.238   0.000  0.00  0.00    +0.000 A 
ATOM      4  C   UNL     1       0.000   0.825   0.000  0.00  0.00    +0.000 A 
ATOM      5  C   UNL     1       0.000   0.000   0.000  0.00  0.00    +0.000 A 
ATOM      6  C   UNL     1      -0.715  -0.412   0.000  0.00  0.00    +0.000 A 
ENDROOT
BRANCH   6   7
ATOM      7  C   UNL     1      -0.715  -1.238   0.000  0.00  0.00    +0.000 C 
ATOM      8  O   UNL     1      -1.429  -1.650   0.000  0.00  0.00    +0.000 OA
ATOM      9  N   UNL     1       0.000  -1.650   0.000  0.00  0.00    +0.000 NA
BRANCH   9  10
ATOM     10  C   UNL     1       0.715  -1.238   0.000  0.00  0.00    +0.000 A 
ATOM     11  C   UNL     1       0.715  -0.412   0.000  0.00  0.00    +0.000 A 
ATOM     12  C   UNL     1       1.429   0.000   0.000  0.00  0.00    +0.000 A 
ATOM     13  C   UNL     1       2.143  -0.412   0.000  0.00  0.00    +0.000 A 
ATOM     14  N   UNL     1       2.858   0.000   0.000  0.00  0.00    +0.000 NA
ATOM     15  C   UNL     1       3.572  -0.412   0.000  0.00  0.00    +0.000 A 
ATOM     16  C   UNL     1       4.287   0.000   0.000  0.00  0.00    +0.000 C 
ATOM     17  C   UNL     1       3.572  -1.238   0.000  0.00  0.00    +0.000 A 
ATOM     18  C   UNL     1       2.858  -1.650   0.000  0.00  0.00    +0.000 A 
ATOM     19  N   UNL     1       2.858  -2.475   0.000  0.00  0.00    +0.000 NA
ATOM     20  C   UNL     1       2.143  -1.238   0.000  0.00  0.00    +0.000 A 
ATOM     21  C   UNL     1       1.429  -1.650   0.000  0.00  0.00    +0.000 A 
ENDBRANCH   9  10
ENDBRANCH   6   7
BRANCH   1  22
ATOM     22  C   UNL     1      -2.143  -0.412   0.000  0.00  0.00    +0.000 C 
BRANCH  22  23
ATOM     23  O   UNL     1      -2.858   0.000   0.000  0.00  0.00    +0.000 OA
BRANCH  23  27
ATOM     24  C   UNL     1      -5.001  -1.238   0.000  0.00  0.00    +0.000 A 
ATOM     25  C   UNL     1      -5.001  -0.412   0.000  0.00  0.00    +0.000 A 
ATOM     26  C   UNL     1      -4.287   0.000   0.000  0.00  0.00    +0.000 A 
ATOM     27  C   UNL     1      -3.572  -0.412   0.000  0.00  0.00    +0.000 A 
ATOM     28  C   UNL     1      -3.572  -1.238   0.000  0.00  0.00    +0.000 A 
ATOM     29  C   UNL     1      -4.287  -1.650   0.000  0.00  0.00    +0.000 A 
BRANCH  24  31
ATOM     30  C   UNL     1      -5.716  -2.475   0.000  0.00  0.00    +0.000 C 
ATOM     31  C   UNL     1      -5.716  -1.650   0.000  0.00  0.00    +0.000 C 
ENDBRANCH  24  31
ENDBRANCH  23  27
ENDBRANCH  22  23
ENDBRANCH   1  22
TORSDOF 6
