REMARK  Name = 
REMARK  6 active torsions:
REMARK  status: ('A' for Active; 'I' for Inactive)
REMARK    1  A    between atoms: C_2  and  C_4
REMARK    2  A    between atoms: C_6  and  O_7
REMARK    3  A    between atoms: O_7  and  C_8
REMARK    4  A    between atoms: C_16  and  O_17
REMARK    5  A    between atoms: O_17  and  C_18
REMARK    6  A    between atoms: C_20  and  C_21
REMARK                            x       y       z     vdW  Elec       q    Type
REMARK                         _______ _______ _______ _____ _____    ______ ____
ROOT
ATOM      1  C   UNL     1       2.432  -5.563   0.000  0.00  0.00    +0.000 C 
ATOM      2  C   UNL     1       2.768  -4.810   0.000  0.00  0.00    +0.000 C 
ATOM      3  O   UNL     1       2.283  -4.142   0.000  0.00  0.00    +0.000 OA
ATOM      4  C   UNL     1       3.588  -4.723   0.000  0.00  0.00    +0.000 C 
ATOM      5  N   UNL     1       3.924  -3.970   0.000  0.00  0.00    +0.000 NA
ATOM      6  C   UNL     1       4.073  -5.391   0.000  0.00  0.00    +0.000 C 
ATOM      7  C   UNL     1       3.738  -6.144   0.000  0.00  0.00    +0.000 C 
ATOM      8  N   UNL     1       4.223  -6.812   0.000  0.00  0.00    +0.000 NA
ATOM      9  C   UNL     1       2.917  -6.231   0.000  0.00  0.00    +0.000 C 
ENDROOT
BRANCH   9  10
ATOM     10  O   UNL     1       2.582  -6.984   0.000  0.00  0.00    +0.000 OA
BRANCH  10  11
ATOM     11  C   UNL     1       3.067  -7.652   0.000  0.00  0.00    +0.000 C 
ATOM     12  O   UNL     1       3.887  -7.566   0.000  0.00  0.00    +0.000 OA
ATOM     13  C   UNL     1       4.372  -8.233   0.000  0.00  0.00    +0.000 C 
ATOM     14  C   UNL     1       4.037  -8.987   0.000  0.00  0.00    +0.000 C 
ATOM     15  O   UNL     1       4.521  -9.654   0.000  0.00  0.00    +0.000 OA
ATOM     16  C   UNL     1       3.216  -9.073   0.000  0.00  0.00    +0.000 C 
ATOM     17  O   UNL     1       2.881  -9.827   0.000  0.00  0.00    +0.000 OA
ATOM     18  C   UNL     1       2.731  -8.405   0.000  0.00  0.00    +0.000 C 
ATOM     19  N   UNL     1       1.911  -8.492   0.000  0.00  0.00    +0.000 NA
BRANCH  13  20
ATOM     20  C   UNL     1       5.192  -8.147   0.000  0.00  0.00    +0.000 C 
ATOM     21  C   UNL     1       5.528  -7.393   0.000  0.00  0.00    +0.000 C 
ATOM     22  O   UNL     1       5.678  -8.814   0.000  0.00  0.00    +0.000 OA
ENDBRANCH  13  20
ENDBRANCH  10  11
ENDBRANCH   9  10
BRANCH   1  23
ATOM     23  O   UNL     1       1.612  -5.649   0.000  0.00  0.00    +0.000 OA
BRANCH  23  26
ATOM     24  C   UNL     1       0.715  -3.712   0.000  0.00  0.00    +0.000 C 
ATOM     25  O   UNL     1       1.382  -4.197   0.000  0.00  0.00    +0.000 OA
ATOM     26  C   UNL     1       1.127  -4.982   0.000  0.00  0.00    +0.000 C 
ATOM     27  C   UNL     1       0.302  -4.982   0.000  0.00  0.00    +0.000 C 
ATOM     28  O   UNL     1      -0.183  -5.649   0.000  0.00  0.00    +0.000 OA
ATOM     29  C   UNL     1       0.047  -4.197   0.000  0.00  0.00    +0.000 C 
ATOM     30  O   UNL     1      -0.738  -3.942   0.000  0.00  0.00    +0.000 OA
BRANCH  24  32
ATOM     31  C   UNL     1       1.429  -2.475   0.000  0.00  0.00    +0.000 C 
ATOM     32  C   UNL     1       0.715  -2.888   0.000  0.00  0.00    +0.000 C 
ATOM     33  N   UNL     1       0.000  -2.475   0.000  0.00  0.00    +0.000 NA
ENDBRANCH  24  32
ENDBRANCH  23  26
ENDBRANCH   1  23
TORSDOF 6
