REMARK  Name = 
REMARK  1 active torsions:
REMARK  status: ('A' for Active; 'I' for Inactive)
REMARK    1  A    between atoms: C_24  and  C_25
REMARK                            x       y       z     vdW  Elec       q    Type
REMARK                         _______ _______ _______ _____ _____    ______ ____
ROOT
ATOM      1  C   UNL     1       4.876  -1.485   0.000  0.00  0.00    +0.000 C 
ATOM      2  N   UNL     1       4.412  -0.802   0.000  0.00  0.00    +0.000 N 
ATOM      3  N   UNL     1       3.588  -0.776   0.000  0.00  0.00    +0.000 NA
ATOM      4  C   UNL     1       3.358   0.017   0.000  0.00  0.00    +0.000 A 
ATOM      5  C   UNL     1       2.330   0.408   0.000  0.00  0.00    +0.000 C 
ATOM      6  S   UNL     1       1.744   0.988   0.000  0.00  0.00    +0.000 S 
ATOM      7  C   UNL     1       1.355   1.716   0.000  0.00  0.00    +0.000 C 
ATOM      8  C   UNL     1       1.197   2.525   0.000  0.00  0.00    +0.000 A 
ATOM      9  N   UNL     1       0.390   2.356   0.000  0.00  0.00    +0.000 NA
ATOM     10  N   UNL     1      -0.021   3.071   0.000  0.00  0.00    +0.000 N 
ATOM     11  C   UNL     1      -0.842   3.159   0.000  0.00  0.00    +0.000 C 
ATOM     12  C   UNL     1       0.532   3.683   0.000  0.00  0.00    +0.000 A 
ATOM     13  C   UNL     1       0.362   4.490   0.000  0.00  0.00    +0.000 C 
ATOM     14  C   UNL     1       1.285   3.346   0.000  0.00  0.00    +0.000 A 
ATOM     15  C   UNL     1       1.611   4.104   0.000  0.00  0.00    +0.000 A 
ATOM     16  C   UNL     1       1.002   4.660   0.000  0.00  0.00    +0.000 A 
ATOM     17 CL   UNL     1       0.219   4.921   0.000  0.00  0.00    +0.000 Cl
ATOM     18  C   UNL     1       1.179   5.466   0.000  0.00  0.00    +0.000 A 
ATOM     19  C   UNL     1       1.966   5.715   0.000  0.00  0.00    +0.000 A 
ATOM     20  C   UNL     1       2.575   5.158   0.000  0.00  0.00    +0.000 A 
ATOM     21  C   UNL     1       2.397   4.353   0.000  0.00  0.00    +0.000 A 
ATOM     22  N   UNL     1       3.109   3.935   0.000  0.00  0.00    +0.000 N 
ATOM     23  C   UNL     1       3.189   3.114   0.000  0.00  0.00    +0.000 C 
ATOM     24  C   UNL     1       3.726   4.482   0.000  0.00  0.00    +0.000 A 
ATOM     25  C   UNL     1       3.396   5.238   0.000  0.00  0.00    +0.000 A 
ATOM     26  C   UNL     1       4.462   5.365   0.000  0.00  0.00    +0.000 C 
ATOM     27  C   UNL     1       5.242   5.097   0.000  0.00  0.00    +0.000 C 
ATOM     28  C   UNL     1       5.909   4.611   0.000  0.00  0.00    +0.000 C 
ATOM     29  O   UNL     1       6.402   3.950   0.000  0.00  0.00    +0.000 OA
ATOM     30  C   UNL     1       6.679   3.172   0.000  0.00  0.00    +0.000 A 
ATOM     31  C   UNL     1       6.192   2.506   0.000  0.00  0.00    +0.000 A 
ATOM     32  C   UNL     1       6.526   1.751   0.000  0.00  0.00    +0.000 A 
ATOM     33  S   UNL     1       6.069   0.849   0.000  0.00  0.00    +0.000 S 
ATOM     34  C   UNL     1       5.447   0.308   0.000  0.00  0.00    +0.000 C 
ATOM     35  C   UNL     1       4.692  -0.026   0.000  0.00  0.00    +0.000 A 
ATOM     36  C   UNL     1       4.041   0.480   0.000  0.00  0.00    +0.000 A 
ATOM     37  C   UNL     1       7.346   1.663   0.000  0.00  0.00    +0.000 A 
ATOM     38  C   UNL     1       7.833   2.330   0.000  0.00  0.00    +0.000 A 
ATOM     39  C   UNL     1       7.499   3.084   0.000  0.00  0.00    +0.000 A 
ATOM     40  C   UNL     1       7.985   3.751   0.000  0.00  0.00    +0.000 A 
ATOM     41  C   UNL     1       8.806   3.662   0.000  0.00  0.00    +0.000 A 
ATOM     42  C   UNL     1       9.140   2.908   0.000  0.00  0.00    +0.000 A 
ATOM     43  C   UNL     1       8.653   2.242   0.000  0.00  0.00    +0.000 A 
ENDROOT
BRANCH  24  44
ATOM     44  C   UNL     1       4.532   4.305   0.000  0.00  0.00    +0.000 C 
ATOM     45  O   UNL     1       5.249   4.712   0.000  0.00  0.00    +0.000 OA
ATOM     46  O   UNL     1       4.781   3.518   0.000  0.00  0.00    +0.000 OA
ENDBRANCH  24  44
TORSDOF 1
