REMARK  Name = 
REMARK  2 active torsions:
REMARK  status: ('A' for Active; 'I' for Inactive)
REMARK    1  A    between atoms: C_5  and  C_11
REMARK    2  A    between atoms: N_13  and  C_14
REMARK                            x       y       z     vdW  Elec       q    Type
REMARK                         _______ _______ _______ _____ _____    ______ ____
ROOT
ATOM      1  C   UNL     1      -3.577   2.432   0.000  0.00  0.00    +0.000 C 
ATOM      2  O   UNL     1      -2.862   2.019   0.000  0.00  0.00    +0.000 OA
ATOM      3  N   UNL     1      -3.577   3.257   0.000  0.00  0.00    +0.000 NA
ENDROOT
BRANCH   1   8
ATOM      4  C   UNL     1      -6.834   1.027   0.000  0.00  0.00    +0.000 A 
ATOM      5  C   UNL     1      -6.422   1.742   0.000  0.00  0.00    +0.000 A 
ATOM      6  C   UNL     1      -5.597   1.742   0.000  0.00  0.00    +0.000 A 
ATOM      7  C   UNL     1      -5.045   2.355   0.000  0.00  0.00    +0.000 A 
ATOM      8  C   UNL     1      -4.291   2.019   0.000  0.00  0.00    +0.000 A 
ATOM      9  S   UNL     1      -4.377   1.199   0.000  0.00  0.00    +0.000 S 
ATOM     10  C   UNL     1      -5.184   1.027   0.000  0.00  0.00    +0.000 A 
ATOM     11  C   UNL     1      -5.597   0.313   0.000  0.00  0.00    +0.000 A 
ATOM     12  C   UNL     1      -6.422   0.313   0.000  0.00  0.00    +0.000 A 
ATOM     13 CL   UNL     1      -5.184  -0.402   0.000  0.00  0.00    +0.000 Cl
ENDBRANCH   1   8
BRANCH   3  14
ATOM     14  C   UNL     1      -2.862   3.669   0.000  0.00  0.00    +0.000 C 
ATOM     15  C   UNL     1      -2.862   4.494   0.000  0.00  0.00    +0.000 C 
ATOM     16  N   UNL     1      -2.148   4.907   0.000  0.00  0.00    +0.000 NA
ATOM     17  C   UNL     1      -1.433   4.494   0.000  0.00  0.00    +0.000 C 
ATOM     18  C   UNL     1      -1.433   3.669   0.000  0.00  0.00    +0.000 C 
ATOM     19  C   UNL     1      -2.148   3.257   0.000  0.00  0.00    +0.000 C 
ATOM     20  C   UNL     1      -2.010   3.807   0.000  0.00  0.00    +0.000 C 
ATOM     21  C   UNL     1      -2.010   4.357   0.000  0.00  0.00    +0.000 C 
ENDBRANCH   3  14
TORSDOF 2
