REMARK  Name = 
REMARK  12 active torsions:
REMARK  status: ('A' for Active; 'I' for Inactive)
REMARK    1  A    between atoms: P_2  and  O_5
REMARK    2  A    between atoms: O_5  and  C_6
REMARK    3  A    between atoms: C_7  and  O_8
REMARK    4  A    between atoms: O_8  and  P_9
REMARK    5  A    between atoms: C_13  and  O_14
REMARK    6  A    between atoms: O_14  and  P_15
REMARK    7  A    between atoms: C_19  and  O_20
REMARK    8  A    between atoms: O_20  and  P_21
REMARK    9  A    between atoms: C_25  and  O_26
REMARK   10  A    between atoms: O_26  and  P_27
REMARK   11  A    between atoms: C_31  and  O_32
REMARK   12  A    between atoms: O_32  and  P_33
REMARK                            x       y       z     vdW  Elec       q    Type
REMARK                         _______ _______ _______ _____ _____    ______ ____
ROOT
ATOM      1  C   UNL     1       0.715   1.238   0.000  0.00  0.00    +0.000 C 
ATOM      2  C   UNL     1       1.429   0.825   0.000  0.00  0.00    +0.000 C 
ATOM      3  C   UNL     1       1.429   0.000   0.000  0.00  0.00    +0.000 C 
ATOM      4  C   UNL     1       0.715  -0.412   0.000  0.00  0.00    +0.000 C 
ATOM      5  C   UNL     1       0.000   0.000   0.000  0.00  0.00    +0.000 C 
ATOM      6  C   UNL     1       0.000   0.825   0.000  0.00  0.00    +0.000 C 
ENDROOT
BRANCH   1   7
ATOM      7  O   UNL     1       0.715   2.062   0.000  0.00  0.00    +0.000 OA
BRANCH   7   9
ATOM      8  O   UNL     1       2.143   2.888   0.000  0.00  0.00    +0.000 OA
ATOM      9  P   UNL     1       1.429   2.475   0.000  0.00  0.00    +0.000 P 
ATOM     10  O   UNL     1       1.016   3.189   0.000  0.00  0.00    +0.000 OA
ATOM     11  O   UNL     1       1.841   1.760   0.000  0.00  0.00    +0.000 OA
ENDBRANCH   7   9
ENDBRANCH   1   7
BRANCH   3  12
ATOM     12  O   UNL     1       2.143  -0.412   0.000  0.00  0.00    +0.000 OA
BRANCH  12  13
ATOM     13  P   UNL     1       2.143  -1.238   0.000  0.00  0.00    +0.000 P 
ATOM     14  O   UNL     1       1.318  -1.238   0.000  0.00  0.00    +0.000 OA
ATOM     15  O   UNL     1       2.968  -1.238   0.000  0.00  0.00    +0.000 OA
ATOM     16  O   UNL     1       2.143  -2.062   0.000  0.00  0.00    +0.000 OA
ENDBRANCH  12  13
ENDBRANCH   3  12
BRANCH   5  17
ATOM     17  O   UNL     1      -0.715  -0.412   0.000  0.00  0.00    +0.000 OA
BRANCH  17  18
ATOM     18  P   UNL     1      -1.429   0.000   0.000  0.00  0.00    +0.000 P 
ATOM     19  O   UNL     1      -1.016   0.715   0.000  0.00  0.00    +0.000 OA
ATOM     20  O   UNL     1      -1.841  -0.715   0.000  0.00  0.00    +0.000 OA
ATOM     21  O   UNL     1      -2.143   0.412   0.000  0.00  0.00    +0.000 OA
ENDBRANCH  17  18
ENDBRANCH   5  17
BRANCH   2  22
ATOM     22  O   UNL     1       2.143   1.238   0.000  0.00  0.00    +0.000 OA
BRANCH  22  23
ATOM     23  P   UNL     1       2.858   0.825   0.000  0.00  0.00    +0.000 P 
ATOM     24  O   UNL     1       2.445   0.111   0.000  0.00  0.00    +0.000 OA
ATOM     25  O   UNL     1       3.270   1.540   0.000  0.00  0.00    +0.000 OA
ATOM     26  O   UNL     1       3.572   0.412   0.000  0.00  0.00    +0.000 OA
ENDBRANCH  22  23
ENDBRANCH   2  22
BRANCH   6  27
ATOM     27  O   UNL     1      -0.715   1.238   0.000  0.00  0.00    +0.000 OA
BRANCH  27  28
ATOM     28  P   UNL     1      -0.715   2.062   0.000  0.00  0.00    +0.000 P 
ATOM     29  O   UNL     1       0.111   2.062   0.000  0.00  0.00    +0.000 OA
ATOM     30  O   UNL     1      -1.540   2.062   0.000  0.00  0.00    +0.000 OA
ATOM     31  O   UNL     1      -0.715   2.888   0.000  0.00  0.00    +0.000 OA
ENDBRANCH  27  28
ENDBRANCH   6  27
BRANCH   4  32
ATOM     32  O   UNL     1       0.715  -1.238   0.000  0.00  0.00    +0.000 OA
BRANCH  32  33
ATOM     33  P   UNL     1       0.000  -1.650   0.000  0.00  0.00    +0.000 P 
ATOM     34  O   UNL     1      -0.715  -2.062   0.000  0.00  0.00    +0.000 OA
ATOM     35  O   UNL     1      -0.412  -0.935   0.000  0.00  0.00    +0.000 OA
ATOM     36  O   UNL     1       0.412  -2.365   0.000  0.00  0.00    +0.000 OA
ENDBRANCH  32  33
ENDBRANCH   4  32
TORSDOF 12
