REMARK  Name = 
REMARK  5 active torsions:
REMARK  status: ('A' for Active; 'I' for Inactive)
REMARK    1  A    between atoms: N_2  and  C_3
REMARK    2  A    between atoms: C_3  and  C_4
REMARK    3  A    between atoms: C_6  and  C_18
REMARK    4  A    between atoms: N_7  and  S_9
REMARK    5  A    between atoms: S_9  and  C_12
REMARK                            x       y       z     vdW  Elec       q    Type
REMARK                         _______ _______ _______ _____ _____    ______ ____
ROOT
ATOM      1  C   UNL     1       0.715  -1.238   0.000  0.00  0.00    +0.000 A 
ATOM      2  C   UNL     1       0.047  -1.722   0.000  0.00  0.00    +0.000 A 
ATOM      3  C   UNL     1       0.302  -2.507   0.000  0.00  0.00    +0.000 A 
ATOM      4  N   UNL     1       1.127  -2.507   0.000  0.00  0.00    +0.000 N 
ATOM      5  C   UNL     1       1.382  -1.722   0.000  0.00  0.00    +0.000 A 
ENDROOT
BRANCH   3   6
ATOM      6  C   UNL     1      -0.183  -3.175   0.000  0.00  0.00    +0.000 A 
ATOM      7  C   UNL     1       0.153  -3.928   0.000  0.00  0.00    +0.000 A 
ATOM      8  C   UNL     1      -0.332  -4.596   0.000  0.00  0.00    +0.000 A 
ATOM      9  C   UNL     1      -1.153  -4.509   0.000  0.00  0.00    +0.000 A 
ATOM     10  C   UNL     1      -1.488  -3.756   0.000  0.00  0.00    +0.000 A 
ATOM     11  C   UNL     1      -1.003  -3.088   0.000  0.00  0.00    +0.000 A 
ATOM     12  F   UNL     1      -1.339  -2.335   0.000  0.00  0.00    +0.000 F 
ENDBRANCH   3   6
BRANCH   4  13
ATOM     13  S   UNL     1       1.612  -3.175   0.000  0.00  0.00    +0.000 S 
ATOM     14  O   UNL     1       0.945  -3.659   0.000  0.00  0.00    +0.000 OA
ATOM     15  O   UNL     1       2.097  -3.842   0.000  0.00  0.00    +0.000 OA
BRANCH  13  16
ATOM     16  C   UNL     1       2.279  -2.690   0.000  0.00  0.00    +0.000 A 
ATOM     17  C   UNL     1       2.193  -1.869   0.000  0.00  0.00    +0.000 A 
ATOM     18  C   UNL     1       2.861  -1.384   0.000  0.00  0.00    +0.000 A 
ATOM     19  C   UNL     1       3.614  -1.720   0.000  0.00  0.00    +0.000 A 
ATOM     20  N   UNL     1       3.700  -2.540   0.000  0.00  0.00    +0.000 NA
ATOM     21  C   UNL     1       3.033  -3.025   0.000  0.00  0.00    +0.000 A 
ENDBRANCH  13  16
ENDBRANCH   4  13
BRANCH   1  22
ATOM     22  C   UNL     1       0.715  -0.412   0.000  0.00  0.00    +0.000 C 
BRANCH  22  24
ATOM     23  C   UNL     1       0.000   0.825   0.000  0.00  0.00    +0.000 C 
ATOM     24  N   UNL     1       0.000   0.000   0.000  0.00  0.00    +0.000 NA
ENDBRANCH  22  24
ENDBRANCH   1  22
TORSDOF 5
