REMARK  Name = 
REMARK  3 active torsions:
REMARK  status: ('A' for Active; 'I' for Inactive)
REMARK    1  A    between atoms: C_1  and  C_2
REMARK    2  A    between atoms: C_2  and  O_3
REMARK    3  A    between atoms: O_3  and  N_4
REMARK                            x       y       z     vdW  Elec       q    Type
REMARK                         _______ _______ _______ _____ _____    ______ ____
ROOT
ATOM      1  O   UNL     1       1.952   1.127   0.000  0.00  0.00    +0.000 OA
ENDROOT
BRANCH   1   2
ATOM      2  N   UNL     1       2.666   0.715   0.000  0.00  0.00    +0.000 N 
ATOM      3  O   UNL     1       3.381   1.127   0.000  0.00  0.00    +0.000 OA
ATOM      4  O   UNL     1       2.666  -0.111   0.000  0.00  0.00    +0.000 OA
ENDBRANCH   1   2
BRANCH   1   5
ATOM      5  C   UNL     1       1.238   0.715   0.000  0.00  0.00    +0.000 C 
BRANCH   5   6
ATOM      6  C   UNL     1       0.523   1.127   0.000  0.00  0.00    +0.000 C 
ATOM      7  N   UNL     1      -0.191   0.715   0.000  0.00  0.00    +0.000 NA
ENDBRANCH   5   6
ENDBRANCH   1   5
TORSDOF 3
