REMARK  Name = 
REMARK  3 active torsions:
REMARK  status: ('A' for Active; 'I' for Inactive)
REMARK    1  A    between atoms: N_1  and  C_3
REMARK    2  A    between atoms: C_12  and  C_17
REMARK    3  A    between atoms: C_12  and  C_19
REMARK                            x       y       z     vdW  Elec       q    Type
REMARK                         _______ _______ _______ _____ _____    ______ ____
ROOT
ATOM      1  N   UNL     1       0.412   0.866   0.000  0.00  0.00    +0.000 N 
ATOM      2  C   UNL     1       1.114   0.371   0.000  0.00  0.00    +0.000 A 
ATOM      3  C   UNL     1       0.701   1.650   0.000  0.00  0.00    +0.000 A 
ATOM      4  C   UNL     1       1.774   0.866   0.000  0.00  0.00    +0.000 A 
ATOM      5  N   UNL     1       1.196  -0.495   0.000  0.00  0.00    +0.000 NA
ATOM      6  N   UNL     1       1.526   1.650   0.000  0.00  0.00    +0.000 NA
ATOM      7  C   UNL     1       2.516   0.536   0.000  0.00  0.00    +0.000 A 
ATOM      8  C   UNL     1       1.939  -0.825   0.000  0.00  0.00    +0.000 A 
ATOM      9  N   UNL     1       2.599  -0.330   0.000  0.00  0.00    +0.000 NA
ATOM     10  N   UNL     1       3.176   0.990   0.000  0.00  0.00    +0.000 NA
ATOM     11  F   UNL     1       2.021  -1.650   0.000  0.00  0.00    +0.000 F 
ENDROOT
BRANCH   1  12
ATOM     12  C   UNL     1      -0.371   0.619   0.000  0.00  0.00    +0.000 C 
ATOM     13  O   UNL     1      -1.073   1.114   0.000  0.00  0.00    +0.000 OA
ATOM     14  C   UNL     1      -0.660  -0.206   0.000  0.00  0.00    +0.000 C 
ATOM     15  C   UNL     1      -1.732   0.619   0.000  0.00  0.00    +0.000 C 
ATOM     16  C   UNL     1      -1.485  -0.206   0.000  0.00  0.00    +0.000 C 
ATOM     17  O   UNL     1      -1.939  -0.866   0.000  0.00  0.00    +0.000 OA
BRANCH  15  18
ATOM     18  C   UNL     1      -2.434   1.031   0.000  0.00  0.00    +0.000 C 
ATOM     19  O   UNL     1      -3.135   0.619   0.000  0.00  0.00    +0.000 OA
ENDBRANCH  15  18
BRANCH  15  20
ATOM     20  C   UNL     1      -2.434   0.206   0.000  0.00  0.00    +0.000 C 
ATOM     21  C   UNL     1      -3.176  -0.206   0.000  0.00  0.00    +0.000 C 
ENDBRANCH  15  20
ENDBRANCH   1  12
TORSDOF 3
