REMARK  Name = 
REMARK  3 active torsions:
REMARK  status: ('A' for Active; 'I' for Inactive)
REMARK    1  A    between atoms: C_2  and  O_4
REMARK    2  A    between atoms: O_4  and  C_5
REMARK    3  A    between atoms: C_5  and  C_6
REMARK                            x       y       z     vdW  Elec       q    Type
REMARK                         _______ _______ _______ _____ _____    ______ ____
ROOT
ATOM      1  C   UNL     1       0.825  -0.825   0.000  0.00  0.00    +0.000 C 
ENDROOT
BRANCH   1   2
ATOM      2  C   UNL     1       0.825   0.000   0.000  0.00  0.00    +0.000 C 
ATOM      3  F   UNL     1       0.825   0.825   0.000  0.00  0.00    +0.000 F 
ATOM      4  F   UNL     1       1.650   0.000   0.000  0.00  0.00    +0.000 F 
ATOM      5  F   UNL     1       0.000   0.000   0.000  0.00  0.00    +0.000 F 
ENDBRANCH   1   2
BRANCH   1   6
ATOM      6  O   UNL     1       0.111  -1.238   0.000  0.00  0.00    +0.000 OA
BRANCH   6   8
ATOM      7  C   UNL     1      -0.604  -2.475   0.000  0.00  0.00    +0.000 C 
ATOM      8  C   UNL     1       0.111  -2.062   0.000  0.00  0.00    +0.000 C 
ATOM      9  O   UNL     1       0.825  -2.475   0.000  0.00  0.00    +0.000 OA
ENDBRANCH   6   8
ENDBRANCH   1   6
TORSDOF 3
