REMARK  Name = 
REMARK  4 active torsions:
REMARK  status: ('A' for Active; 'I' for Inactive)
REMARK    1  A    between atoms: O_2  and  C_3
REMARK    2  A    between atoms: C_9  and  C_10
REMARK    3  A    between atoms: C_10  and  C_12
REMARK    4  A    between atoms: C_12  and  N_13
REMARK                            x       y       z     vdW  Elec       q    Type
REMARK                         _______ _______ _______ _____ _____    ______ ____
ROOT
ATOM      1  C   UNL     1      -5.217   3.110   0.000  0.00  0.00    +0.000 A 
ATOM      2  C   UNL     1      -4.410   2.939   0.000  0.00  0.00    +0.000 A 
ATOM      3  C   UNL     1      -4.155   2.154   0.000  0.00  0.00    +0.000 A 
ATOM      4  C   UNL     1      -4.707   1.541   0.000  0.00  0.00    +0.000 A 
ATOM      5  N   UNL     1      -4.294   0.827   0.000  0.00  0.00    +0.000 NA
ATOM      6  C   UNL     1      -3.487   0.998   0.000  0.00  0.00    +0.000 A 
ATOM      7  C   UNL     1      -3.401   1.819   0.000  0.00  0.00    +0.000 A 
ATOM      8  C   UNL     1      -5.514   1.713   0.000  0.00  0.00    +0.000 A 
ATOM      9  C   UNL     1      -5.769   2.497   0.000  0.00  0.00    +0.000 A 
ATOM     10 CL   UNL     1      -6.576   2.669   0.000  0.00  0.00    +0.000 Cl
ENDROOT
BRANCH   1  12
ATOM     11  C   UNL     1      -6.279   4.066   0.000  0.00  0.00    +0.000 C 
ATOM     12  O   UNL     1      -5.472   3.895   0.000  0.00  0.00    +0.000 OA
ENDBRANCH   1  12
BRANCH   7  13
ATOM     13  C   UNL     1      -2.687   2.231   0.000  0.00  0.00    +0.000 C 
ATOM     14  C   UNL     1      -2.687   3.056   0.000  0.00  0.00    +0.000 C 
BRANCH  13  15
ATOM     15  C   UNL     1      -1.972   1.819   0.000  0.00  0.00    +0.000 C 
BRANCH  15  16
ATOM     16  N   UNL     1      -1.258   2.231   0.000  0.00  0.00    +0.000 NA
ATOM     17  C   UNL     1      -0.543   1.819   0.000  0.00  0.00    +0.000 C 
ATOM     18  C   UNL     1       0.171   2.231   0.000  0.00  0.00    +0.000 C 
ATOM     19  O   UNL     1      -0.543   0.994   0.000  0.00  0.00    +0.000 OA
ENDBRANCH  15  16
ENDBRANCH  13  15
ENDBRANCH   7  13
TORSDOF 4
