REMARK  Name = 
REMARK  15 active torsions:
REMARK  status: ('A' for Active; 'I' for Inactive)
REMARK    1  A    between atoms: C_3  and  C_4
REMARK    2  A    between atoms: C_4  and  C_5
REMARK    3  A    between atoms: C_5  and  C_7
REMARK    4  A    between atoms: C_7  and  C_9
REMARK    5  A    between atoms: C_13  and  C_84
REMARK    6  A    between atoms: C_21  and  C_78
REMARK    7  A    between atoms: C_25  and  C_75
REMARK    8  A    between atoms: C_29  and  C_70
REMARK    9  A    between atoms: C_41  and  C_63
REMARK   10  A    between atoms: C_45  and  C_58
REMARK   11  A    between atoms: C_49  and  C_54
REMARK   12  A    between atoms: C_58  and  C_59
REMARK   13  A    between atoms: C_63  and  C_64
REMARK   14  A    between atoms: C_70  and  C_71
REMARK   15  A    between atoms: C_78  and  C_79
REMARK                            x       y       z     vdW  Elec       q    Type
REMARK                         _______ _______ _______ _____ _____    ______ ____
ROOT
ATOM      1  C   UNL     1       2.665  -0.782   0.000  0.00  0.00    +0.000 C 
ATOM      2  C   UNL     1       1.971  -0.336   0.000  0.00  0.00    +0.000 C 
ATOM      3  O   UNL     1       2.010   0.488   0.000  0.00  0.00    +0.000 OA
ATOM      4  N   UNL     1       1.238  -0.715   0.000  0.00  0.00    +0.000 NA
ATOM      5  C   UNL     1       0.825   0.000   0.000  0.00  0.00    +0.000 C 
ATOM      6  C   UNL     1       0.000   0.000   0.000  0.00  0.00    +0.000 C 
ATOM      7  O   UNL     1      -0.412   0.715   0.000  0.00  0.00    +0.000 OA
ATOM      8  N   UNL     1      -0.412  -0.715   0.000  0.00  0.00    +0.000 N 
ATOM      9  C   UNL     1      -1.146  -0.336   0.000  0.00  0.00    +0.000 C 
ATOM     10  C   UNL     1      -1.840  -0.782   0.000  0.00  0.00    +0.000 C 
ATOM     11  O   UNL     1      -2.573  -0.404   0.000  0.00  0.00    +0.000 OA
ATOM     12  N   UNL     1      -1.801  -1.607   0.000  0.00  0.00    +0.000 N 
ATOM     13  C   UNL     1      -2.622  -1.685   0.000  0.00  0.00    +0.000 C 
ATOM     14  C   UNL     1      -2.965  -2.435   0.000  0.00  0.00    +0.000 C 
ATOM     15  O   UNL     1      -3.786  -2.514   0.000  0.00  0.00    +0.000 OA
ATOM     16  N   UNL     1      -2.486  -3.107   0.000  0.00  0.00    +0.000 NA
ATOM     17  C   UNL     1      -3.135  -3.617   0.000  0.00  0.00    +0.000 C 
ATOM     18  C   UNL     1      -3.017  -4.434   0.000  0.00  0.00    +0.000 C 
ATOM     19  O   UNL     1      -3.666  -4.944   0.000  0.00  0.00    +0.000 OA
ATOM     20  N   UNL     1      -2.251  -4.741   0.000  0.00  0.00    +0.000 N 
ATOM     21  C   UNL     1      -2.521  -5.520   0.000  0.00  0.00    +0.000 C 
ATOM     22  C   UNL     1      -1.981  -6.144   0.000  0.00  0.00    +0.000 C 
ATOM     23  O   UNL     1      -2.251  -6.923   0.000  0.00  0.00    +0.000 OA
ATOM     24  N   UNL     1      -1.171  -5.988   0.000  0.00  0.00    +0.000 NA
ATOM     25  C   UNL     1      -0.976  -6.789   0.000  0.00  0.00    +0.000 C 
ATOM     26  C   UNL     1      -0.185  -7.022   0.000  0.00  0.00    +0.000 C 
ATOM     27  O   UNL     1       0.010  -7.824   0.000  0.00  0.00    +0.000 OA
ATOM     28  N   UNL     1       0.412  -6.452   0.000  0.00  0.00    +0.000 NA
ATOM     29  C   UNL     1       1.010  -7.022   0.000  0.00  0.00    +0.000 C 
ATOM     30  C   UNL     1       1.801  -6.789   0.000  0.00  0.00    +0.000 C 
ATOM     31  O   UNL     1       2.398  -7.359   0.000  0.00  0.00    +0.000 OA
ATOM     32  N   UNL     1       1.996  -5.988   0.000  0.00  0.00    +0.000 N 
ATOM     33  C   UNL     1       2.806  -6.144   0.000  0.00  0.00    +0.000 C 
ATOM     34  C   UNL     1       3.346  -5.520   0.000  0.00  0.00    +0.000 C 
ATOM     35  O   UNL     1       4.156  -5.676   0.000  0.00  0.00    +0.000 OA
ATOM     36  N   UNL     1       3.076  -4.741   0.000  0.00  0.00    +0.000 N 
ATOM     37  C   UNL     1       3.842  -4.434   0.000  0.00  0.00    +0.000 C 
ATOM     38  C   UNL     1       3.959  -3.617   0.000  0.00  0.00    +0.000 C 
ATOM     39  O   UNL     1       4.725  -3.311   0.000  0.00  0.00    +0.000 OA
ATOM     40  N   UNL     1       3.311  -3.107   0.000  0.00  0.00    +0.000 N 
ATOM     41  C   UNL     1       3.790  -2.435   0.000  0.00  0.00    +0.000 C 
ATOM     42  C   UNL     1       3.447  -1.685   0.000  0.00  0.00    +0.000 C 
ATOM     43  O   UNL     1       4.110  -1.194   0.000  0.00  0.00    +0.000 OA
ATOM     44  N   UNL     1       2.626  -1.607   0.000  0.00  0.00    +0.000 N 
ATOM     45  C   UNL     1       2.002  -2.147   0.000  0.00  0.00    +0.000 C 
ATOM     46  C   UNL     1       2.494  -3.225   0.000  0.00  0.00    +0.000 C 
ATOM     47  C   UNL     1       2.326  -4.398   0.000  0.00  0.00    +0.000 C 
ATOM     48  C   UNL     1       1.550  -5.294   0.000  0.00  0.00    +0.000 C 
ATOM     49  C   UNL     1       0.815  -7.824   0.000  0.00  0.00    +0.000 C 
ATOM     50  C   UNL     1      -1.573  -7.359   0.000  0.00  0.00    +0.000 C 
ATOM     51  C   UNL     1      -1.501  -4.398   0.000  0.00  0.00    +0.000 C 
ATOM     52  C   UNL     1      -1.177  -2.147   0.000  0.00  0.00    +0.000 C 
ATOM     53  C   UNL     1      -0.180  -1.506   0.000  0.00  0.00    +0.000 C 
ENDROOT
BRANCH   5  54
ATOM     54  C   UNL     1       1.238   0.715   0.000  0.00  0.00    +0.000 C 
ATOM     55  C   UNL     1       0.825   1.429   0.000  0.00  0.00    +0.000 C 
ATOM     56  C   UNL     1       2.022   0.969   0.000  0.00  0.00    +0.000 C 
ENDBRANCH   5  54
BRANCH  41  57
ATOM     57  C   UNL     1       4.611  -2.514   0.000  0.00  0.00    +0.000 C 
ATOM     58  C   UNL     1       5.089  -1.842   0.000  0.00  0.00    +0.000 C 
ATOM     59  C   UNL     1       5.169  -3.122   0.000  0.00  0.00    +0.000 C 
ENDBRANCH  41  57
BRANCH  17  60
ATOM     60  C   UNL     1      -3.900  -3.311   0.000  0.00  0.00    +0.000 C 
ATOM     61  C   UNL     1      -4.549  -3.821   0.000  0.00  0.00    +0.000 C 
ATOM     62  C   UNL     1      -4.264  -2.570   0.000  0.00  0.00    +0.000 C 
ENDBRANCH  17  60
BRANCH   1  63
ATOM     63  C   UNL     1       3.398  -0.404   0.000  0.00  0.00    +0.000 C 
ATOM     64  O   UNL     1       4.092  -0.851   0.000  0.00  0.00    +0.000 OA
BRANCH  63  65
ATOM     65  C   UNL     1       3.437   0.420   0.000  0.00  0.00    +0.000 C 
ATOM     66  C   UNL     1       4.171   0.798   0.000  0.00  0.00    +0.000 C 
BRANCH  65  67
ATOM     67  C   UNL     1       2.743   0.866   0.000  0.00  0.00    +0.000 C 
BRANCH  67  70
ATOM     68  C   UNL     1       3.555   2.892   0.000  0.00  0.00    +0.000 C 
ATOM     69  C   UNL     1       3.516   2.068   0.000  0.00  0.00    +0.000 C 
ATOM     70  C   UNL     1       2.783   1.690   0.000  0.00  0.00    +0.000 C 
ENDBRANCH  67  70
ENDBRANCH  65  67
ENDBRANCH  63  65
ENDBRANCH   1  63
BRANCH  21  71
ATOM     71  C   UNL     1      -3.331  -5.676   0.000  0.00  0.00    +0.000 C 
BRANCH  71  72
ATOM     72  C   UNL     1      -3.601  -6.456   0.000  0.00  0.00    +0.000 C 
ATOM     73  C   UNL     1      -3.061  -7.080   0.000  0.00  0.00    +0.000 C 
ATOM     74  C   UNL     1      -4.411  -6.612   0.000  0.00  0.00    +0.000 C 
ENDBRANCH  71  72
ENDBRANCH  21  71
BRANCH  37  75
ATOM     75  C   UNL     1       4.491  -4.944   0.000  0.00  0.00    +0.000 C 
BRANCH  75  76
ATOM     76  C   UNL     1       5.256  -4.637   0.000  0.00  0.00    +0.000 C 
ATOM     77  C   UNL     1       5.374  -3.821   0.000  0.00  0.00    +0.000 C 
ATOM     78  C   UNL     1       5.905  -5.147   0.000  0.00  0.00    +0.000 C 
ENDBRANCH  75  76
ENDBRANCH  37  75
BRANCH  13  79
ATOM     79  C   UNL     1      -3.100  -1.013   0.000  0.00  0.00    +0.000 C 
BRANCH  79  80
ATOM     80  C   UNL     1      -3.922  -1.091   0.000  0.00  0.00    +0.000 C 
ATOM     81  C   UNL     1      -4.264  -1.842   0.000  0.00  0.00    +0.000 C 
ATOM     82  C   UNL     1      -4.400  -0.419   0.000  0.00  0.00    +0.000 C 
ENDBRANCH  79  80
ENDBRANCH  13  79
BRANCH  33  83
ATOM     83  C   UNL     1       3.076  -6.923   0.000  0.00  0.00    +0.000 C 
BRANCH  83  84
ATOM     84  C   UNL     1       3.886  -7.080   0.000  0.00  0.00    +0.000 C 
ATOM     85  C   UNL     1       4.426  -6.456   0.000  0.00  0.00    +0.000 C 
ATOM     86  C   UNL     1       4.155  -7.859   0.000  0.00  0.00    +0.000 C 
ENDBRANCH  83  84
ENDBRANCH  33  83
TORSDOF 15
