REMARK  Name = 
REMARK  4 active torsions:
REMARK  status: ('A' for Active; 'I' for Inactive)
REMARK    1  A    between atoms: N_2  and  C_5
REMARK    2  A    between atoms: C_3  and  C_30
REMARK    3  A    between atoms: C_7  and  N_13
REMARK    4  A    between atoms: C_12  and  C_16
REMARK                            x       y       z     vdW  Elec       q    Type
REMARK                         _______ _______ _______ _____ _____    ______ ____
ROOT
ATOM      1  C   UNL     1      21.700 -16.582   0.000  0.00  0.00    +0.000 A 
ATOM      2  N   UNL     1      22.401 -16.994   0.000  0.00  0.00    +0.000 N 
ATOM      3  C   UNL     1      20.998 -16.994   0.000  0.00  0.00    +0.000 A 
ATOM      4  C   UNL     1      21.700 -15.757   0.000  0.00  0.00    +0.000 A 
ATOM      5  C   UNL     1      23.143 -16.582   0.000  0.00  0.00    +0.000 A 
ATOM      6  C   UNL     1      20.256 -16.582   0.000  0.00  0.00    +0.000 A 
ATOM      7  C   UNL     1      22.401 -15.344   0.000  0.00  0.00    +0.000 A 
ATOM      8  C   UNL     1      20.998 -15.344   0.000  0.00  0.00    +0.000 A 
ATOM      9  C   UNL     1      23.143 -15.757   0.000  0.00  0.00    +0.000 A 
ATOM     10  C   UNL     1      20.256 -15.757   0.000  0.00  0.00    +0.000 A 
ATOM     11  O   UNL     1      22.401 -14.560   0.000  0.00  0.00    +0.000 OA
ATOM     12  F   UNL     1      19.555 -15.344   0.000  0.00  0.00    +0.000 F 
ENDROOT
BRANCH   6  13
ATOM     13  N   UNL     1      19.596 -17.118   0.000  0.00  0.00    +0.000 N 
ATOM     14  C   UNL     1      19.101 -16.458   0.000  0.00  0.00    +0.000 C 
ATOM     15  C   UNL     1      19.101 -17.778   0.000  0.00  0.00    +0.000 C 
ATOM     16  C   UNL     1      18.317 -16.705   0.000  0.00  0.00    +0.000 C 
ATOM     17  C   UNL     1      18.317 -17.530   0.000  0.00  0.00    +0.000 C 
ATOM     18  O   UNL     1      17.575 -16.293   0.000  0.00  0.00    +0.000 OA
ATOM     19  N   UNL     1      17.616 -17.943   0.000  0.00  0.00    +0.000 NA
ATOM     20  C   UNL     1      16.873 -16.705   0.000  0.00  0.00    +0.000 C 
ATOM     21  C   UNL     1      16.873 -17.530   0.000  0.00  0.00    +0.000 C 
ENDBRANCH   6  13
BRANCH   2  22
ATOM     22  C   UNL     1      22.401 -17.819   0.000  0.00  0.00    +0.000 C 
ATOM     23  C   UNL     1      22.814 -18.520   0.000  0.00  0.00    +0.000 C 
ATOM     24  C   UNL     1      21.988 -18.520   0.000  0.00  0.00    +0.000 C 
ENDBRANCH   2  22
BRANCH   9  25
ATOM     25  C   UNL     1      23.845 -15.344   0.000  0.00  0.00    +0.000 C 
ATOM     26  O   UNL     1      24.546 -15.757   0.000  0.00  0.00    +0.000 OA
ATOM     27  O   UNL     1      23.845 -14.560   0.000  0.00  0.00    +0.000 OA
ENDBRANCH   9  25
BRANCH   3  28
ATOM     28  C   UNL     1      21.009 -17.819   0.000  0.00  0.00    +0.000 C 
ATOM     29  N   UNL     1      21.009 -18.644   0.000  0.00  0.00    +0.000 NA
ENDBRANCH   3  28
TORSDOF 4
