REMARK  Name = 
REMARK  6 active torsions:
REMARK  status: ('A' for Active; 'I' for Inactive)
REMARK    1  A    between atoms: N_4  and  C_5
REMARK    2  A    between atoms: C_5  and  C_6
REMARK    3  A    between atoms: C_10  and  O_11
REMARK    4  A    between atoms: O_11  and  C_12
REMARK    5  A    between atoms: C_12  and  C_13
REMARK    6  A    between atoms: C_13  and  C_14
REMARK                            x       y       z     vdW  Elec       q    Type
REMARK                         _______ _______ _______ _____ _____    ______ ____
ROOT
ATOM      1  C   UNL     1      -1.429   1.650   0.000  0.00  0.00    +0.000 A 
ATOM      2  C   UNL     1      -1.429   2.475   0.000  0.00  0.00    +0.000 A 
ATOM      3  C   UNL     1      -0.715   2.888   0.000  0.00  0.00    +0.000 A 
ATOM      4 BR   UNL     1      -0.715   3.712   0.000  0.00  0.00    +0.000 Br
ATOM      5  C   UNL     1       0.000   2.475   0.000  0.00  0.00    +0.000 A 
ATOM      6  C   UNL     1       0.000   1.650   0.000  0.00  0.00    +0.000 A 
ATOM      7  C   UNL     1      -0.715   1.238   0.000  0.00  0.00    +0.000 A 
ENDROOT
BRANCH   1   8
ATOM      8  C   UNL     1      -2.143   1.238   0.000  0.00  0.00    +0.000 C 
BRANCH   8  12
ATOM      9  N   UNL     1      -2.858  -0.825   0.000  0.00  0.00    +0.000 NA
ATOM     10  C   UNL     1      -2.858   0.000   0.000  0.00  0.00    +0.000 C 
ATOM     11  N   UNL     1      -3.572   0.412   0.000  0.00  0.00    +0.000 NA
ATOM     12  N   UNL     1      -2.143   0.412   0.000  0.00  0.00    +0.000 NA
ENDBRANCH   8  12
ENDBRANCH   1   8
BRANCH   5  13
ATOM     13  O   UNL     1       0.715   2.888   0.000  0.00  0.00    +0.000 OA
BRANCH  13  14
ATOM     14  C   UNL     1       1.429   2.475   0.000  0.00  0.00    +0.000 C 
BRANCH  14  15
ATOM     15  C   UNL     1       2.143   2.888   0.000  0.00  0.00    +0.000 C 
BRANCH  15  16
ATOM     16  C   UNL     1       2.858   2.475   0.000  0.00  0.00    +0.000 C 
ATOM     17  F   UNL     1       3.572   2.888   0.000  0.00  0.00    +0.000 F 
ENDBRANCH  15  16
ENDBRANCH  14  15
ENDBRANCH  13  14
ENDBRANCH   5  13
TORSDOF 6
