REMARK  Name = 
REMARK  9 active torsions:
REMARK  status: ('A' for Active; 'I' for Inactive)
REMARK    1  A    between atoms: C_1  and  C_2
REMARK    2  A    between atoms: C_3  and  C_4
REMARK    3  A    between atoms: C_4  and  C_5
REMARK    4  A    between atoms: C_5  and  C_6
REMARK    5  A    between atoms: C_6  and  C_7
REMARK    6  A    between atoms: C_22  and  C_23
REMARK    7  A    between atoms: C_23  and  C_24
REMARK    8  A    between atoms: C_24  and  C_25
REMARK    9  A    between atoms: C_25  and  C_26
REMARK                            x       y       z     vdW  Elec       q    Type
REMARK                         _______ _______ _______ _____ _____    ______ ____
ROOT
ATOM      1  C   UNL     1      -0.320   0.301   0.000  0.00  0.00    +0.000 C 
ATOM      2  C   UNL     1       0.281   1.490   0.000  0.00  0.00    +0.000 C 
ATOM      3  C   UNL     1      -0.451   1.117   0.000  0.00  0.00    +0.000 C 
ATOM      4  C   UNL     1       0.863   0.910   0.000  0.00  0.00    +0.000 C 
ATOM      5  C   UNL     1       0.494   0.180   0.000  0.00  0.00    +0.000 C 
ATOM      6  O   UNL     1       1.671   0.784   0.000  0.00  0.00    +0.000 OA
ATOM      7  C   UNL     1       1.802  -0.022   0.000  0.00  0.00    +0.000 A 
ATOM      8  C   UNL     1       1.076  -0.391   0.000  0.00  0.00    +0.000 A 
ATOM      9  C   UNL     1       1.033  -1.202   0.000  0.00  0.00    +0.000 A 
ATOM     10  C   UNL     1       1.715  -1.645   0.000  0.00  0.00    +0.000 A 
ATOM     11  C   UNL     1       2.442  -1.272   0.000  0.00  0.00    +0.000 A 
ATOM     12  C   UNL     1       2.481  -0.462   0.000  0.00  0.00    +0.000 A 
ATOM     13  O   UNL     1      -1.190   1.492   0.000  0.00  0.00    +0.000 OA
ENDROOT
BRANCH   1  14
ATOM     14  C   UNL     1      -0.917  -0.265   0.000  0.00  0.00    +0.000 C 
ATOM     15  C   UNL     1      -1.686   0.038   0.000  0.00  0.00    +0.000 C 
BRANCH  15  16
ATOM     16  C   UNL     1      -2.333  -0.474   0.000  0.00  0.00    +0.000 C 
ATOM     17  O   UNL     1      -2.121  -1.273   0.000  0.00  0.00    +0.000 OA
BRANCH  16  18
ATOM     18  C   UNL     1      -3.103  -0.172   0.000  0.00  0.00    +0.000 C 
ATOM     19  C   UNL     1      -3.225   0.648   0.000  0.00  0.00    +0.000 C 
BRANCH  18  20
ATOM     20  C   UNL     1      -3.749  -0.684   0.000  0.00  0.00    +0.000 C 
BRANCH  20  21
ATOM     21  C   UNL     1      -4.519  -0.381   0.000  0.00  0.00    +0.000 C 
ATOM     22  C   UNL     1      -5.288  -0.078   0.000  0.00  0.00    +0.000 C 
ATOM     23  C   UNL     1      -6.058   0.225   0.000  0.00  0.00    +0.000 C 
ENDBRANCH  20  21
ENDBRANCH  18  20
ENDBRANCH  16  18
ENDBRANCH  15  16
ENDBRANCH   1  14
BRANCH  12  24
ATOM     24  C   UNL     1       3.195  -0.047   0.000  0.00  0.00    +0.000 C 
BRANCH  24  25
ATOM     25  C   UNL     1       3.911  -0.457   0.000  0.00  0.00    +0.000 C 
BRANCH  25  26
ATOM     26  C   UNL     1       4.627  -0.043   0.000  0.00  0.00    +0.000 C 
BRANCH  26  27
ATOM     27  C   UNL     1       5.342  -0.453   0.000  0.00  0.00    +0.000 C 
ATOM     28  O   UNL     1       6.058  -0.038   0.000  0.00  0.00    +0.000 OA
ATOM     29  O   UNL     1       5.344  -1.282   0.000  0.00  0.00    +0.000 OA
ENDBRANCH  26  27
ENDBRANCH  25  26
ENDBRANCH  24  25
ENDBRANCH  12  24
TORSDOF 9
