REMARK  Name = 
REMARK  13 active torsions:
REMARK  status: ('A' for Active; 'I' for Inactive)
REMARK    1  A    between atoms: C_22  and  C_34
REMARK    2  A    between atoms: C_22  and  C_47
REMARK    3  A    between atoms: C_26  and  C_37
REMARK    4  A    between atoms: C_26  and  C_38
REMARK    5  A    between atoms: C_30  and  O_53
REMARK    6  A    between atoms: C_31  and  C_36
REMARK    7  A    between atoms: C_32  and  O_58
REMARK    8  A    between atoms: C_33  and  C_43
REMARK    9  A    between atoms: C_35  and  O_58
REMARK   10  A    between atoms: C_39  and  O_54
REMARK   11  A    between atoms: C_40  and  O_55
REMARK   12  A    between atoms: C_41  and  O_56
REMARK   13  A    between atoms: C_42  and  C_44
REMARK                            x       y       z     vdW  Elec       q    Type
REMARK                         _______ _______ _______ _____ _____    ______ ____
ROOT
ATOM      1  C   UNL     1      -1.723   0.587   0.000  0.00  0.00    +0.000 C 
ATOM      2  C   UNL     1      -0.575  -1.190   0.000  0.00  0.00    +0.000 C 
ATOM      3  C   UNL     1      -1.382  -1.018   0.000  0.00  0.00    +0.000 C 
ATOM      4  C   UNL     1      -0.163  -0.475   0.000  0.00  0.00    +0.000 C 
ATOM      5  C   UNL     1      -1.468  -0.198   0.000  0.00  0.00    +0.000 C 
ATOM      6  O   UNL     1      -0.715   0.138   0.000  0.00  0.00    +0.000 OA
ENDROOT
BRANCH   4  15
ATOM      7  C   UNL     1       4.402  -0.802   0.000  0.00  0.00    +0.000 C 
ATOM      8  C   UNL     1       0.486   0.418   0.000  0.00  0.00    +0.000 C 
ATOM      9  C   UNL     1       0.658  -1.214   0.000  0.00  0.00    +0.000 C 
ATOM     10  C   UNL     1       1.442  -1.469   0.000  0.00  0.00    +0.000 C 
ATOM     11  C   UNL     1       2.340  -1.516   0.000  0.00  0.00    +0.000 C 
ATOM     12  C   UNL     1       3.577  -0.802   0.000  0.00  0.00    +0.000 C 
ATOM     13  C   UNL     1       3.165  -1.516   0.000  0.00  0.00    +0.000 C 
ATOM     14  C   UNL     1       3.165  -0.087   0.000  0.00  0.00    +0.000 C 
ATOM     15  C   UNL     1       0.658  -0.389   0.000  0.00  0.00    +0.000 C 
ATOM     16  C   UNL     1       1.927  -0.802   0.000  0.00  0.00    +0.000 C 
ATOM     17  O   UNL     1       3.577  -2.231   0.000  0.00  0.00    +0.000 OA
ATOM     18  O   UNL     1       2.340  -0.087   0.000  0.00  0.00    +0.000 OA
ATOM     19  O   UNL     1       1.442  -0.134   0.000  0.00  0.00    +0.000 OA
BRANCH  14  21
ATOM     20  C   UNL     1       3.165   1.342   0.000  0.00  0.00    +0.000 C 
ATOM     21  C   UNL     1       3.577   0.627   0.000  0.00  0.00    +0.000 C 
BRANCH  21  24
ATOM     22  C   UNL     1       6.877   0.627   0.000  0.00  0.00    +0.000 C 
ATOM     23  C   UNL     1       6.052   0.627   0.000  0.00  0.00    +0.000 C 
ATOM     24  C   UNL     1       4.402   0.627   0.000  0.00  0.00    +0.000 C 
ATOM     25  C   UNL     1       5.640   1.342   0.000  0.00  0.00    +0.000 C 
ATOM     26  C   UNL     1       4.815   1.342   0.000  0.00  0.00    +0.000 C 
ATOM     27  C   UNL     1       5.640  -0.087   0.000  0.00  0.00    +0.000 C 
ATOM     28  O   UNL     1       6.415  -0.369   0.000  0.00  0.00    +0.000 OA
ATOM     29  O   UNL     1       4.815  -0.087   0.000  0.00  0.00    +0.000 OA
BRANCH  25  31
ATOM     30  C   UNL     1       6.877   2.056   0.000  0.00  0.00    +0.000 C 
ATOM     31  O   UNL     1       6.052   2.056   0.000  0.00  0.00    +0.000 OA
ENDBRANCH  25  31
BRANCH  26  33
ATOM     32  C   UNL     1       4.815   2.771   0.000  0.00  0.00    +0.000 C 
ATOM     33  O   UNL     1       4.402   2.056   0.000  0.00  0.00    +0.000 OA
ENDBRANCH  26  33
BRANCH  27  34
ATOM     34  C   UNL     1       5.497  -0.900   0.000  0.00  0.00    +0.000 C 
BRANCH  34  35
ATOM     35  C   UNL     1       6.129  -1.430   0.000  0.00  0.00    +0.000 C 
ATOM     36  O   UNL     1       6.904  -1.148   0.000  0.00  0.00    +0.000 OA
ATOM     37  O   UNL     1       5.985  -2.243   0.000  0.00  0.00    +0.000 OA
ENDBRANCH  34  35
ENDBRANCH  27  34
ENDBRANCH  21  24
ENDBRANCH  14  21
ENDBRANCH   4  15
BRANCH   5  41
ATOM     38  C   UNL     1      -3.603  -0.230   0.000  0.00  0.00    +0.000 C 
ATOM     39  C   UNL     1      -3.431  -1.037   0.000  0.00  0.00    +0.000 C 
ATOM     40  C   UNL     1      -2.888   0.182   0.000  0.00  0.00    +0.000 C 
ATOM     41  C   UNL     1      -2.275  -0.369   0.000  0.00  0.00    +0.000 C 
ATOM     42  O   UNL     1      -2.611  -1.123   0.000  0.00  0.00    +0.000 OA
BRANCH  39  49
ATOM     43  C   UNL     1      -2.921  -2.606   0.000  0.00  0.00    +0.000 C 
ATOM     44  C   UNL     1      -5.639  -3.489   0.000  0.00  0.00    +0.000 C 
ATOM     45  C   UNL     1      -6.071  -2.479   0.000  0.00  0.00    +0.000 C 
ATOM     46  C   UNL     1      -4.280  -3.048   0.000  0.00  0.00    +0.000 C 
ATOM     47  C   UNL     1      -3.728  -2.435   0.000  0.00  0.00    +0.000 C 
ATOM     48  C   UNL     1      -5.087  -2.876   0.000  0.00  0.00    +0.000 C 
ATOM     49  C   UNL     1      -3.983  -1.650   0.000  0.00  0.00    +0.000 C 
ATOM     50  C   UNL     1      -5.342  -2.092   0.000  0.00  0.00    +0.000 C 
ATOM     51  O   UNL     1      -5.850  -1.442   0.000  0.00  0.00    +0.000 OA
ATOM     52  O   UNL     1      -4.790  -1.478   0.000  0.00  0.00    +0.000 OA
ENDBRANCH  39  49
BRANCH  40  53
ATOM     53  O   UNL     1      -2.802   1.003   0.000  0.00  0.00    +0.000 OA
BRANCH  53  58
ATOM     54  C   UNL     1      -5.644   1.302   0.000  0.00  0.00    +0.000 C 
ATOM     55  C   UNL     1      -3.383   2.308   0.000  0.00  0.00    +0.000 C 
ATOM     56  C   UNL     1      -4.891   1.637   0.000  0.00  0.00    +0.000 C 
ATOM     57  C   UNL     1      -4.051   2.793   0.000  0.00  0.00    +0.000 C 
ATOM     58  C   UNL     1      -3.470   1.488   0.000  0.00  0.00    +0.000 C 
ATOM     59  C   UNL     1      -4.804   2.458   0.000  0.00  0.00    +0.000 C 
ATOM     60  O   UNL     1      -4.223   1.152   0.000  0.00  0.00    +0.000 OA
BRANCH  59  62
ATOM     61  C   UNL     1      -6.226   2.607   0.000  0.00  0.00    +0.000 C 
ATOM     62  O   UNL     1      -5.472   2.943   0.000  0.00  0.00    +0.000 OA
ENDBRANCH  59  62
BRANCH  57  64
ATOM     63  C   UNL     1      -4.632   4.099   0.000  0.00  0.00    +0.000 C 
ATOM     64  O   UNL     1      -3.965   3.614   0.000  0.00  0.00    +0.000 OA
ENDBRANCH  57  64
ENDBRANCH  53  58
ENDBRANCH  40  53
ENDBRANCH   5  41
TORSDOF 13
REMARK  Name = 
REMARK  13 active torsions:
REMARK  status: ('A' for Active; 'I' for Inactive)
REMARK    1  A    between atoms: C_22  and  C_34
REMARK    2  A    between atoms: C_22  and  C_47
REMARK    3  A    between atoms: C_26  and  C_37
REMARK    4  A    between atoms: C_26  and  C_38
REMARK    5  A    between atoms: C_30  and  O_53
REMARK    6  A    between atoms: C_31  and  C_36
REMARK    7  A    between atoms: C_32  and  O_58
REMARK    8  A    between atoms: C_33  and  C_43
REMARK    9  A    between atoms: C_35  and  O_58
REMARK   10  A    between atoms: C_39  and  O_54
REMARK   11  A    between atoms: C_40  and  O_55
REMARK   12  A    between atoms: C_41  and  O_56
REMARK   13  A    between atoms: C_42  and  C_44
REMARK                            x       y       z     vdW  Elec       q    Type
REMARK                         _______ _______ _______ _____ _____    ______ ____
ROOT
ATOM      1  N   UNL     1       9.261   0.000   0.000  0.00  0.00    +0.000 NA
ENDROOT
TORSDOF 0
