REMARK  Name = 
REMARK  14 active torsions:
REMARK  status: ('A' for Active; 'I' for Inactive)
REMARK    1  A    between atoms: P_1  and  O_8
REMARK    2  A    between atoms: P_1  and  O_9
REMARK    3  A    between atoms: P_2  and  O_9
REMARK    4  A    between atoms: P_2  and  O_12
REMARK    5  A    between atoms: P_3  and  O_12
REMARK    6  A    between atoms: P_3  and  O_16
REMARK    7  A    between atoms: P_4  and  O_15
REMARK    8  A    between atoms: P_4  and  O_16
REMARK    9  A    between atoms: O_8  and  C_36
REMARK   10  A    between atoms: O_15  and  C_46
REMARK   11  A    between atoms: N_22  and  C_34
REMARK   12  A    between atoms: N_26  and  C_40
REMARK   13  A    between atoms: C_35  and  C_36
REMARK   14  A    between atoms: C_43  and  C_46
REMARK                            x       y       z     vdW  Elec       q    Type
REMARK                         _______ _______ _______ _____ _____    ______ ____
ROOT
ATOM      1  P   UNL     1       0.115   0.852   0.000  0.00  0.00    +0.000 P 
ATOM      2  O   UNL     1       0.530   0.139   0.000  0.00  0.00    +0.000 OA
ATOM      3  O   UNL     1      -0.300   1.565   0.000  0.00  0.00    +0.000 OA
ENDROOT
BRANCH   1   4
ATOM      4  O   UNL     1      -0.598   0.436   0.000  0.00  0.00    +0.000 OA
BRANCH   4   5
ATOM      5  P   UNL     1      -1.314   0.846   0.000  0.00  0.00    +0.000 P 
ATOM      6  O   UNL     1      -0.904   1.562   0.000  0.00  0.00    +0.000 OA
ATOM      7  O   UNL     1      -1.723   0.130   0.000  0.00  0.00    +0.000 OA
BRANCH   5   8
ATOM      8  O   UNL     1      -2.030   1.256   0.000  0.00  0.00    +0.000 OA
BRANCH   8   9
ATOM      9  P   UNL     1      -2.743   0.841   0.000  0.00  0.00    +0.000 P 
ATOM     10  O   UNL     1      -2.327   0.128   0.000  0.00  0.00    +0.000 OA
ATOM     11  O   UNL     1      -3.158   1.554   0.000  0.00  0.00    +0.000 OA
BRANCH   9  12
ATOM     12  O   UNL     1      -3.455   0.425   0.000  0.00  0.00    +0.000 OA
BRANCH  12  13
ATOM     13  C   UNL     1      -4.172   0.835   0.000  0.00  0.00    +0.000 C 
BRANCH  13  21
ATOM     14  O   UNL     1      -7.084   1.640   0.000  0.00  0.00    +0.000 OA
ATOM     15  N   UNL     1      -5.632  -0.863   0.000  0.00  0.00    +0.000 N 
ATOM     16  N   UNL     1      -5.632   0.844   0.000  0.00  0.00    +0.000 NA
ATOM     17  N   UNL     1      -7.084  -0.835   0.000  0.00  0.00    +0.000 N 
ATOM     18  N   UNL     1      -7.798   0.403   0.000  0.00  0.00    +0.000 NA
ATOM     19  N   UNL     1      -8.513  -0.835   0.000  0.00  0.00    +0.000 N 
ATOM     20  C   UNL     1      -4.885  -0.439   0.000  0.00  0.00    +0.000 C 
ATOM     21  C   UNL     1      -4.885   0.420   0.000  0.00  0.00    +0.000 C 
ATOM     22  C   UNL     1      -6.370  -0.422   0.000  0.00  0.00    +0.000 A 
ATOM     23  C   UNL     1      -6.370   0.403   0.000  0.00  0.00    +0.000 A 
ATOM     24  C   UNL     1      -7.084   0.815   0.000  0.00  0.00    +0.000 A 
ATOM     25  C   UNL     1      -7.798  -0.422   0.000  0.00  0.00    +0.000 A 
ATOM     26  H   UNL     1      -5.638  -1.375   0.000  0.00  0.00    +0.000 HD
ATOM     27  H   UNL     1      -7.084  -1.346   0.000  0.00  0.00    +0.000 HD
ATOM     28  H   UNL     1      -8.956  -0.579   0.000  0.00  0.00    +0.000 HD
ATOM     29  H   UNL     1      -8.513  -1.346   0.000  0.00  0.00    +0.000 HD
ENDBRANCH  13  21
ENDBRANCH  12  13
ENDBRANCH   9  12
ENDBRANCH   8   9
ENDBRANCH   5   8
ENDBRANCH   4   5
ENDBRANCH   1   4
BRANCH   1  30
ATOM     30  O   UNL     1       0.828   1.267   0.000  0.00  0.00    +0.000 OA
BRANCH  30  31
ATOM     31  P   UNL     1       1.544   0.857   0.000  0.00  0.00    +0.000 P 
ATOM     32  O   UNL     1       1.954   1.573   0.000  0.00  0.00    +0.000 OA
ATOM     33  O   UNL     1       1.134   0.141   0.000  0.00  0.00    +0.000 OA
BRANCH  31  34
ATOM     34  O   UNL     1       2.260   0.447   0.000  0.00  0.00    +0.000 OA
BRANCH  34  35
ATOM     35  C   UNL     1       2.973   0.863   0.000  0.00  0.00    +0.000 C 
BRANCH  35  42
ATOM     36  O   UNL     1       4.441   0.791   0.000  0.00  0.00    +0.000 OA
ATOM     37  O   UNL     1       4.925  -1.288   0.000  0.00  0.00    +0.000 OA
ATOM     38  O   UNL     1       3.168  -0.922   0.000  0.00  0.00    +0.000 OA
ATOM     39  C   UNL     1       4.586  -0.536   0.000  0.00  0.00    +0.000 C 
ATOM     40  C   UNL     1       3.779  -0.367   0.000  0.00  0.00    +0.000 C 
ATOM     41  C   UNL     1       4.996   0.180   0.000  0.00  0.00    +0.000 C 
ATOM     42  C   UNL     1       3.689   0.453   0.000  0.00  0.00    +0.000 C 
BRANCH  41  43
ATOM     43  N   UNL     1       5.816   0.270   0.000  0.00  0.00    +0.000 N 
ATOM     44  N   UNL     1       7.026   0.817   0.000  0.00  0.00    +0.000 NA
ATOM     45  N   UNL     1       6.285  -1.159   0.000  0.00  0.00    +0.000 NA
ATOM     46  N   UNL     1       7.707  -1.300   0.000  0.00  0.00    +0.000 NA
ATOM     47  C   UNL     1       6.367  -0.338   0.000  0.00  0.00    +0.000 A 
ATOM     48  C   UNL     1       6.223   0.982   0.000  0.00  0.00    +0.000 A 
ATOM     49  C   UNL     1       7.119   0.002   0.000  0.00  0.00    +0.000 A 
ATOM     50  C   UNL     1       7.789  -0.479   0.000  0.00  0.00    +0.000 A 
ATOM     51  C   UNL     1       6.955  -1.640   0.000  0.00  0.00    +0.000 A 
BRANCH  50  52
ATOM     52  N   UNL     1       8.540  -0.140   0.000  0.00  0.00    +0.000 N 
ATOM     53  H   UNL     1       8.956  -0.438   0.000  0.00  0.00    +0.000 HD
ATOM     54  H   UNL     1       8.591   0.369   0.000  0.00  0.00    +0.000 HD
ENDBRANCH  50  52
ENDBRANCH  41  43
ENDBRANCH  35  42
ENDBRANCH  34  35
ENDBRANCH  31  34
ENDBRANCH  30  31
ENDBRANCH   1  30
TORSDOF 14
