REMARK  Name = 
REMARK  0 active torsions:
REMARK  status: ('A' for Active; 'I' for Inactive)
REMARK                            x       y       z     vdW  Elec       q    Type
REMARK                         _______ _______ _______ _____ _____    ______ ____
ROOT
ATOM      1  O   UNL     1       3.567   2.455   0.000  0.00  0.00    +0.000 OA
ATOM      2  O   UNL     1      -0.683  -2.479   0.000  0.00  0.00    +0.000 OA
ATOM      3  C   UNL     1       0.700  -0.037   0.000  0.00  0.00    +0.000 C 
ATOM      4  C   UNL     1       0.700   0.754   0.000  0.00  0.00    +0.000 C 
ATOM      5  C   UNL     1       1.417   1.179   0.000  0.00  0.00    +0.000 C 
ATOM      6  C   UNL     1       0.017  -0.438   0.000  0.00  0.00    +0.000 C 
ATOM      7  C   UNL     1       2.134   0.771   0.000  0.00  0.00    +0.000 C 
ATOM      8  C   UNL     1       1.417  -0.463   0.000  0.00  0.00    +0.000 C 
ATOM      9  C   UNL     1       2.134  -0.054   0.000  0.00  0.00    +0.000 C 
ATOM     10  C   UNL     1       2.884   1.196   0.000  0.00  0.00    +0.000 C 
ATOM     11  C   UNL     1       0.017   1.146   0.000  0.00  0.00    +0.000 C 
ATOM     12  C   UNL     1      -0.675  -0.037   0.000  0.00  0.00    +0.000 C 
ATOM     13  C   UNL     1       1.392   2.038   0.000  0.00  0.00    +0.000 C 
ATOM     14  C   UNL     1       0.025  -1.263   0.000  0.00  0.00    +0.000 C 
ATOM     15  C   UNL     1      -0.675   0.754   0.000  0.00  0.00    +0.000 C 
ATOM     16  C   UNL     1      -1.400  -1.271   0.000  0.00  0.00    +0.000 C 
ATOM     17  C   UNL     1       0.975  -0.788   0.000  0.00  0.00    +0.000 C 
ATOM     18  C   UNL     1      -1.392  -0.446   0.000  0.00  0.00    +0.000 C 
ATOM     19  C   UNL     1       2.884   2.054   0.000  0.00  0.00    +0.000 C 
ATOM     20  C   UNL     1       0.725   1.571   0.000  0.00  0.00    +0.000 C 
ATOM     21  C   UNL     1      -0.683  -1.679   0.000  0.00  0.00    +0.000 C 
ATOM     22  C   UNL     1       2.134   2.479   0.000  0.00  0.00    +0.000 C 
ATOM     23  C   UNL     1       0.525  -1.046   0.000  0.00  0.00    +0.000 C 
ATOM     24  C   UNL     1      -2.125   0.004   0.000  0.00  0.00    +0.000 C 
ATOM     25  C   UNL     1      -2.142  -1.704   0.000  0.00  0.00    +0.000 C 
ATOM     26  C   UNL     1       3.275   0.504   0.000  0.00  0.00    +0.000 C 
ATOM     27  C   UNL     1       3.676   1.188   0.000  0.00  0.00    +0.000 C 
ATOM     28  C   UNL     1      -2.884  -0.412   0.000  0.00  0.00    +0.000 C 
ATOM     29  C   UNL     1      -2.892  -1.279   0.000  0.00  0.00    +0.000 C 
ATOM     30  C   UNL     1      -1.409  -2.063   0.000  0.00  0.00    +0.000 C 
ATOM     31  C   UNL     1      -3.267   0.279   0.000  0.00  0.00    +0.000 C 
ATOM     32  C   UNL     1      -3.676  -0.404   0.000  0.00  0.00    +0.000 C 
ENDROOT
TORSDOF 0
