REMARK  Name = 
REMARK  7 active torsions:
REMARK  status: ('A' for Active; 'I' for Inactive)
REMARK    1  A    between atoms: N_4  and  C_9
REMARK    2  A    between atoms: C_5  and  O_13
REMARK    3  A    between atoms: C_7  and  O_15
REMARK    4  A    between atoms: C_20  and  N_22
REMARK    5  A    between atoms: N_22  and  C_27
REMARK    6  A    between atoms: C_24  and  N_29
REMARK    7  A    between atoms: N_30  and  C_35
REMARK                            x       y       z     vdW  Elec       q    Type
REMARK                         _______ _______ _______ _____ _____    ______ ____
ROOT
ATOM      1  C   UNL     1      -0.360  -1.848   0.000  0.00  0.00    +0.000 C 
ATOM      2  O   UNL     1      -0.360  -1.023   0.000  0.00  0.00    +0.000 OA
ATOM      3  N   UNL     1      -1.074  -2.260   0.000  0.00  0.00    +0.000 N 
ATOM      4  N   UNL     1       0.355  -2.261   0.000  0.00  0.00    +0.000 NA
ATOM      5  N   UNL     1      -3.212  -1.026   0.000  0.00  0.00    +0.000 NA
ATOM      6  N   UNL     1      -2.504  -2.259   0.000  0.00  0.00    +0.000 NA
ATOM      7  C   UNL     1      -3.212  -1.846   0.000  0.00  0.00    +0.000 A 
ATOM      8  C   UNL     1      -1.788  -1.028   0.000  0.00  0.00    +0.000 A 
ATOM      9  C   UNL     1      -2.502  -0.615   0.000  0.00  0.00    +0.000 A 
ATOM     10  C   UNL     1      -1.788  -1.847   0.000  0.00  0.00    +0.000 A 
ATOM     11  C   UNL     1      -1.074  -3.085   0.000  0.00  0.00    +0.000 C 
ENDROOT
BRANCH   4  16
ATOM     12  C   UNL     1       1.783  -0.612   0.000  0.00  0.00    +0.000 A 
ATOM     13  C   UNL     1       2.498  -1.024   0.000  0.00  0.00    +0.000 A 
ATOM     14  C   UNL     1       2.498  -1.850   0.000  0.00  0.00    +0.000 A 
ATOM     15  C   UNL     1       1.784  -2.262   0.000  0.00  0.00    +0.000 A 
ATOM     16  C   UNL     1       1.069  -1.849   0.000  0.00  0.00    +0.000 A 
ATOM     17  C   UNL     1       1.069  -1.024   0.000  0.00  0.00    +0.000 A 
ATOM     18 CL   UNL     1       0.355  -0.611   0.000  0.00  0.00    +0.000 Cl
ATOM     19 CL   UNL     1       1.784  -3.087   0.000  0.00  0.00    +0.000 Cl
BRANCH  14  20
ATOM     20  O   UNL     1       3.212  -2.263   0.000  0.00  0.00    +0.000 OA
ATOM     21  C   UNL     1       3.212  -3.087   0.000  0.00  0.00    +0.000 C 
ENDBRANCH  14  20
BRANCH  12  22
ATOM     22  O   UNL     1       1.783   0.214   0.000  0.00  0.00    +0.000 OA
ATOM     23  C   UNL     1       2.498   0.626   0.000  0.00  0.00    +0.000 C 
ENDBRANCH  12  22
ENDBRANCH   4  16
BRANCH   9  24
ATOM     24  N   UNL     1      -2.501   0.210   0.000  0.00  0.00    +0.000 NA
BRANCH  24  29
ATOM     25  C   UNL     1      -1.081   1.858   0.000  0.00  0.00    +0.000 A 
ATOM     26  C   UNL     1      -0.366   1.439   0.000  0.00  0.00    +0.000 A 
ATOM     27  C   UNL     1      -0.367   0.620   0.000  0.00  0.00    +0.000 A 
ATOM     28  C   UNL     1      -1.082   0.208   0.000  0.00  0.00    +0.000 A 
ATOM     29  C   UNL     1      -1.791   0.621   0.000  0.00  0.00    +0.000 A 
ATOM     30  C   UNL     1      -1.790   1.446   0.000  0.00  0.00    +0.000 A 
BRANCH  26  31
ATOM     31  N   UNL     1       0.349   1.851   0.000  0.00  0.00    +0.000 N 
ATOM     32  N   UNL     1       1.780   2.674   0.000  0.00  0.00    +0.000 NA
ATOM     33  C   UNL     1       1.779   1.849   0.000  0.00  0.00    +0.000 C 
ATOM     34  C   UNL     1       0.350   2.675   0.000  0.00  0.00    +0.000 C 
ATOM     35  C   UNL     1       1.065   3.087   0.000  0.00  0.00    +0.000 C 
ATOM     36  C   UNL     1       1.063   1.438   0.000  0.00  0.00    +0.000 C 
BRANCH  32  37
ATOM     37  C   UNL     1       2.495   3.085   0.000  0.00  0.00    +0.000 C 
ATOM     38  C   UNL     1       3.208   2.673   0.000  0.00  0.00    +0.000 C 
ENDBRANCH  32  37
ENDBRANCH  26  31
ENDBRANCH  24  29
ENDBRANCH   9  24
TORSDOF 7
