REMARK  Name = 
REMARK  3 active torsions:
REMARK  status: ('A' for Active; 'I' for Inactive)
REMARK    1  A    between atoms: C_1  and  C_4
REMARK    2  A    between atoms: C_11  and  C_13
REMARK    3  A    between atoms: C_15  and  C_17
REMARK                            x       y       z     vdW  Elec       q    Type
REMARK                         _______ _______ _______ _____ _____    ______ ____
ROOT
ATOM      1  C   UNL     1       0.001  -1.026   0.000  0.00  0.00    +0.000 C 
ATOM      2  C   UNL     1       0.001  -1.851   0.000  0.00  0.00    +0.000 C 
ATOM      3  C   UNL     1      -0.717  -0.608   0.000  0.00  0.00    +0.000 C 
ATOM      4  O   UNL     1       0.001  -0.202   0.000  0.00  0.00    +0.000 OA
ATOM      5  C   UNL     1      -0.719  -2.261   0.000  0.00  0.00    +0.000 C 
ATOM      6  C   UNL     1       0.720  -1.449   0.000  0.00  0.00    +0.000 C 
ATOM      7  C   UNL     1      -0.004  -2.686   0.000  0.00  0.00    +0.000 C 
ATOM      8  C   UNL     1      -1.429  -1.019   0.000  0.00  0.00    +0.000 C 
ATOM      9  C   UNL     1      -0.715   0.220   0.000  0.00  0.00    +0.000 C 
ATOM     10  C   UNL     1      -1.436  -1.843   0.000  0.00  0.00    +0.000 C 
ATOM     11  O   UNL     1      -2.156  -2.253   0.000  0.00  0.00    +0.000 OA
ENDROOT
BRANCH   1  12
ATOM     12  C   UNL     1       0.716  -0.618   0.000  0.00  0.00    +0.000 C 
ATOM     13  C   UNL     1       0.723   0.207   0.000  0.00  0.00    +0.000 C 
BRANCH  13  14
ATOM     14  C   UNL     1       1.438   0.615   0.000  0.00  0.00    +0.000 C 
ATOM     15  C   UNL     1       1.446   1.440   0.000  0.00  0.00    +0.000 C 
ATOM     16  C   UNL     1       2.156   0.197   0.000  0.00  0.00    +0.000 C 
BRANCH  15  17
ATOM     17  C   UNL     1       0.733   1.859   0.000  0.00  0.00    +0.000 C 
ATOM     18  O   UNL     1       0.738   2.686   0.000  0.00  0.00    +0.000 OA
ATOM     19  O   UNL     1       0.010   1.451   0.000  0.00  0.00    +0.000 OA
ENDBRANCH  15  17
ENDBRANCH  13  14
ENDBRANCH   1  12
TORSDOF 3
