REMARK  Name = 
REMARK  7 active torsions:
REMARK  status: ('A' for Active; 'I' for Inactive)
REMARK    1  A    between atoms: C_2  and  C_3
REMARK    2  A    between atoms: C_3  and  O_5
REMARK    3  A    between atoms: O_5  and  C_6
REMARK    4  A    between atoms: C_7  and  C_25
REMARK    5  A    between atoms: N_12  and  C_13
REMARK    6  A    between atoms: C_16  and  S_19
REMARK    7  A    between atoms: S_19  and  C_22
REMARK                            x       y       z     vdW  Elec       q    Type
REMARK                         _______ _______ _______ _____ _____    ______ ____
ROOT
ATOM      1  C   UNL     1      -1.429   8.378   0.000  0.00  0.00    +0.000 A 
ATOM      2  C   UNL     1      -1.429   9.203   0.000  0.00  0.00    +0.000 A 
ATOM      3  C   UNL     1      -0.715   9.615   0.000  0.00  0.00    +0.000 A 
ATOM      4  N   UNL     1       0.000   9.203   0.000  0.00  0.00    +0.000 NA
ATOM      5  C   UNL     1       0.000   8.378   0.000  0.00  0.00    +0.000 A 
ATOM      6  N   UNL     1      -0.715   7.965   0.000  0.00  0.00    +0.000 NA
ATOM      7  N   UNL     1       0.715   7.965   0.000  0.00  0.00    +0.000 NA
ENDROOT
BRANCH   7   8
ATOM      8  C   UNL     1       0.715   7.140   0.000  0.00  0.00    +0.000 A 
ATOM      9  C   UNL     1       1.429   6.728   0.000  0.00  0.00    +0.000 A 
ATOM     10  C   UNL     1       1.429   5.903   0.000  0.00  0.00    +0.000 A 
ATOM     11  C   UNL     1       0.715   5.490   0.000  0.00  0.00    +0.000 A 
ATOM     12  C   UNL     1       0.000   5.903   0.000  0.00  0.00    +0.000 A 
ATOM     13  C   UNL     1       0.000   6.728   0.000  0.00  0.00    +0.000 A 
BRANCH  11  14
ATOM     14  S   UNL     1       0.715   4.665   0.000  0.00  0.00    +0.000 S 
ATOM     15  N   UNL     1      -0.111   4.665   0.000  0.00  0.00    +0.000 NA
ATOM     16  O   UNL     1       1.540   4.665   0.000  0.00  0.00    +0.000 OA
BRANCH  14  17
ATOM     17  C   UNL     1       0.715   3.840   0.000  0.00  0.00    +0.000 C 
ATOM     18  C   UNL     1       1.127   3.126   0.000  0.00  0.00    +0.000 C 
ATOM     19  C   UNL     1       0.302   3.126   0.000  0.00  0.00    +0.000 C 
ENDBRANCH  14  17
ENDBRANCH  11  14
ENDBRANCH   7   8
BRANCH   2  20
ATOM     20  C   UNL     1      -2.143   9.615   0.000  0.00  0.00    +0.000 C 
ATOM     21  F   UNL     1      -2.858  10.028   0.000  0.00  0.00    +0.000 F 
ATOM     22  F   UNL     1      -1.731  10.330   0.000  0.00  0.00    +0.000 F 
ATOM     23  F   UNL     1      -2.556   8.901   0.000  0.00  0.00    +0.000 F 
ENDBRANCH   2  20
BRANCH   1  24
ATOM     24  O   UNL     1      -2.143   7.965   0.000  0.00  0.00    +0.000 OA
BRANCH  24  25
ATOM     25  C   UNL     1      -2.143   7.140   0.000  0.00  0.00    +0.000 C 
ATOM     26  C   UNL     1      -1.429   6.728   0.000  0.00  0.00    +0.000 C 
BRANCH  25  28
ATOM     27  C   UNL     1      -3.572   7.140   0.000  0.00  0.00    +0.000 C 
ATOM     28  C   UNL     1      -2.858   6.728   0.000  0.00  0.00    +0.000 C 
ATOM     29  O   UNL     1      -2.858   5.903   0.000  0.00  0.00    +0.000 OA
ENDBRANCH  25  28
ENDBRANCH  24  25
ENDBRANCH   1  24
TORSDOF 7
