REMARK  Name = 
REMARK  5 active torsions:
REMARK  status: ('A' for Active; 'I' for Inactive)
REMARK    1  A    between atoms: C_10  and  C_15
REMARK    2  A    between atoms: C_11  and  N_23
REMARK    3  A    between atoms: C_12  and  S_27
REMARK    4  A    between atoms: C_14  and  C_17
REMARK    5  A    between atoms: C_16  and  O_26
REMARK                            x       y       z     vdW  Elec       q    Type
REMARK                         _______ _______ _______ _____ _____    ______ ____
ROOT
ATOM      1  C   UNL     1      -0.655   1.805   0.000  0.00  0.00    +0.000 A 
ATOM      2  C   UNL     1      -1.322   2.290   0.000  0.00  0.00    +0.000 A 
ATOM      3  C   UNL     1      -0.910   1.021   0.000  0.00  0.00    +0.000 A 
ATOM      4  N   UNL     1      -1.990   1.805   0.000  0.00  0.00    +0.000 NA
ATOM      5  N   UNL     1      -1.735   1.021   0.000  0.00  0.00    +0.000 N 
ENDROOT
BRANCH   3   9
ATOM      6  C   UNL     1      -0.760  -0.401   0.000  0.00  0.00    +0.000 A 
ATOM      7  C   UNL     1      -0.275  -1.068   0.000  0.00  0.00    +0.000 A 
ATOM      8  C   UNL     1       0.396   0.439   0.000  0.00  0.00    +0.000 A 
ATOM      9  C   UNL     1      -0.425   0.353   0.000  0.00  0.00    +0.000 A 
ATOM     10  C   UNL     1       0.881  -0.228   0.000  0.00  0.00    +0.000 A 
ATOM     11  C   UNL     1       0.545  -0.982   0.000  0.00  0.00    +0.000 A 
ATOM     12  F   UNL     1       1.701  -0.142   0.000  0.00  0.00    +0.000 F 
BRANCH  11  14
ATOM     13  C   UNL     1       1.850  -1.563   0.000  0.00  0.00    +0.000 C 
ATOM     14  O   UNL     1       1.030  -1.649   0.000  0.00  0.00    +0.000 OA
ENDBRANCH  11  14
ENDBRANCH   3   9
BRANCH   5  19
ATOM     15  C   UNL     1      -3.040   0.439   0.000  0.00  0.00    +0.000 A 
ATOM     16  C   UNL     1      -1.884  -0.401   0.000  0.00  0.00    +0.000 A 
ATOM     17  C   UNL     1      -3.525  -0.228   0.000  0.00  0.00    +0.000 A 
ATOM     18  C   UNL     1      -2.369  -1.068   0.000  0.00  0.00    +0.000 A 
ATOM     19  C   UNL     1      -2.220   0.353   0.000  0.00  0.00    +0.000 A 
ATOM     20  C   UNL     1      -3.189  -0.982   0.000  0.00  0.00    +0.000 A 
BRANCH  20  24
ATOM     21  N   UNL     1      -4.159  -2.317   0.000  0.00  0.00    +0.000 NA
ATOM     22  O   UNL     1      -4.342  -1.164   0.000  0.00  0.00    +0.000 OA
ATOM     23  O   UNL     1      -3.007  -2.134   0.000  0.00  0.00    +0.000 OA
ATOM     24  S   UNL     1      -3.674  -1.649   0.000  0.00  0.00    +0.000 S 
ENDBRANCH  20  24
ENDBRANCH   5  19
BRANCH   2  25
ATOM     25  C   UNL     1      -1.322   3.115   0.000  0.00  0.00    +0.000 C 
ATOM     26  F   UNL     1      -2.037   3.528   0.000  0.00  0.00    +0.000 F 
ATOM     27  F   UNL     1      -0.608   3.528   0.000  0.00  0.00    +0.000 F 
ENDBRANCH   2  25
TORSDOF 5
