REMARK  Name = 
REMARK  3 active torsions:
REMARK  status: ('A' for Active; 'I' for Inactive)
REMARK    1  A    between atoms: C_2  and  C_3
REMARK    2  A    between atoms: C_2  and  C_19
REMARK    3  A    between atoms: C_10  and  C_12
REMARK                            x       y       z     vdW  Elec       q    Type
REMARK                         _______ _______ _______ _____ _____    ______ ____
ROOT
ATOM      1  C   UNL     1       3.352   1.935   0.000  0.00  0.00    +0.000 A 
ATOM      2  C   UNL     1       3.352   1.110   0.000  0.00  0.00    +0.000 A 
ATOM      3  C   UNL     1       2.638   0.698   0.000  0.00  0.00    +0.000 A 
ATOM      4  C   UNL     1       1.923   1.110   0.000  0.00  0.00    +0.000 A 
ATOM      5  C   UNL     1       1.923   1.935   0.000  0.00  0.00    +0.000 A 
ATOM      6  C   UNL     1       2.638   2.348   0.000  0.00  0.00    +0.000 A 
ATOM      7  N   UNL     1       1.139   2.190   0.000  0.00  0.00    +0.000 NA
ATOM      8  C   UNL     1       0.654   1.523   0.000  0.00  0.00    +0.000 A 
ATOM      9  O   UNL     1       1.139   0.856   0.000  0.00  0.00    +0.000 OA
ENDROOT
BRANCH   8  10
ATOM     10  C   UNL     1      -0.171   1.523   0.000  0.00  0.00    +0.000 A 
ATOM     11  C   UNL     1      -0.584   0.808   0.000  0.00  0.00    +0.000 A 
ATOM     12  C   UNL     1      -1.409   0.808   0.000  0.00  0.00    +0.000 A 
ATOM     13  C   UNL     1      -1.821   1.523   0.000  0.00  0.00    +0.000 A 
ATOM     14  C   UNL     1      -1.409   2.237   0.000  0.00  0.00    +0.000 A 
ATOM     15  C   UNL     1      -0.584   2.237   0.000  0.00  0.00    +0.000 A 
ATOM     16  F   UNL     1      -2.646   1.523   0.000  0.00  0.00    +0.000 F 
ENDBRANCH   8  10
BRANCH   1  18
ATOM     17  C   UNL     1       4.067   3.173   0.000  0.00  0.00    +0.000 C 
ATOM     18  C   UNL     1       4.067   2.348   0.000  0.00  0.00    +0.000 C 
BRANCH  18  19
ATOM     19  C   UNL     1       4.781   1.935   0.000  0.00  0.00    +0.000 C 
ATOM     20  O   UNL     1       5.496   2.348   0.000  0.00  0.00    +0.000 OA
ATOM     21  O   UNL     1       4.781   1.110   0.000  0.00  0.00    +0.000 OA
ENDBRANCH  18  19
ENDBRANCH   1  18
TORSDOF 3
