REMARK  Name = 
REMARK  11 active torsions:
REMARK  status: ('A' for Active; 'I' for Inactive)
REMARK    1  A    between atoms: C_3  and  O_16
REMARK    2  A    between atoms: C_6  and  C_7
REMARK    3  A    between atoms: C_7  and  C_8
REMARK    4  A    between atoms: C_8  and  C_9
REMARK    5  A    between atoms: C_9  and  C_10
REMARK    6  A    between atoms: C_10  and  N_11
REMARK    7  A    between atoms: O_16  and  C_17
REMARK    8  A    between atoms: C_17  and  C_18
REMARK    9  A    between atoms: C_21  and  C_23
REMARK   10  A    between atoms: C_24  and  C_25
REMARK   11  A    between atoms: C_28  and  C_31
REMARK                            x       y       z     vdW  Elec       q    Type
REMARK                         _______ _______ _______ _____ _____    ______ ____
ROOT
ATOM      1  C   UNL     1       6.239  -2.676   0.000  0.00  0.00    +0.000 C 
ENDROOT
BRANCH   1   2
ATOM      2  C   UNL     1       6.239  -1.851   0.000  0.00  0.00    +0.000 A 
ATOM      3  C   UNL     1       5.572  -1.366   0.000  0.00  0.00    +0.000 A 
ATOM      4  O   UNL     1       5.827  -0.582   0.000  0.00  0.00    +0.000 OA
ATOM      5  C   UNL     1       6.652  -0.582   0.000  0.00  0.00    +0.000 A 
ATOM      6  N   UNL     1       6.907  -1.366   0.000  0.00  0.00    +0.000 NA
BRANCH   5   7
ATOM      7  C   UNL     1       7.137   0.086   0.000  0.00  0.00    +0.000 C 
ATOM      8  C   UNL     1       6.801   0.839   0.000  0.00  0.00    +0.000 C 
BRANCH   8   9
ATOM      9  C   UNL     1       7.286   1.507   0.000  0.00  0.00    +0.000 A 
ATOM     10  C   UNL     1       6.951   2.260   0.000  0.00  0.00    +0.000 A 
ATOM     11  C   UNL     1       7.436   2.928   0.000  0.00  0.00    +0.000 A 
ATOM     12  C   UNL     1       8.256   2.842   0.000  0.00  0.00    +0.000 A 
ATOM     13  C   UNL     1       8.591   2.088   0.000  0.00  0.00    +0.000 A 
ATOM     14  C   UNL     1       8.107   1.421   0.000  0.00  0.00    +0.000 A 
BRANCH  12  15
ATOM     15  C   UNL     1       8.741   3.509   0.000  0.00  0.00    +0.000 C 
ATOM     16  F   UNL     1       9.226   4.177   0.000  0.00  0.00    +0.000 F 
ATOM     17  F   UNL     1       9.408   3.024   0.000  0.00  0.00    +0.000 F 
ATOM     18  F   UNL     1       8.073   3.994   0.000  0.00  0.00    +0.000 F 
ENDBRANCH  12  15
ENDBRANCH   8   9
ENDBRANCH   5   7
ENDBRANCH   1   2
BRANCH   1  19
ATOM     19  O   UNL     1       5.525  -3.089   0.000  0.00  0.00    +0.000 OA
BRANCH  19  22
ATOM     20  C   UNL     1       4.810  -5.151   0.000  0.00  0.00    +0.000 A 
ATOM     21  C   UNL     1       4.810  -4.326   0.000  0.00  0.00    +0.000 A 
ATOM     22  C   UNL     1       5.525  -3.914   0.000  0.00  0.00    +0.000 A 
ATOM     23  C   UNL     1       6.239  -4.326   0.000  0.00  0.00    +0.000 A 
ATOM     24  C   UNL     1       6.239  -5.151   0.000  0.00  0.00    +0.000 A 
ATOM     25  C   UNL     1       5.525  -5.564   0.000  0.00  0.00    +0.000 A 
BRANCH  25  26
ATOM     26  C   UNL     1       5.525  -6.389   0.000  0.00  0.00    +0.000 C 
BRANCH  26  27
ATOM     27  C   UNL     1       6.239  -6.801   0.000  0.00  0.00    +0.000 C 
BRANCH  27  28
ATOM     28  C   UNL     1       6.239  -7.626   0.000  0.00  0.00    +0.000 C 
BRANCH  28  29
ATOM     29  C   UNL     1       6.954  -8.039   0.000  0.00  0.00    +0.000 C 
BRANCH  29  30
ATOM     30  N   UNL     1       6.954  -8.864   0.000  0.00  0.00    +0.000 N 
ATOM     31  C   UNL     1       7.621  -9.349   0.000  0.00  0.00    +0.000 A 
ATOM     32  C   UNL     1       7.366 -10.133   0.000  0.00  0.00    +0.000 A 
ATOM     33  N   UNL     1       6.541 -10.133   0.000  0.00  0.00    +0.000 NA
ATOM     34  N   UNL     1       6.286  -9.349   0.000  0.00  0.00    +0.000 NA
ENDBRANCH  29  30
ENDBRANCH  28  29
ENDBRANCH  27  28
ENDBRANCH  26  27
ENDBRANCH  25  26
ENDBRANCH  19  22
ENDBRANCH   1  19
TORSDOF 11
