REMARK  Name = 
REMARK  3 active torsions:
REMARK  status: ('A' for Active; 'I' for Inactive)
REMARK    1  A    between atoms: C_1  and  C_4
REMARK    2  A    between atoms: C_2  and  O_6
REMARK    3  A    between atoms: C_4  and  C_8
REMARK                            x       y       z     vdW  Elec       q    Type
REMARK                         _______ _______ _______ _____ _____    ______ ____
ROOT
ATOM      1  C   UNL     1      -0.361   0.754   0.000  0.00  0.00    +0.000 A 
ATOM      2  C   UNL     1      -0.361  -0.070   0.000  0.00  0.00    +0.000 A 
ATOM      3  N   UNL     1      -1.080   1.158   0.000  0.00  0.00    +0.000 NA
ATOM      4  N   UNL     1      -1.080  -0.474   0.000  0.00  0.00    +0.000 NA
ATOM      5  C   UNL     1      -1.795   0.746   0.000  0.00  0.00    +0.000 A 
ATOM      6  C   UNL     1      -1.795  -0.060   0.000  0.00  0.00    +0.000 A 
ENDROOT
BRANCH   2   7
ATOM      7  O   UNL     1       0.359  -0.486   0.000  0.00  0.00    +0.000 OA
ATOM      8  C   UNL     1       0.359  -1.175   0.000  0.00  0.00    +0.000 C 
ENDBRANCH   2   7
BRANCH   1   9
ATOM      9  C   UNL     1       0.359   1.175   0.000  0.00  0.00    +0.000 C 
BRANCH   9  10
ATOM     10  C   UNL     1       1.071   0.754   0.000  0.00  0.00    +0.000 C 
ATOM     11  C   UNL     1       1.071   0.033   0.000  0.00  0.00    +0.000 C 
ATOM     12  C   UNL     1       1.795   1.175   0.000  0.00  0.00    +0.000 C 
ENDBRANCH   9  10
ENDBRANCH   1   9
TORSDOF 3
