REMARK  Name = 
REMARK  10 active torsions:
REMARK  status: ('A' for Active; 'I' for Inactive)
REMARK    1  A    between atoms: N_1  and  C_33
REMARK    2  A    between atoms: C_3  and  C_27
REMARK    3  A    between atoms: N_4  and  C_8
REMARK    4  A    between atoms: C_6  and  C_32
REMARK    5  A    between atoms: C_8  and  C_9
REMARK    6  A    between atoms: C_12  and  C_15
REMARK    7  A    between atoms: C_16  and  C_21
REMARK    8  A    between atoms: C_27  and  C_28
REMARK    9  A    between atoms: C_28  and  C_29
REMARK   10  A    between atoms: C_32  and  C_33
REMARK                            x       y       z     vdW  Elec       q    Type
REMARK                         _______ _______ _______ _____ _____    ______ ____
ROOT
ATOM      1  N   UNL     1      -1.071   2.451   0.000  0.00  0.00    +0.000 NA
ATOM      2  C   UNL     1      -1.072   1.627   0.000  0.00  0.00    +0.000 A 
ATOM      3  N   UNL     1      -0.356   1.214   0.000  0.00  0.00    +0.000 N 
ATOM      4  C   UNL     1       0.359   1.627   0.000  0.00  0.00    +0.000 A 
ATOM      5  C   UNL     1       0.359   2.457   0.000  0.00  0.00    +0.000 A 
ATOM      6  C   UNL     1      -0.358   2.864   0.000  0.00  0.00    +0.000 A 
ATOM      7  O   UNL     1       1.076   1.212   0.000  0.00  0.00    +0.000 OA
ATOM      8  C   UNL     1      -0.358   3.689   0.000  0.00  0.00    +0.000 C 
ENDROOT
BRANCH   3   9
ATOM      9  C   UNL     1      -0.356   0.389   0.000  0.00  0.00    +0.000 C 
BRANCH   9  10
ATOM     10  C   UNL     1       0.359  -0.024   0.000  0.00  0.00    +0.000 A 
ATOM     11  C   UNL     1       0.353  -0.851   0.000  0.00  0.00    +0.000 A 
ATOM     12  C   UNL     1       1.067  -1.263   0.000  0.00  0.00    +0.000 A 
ATOM     13  C   UNL     1       1.785  -0.851   0.000  0.00  0.00    +0.000 A 
ATOM     14  C   UNL     1       1.781  -0.019   0.000  0.00  0.00    +0.000 A 
ATOM     15  C   UNL     1       1.066   0.388   0.000  0.00  0.00    +0.000 A 
BRANCH  13  16
ATOM     16  C   UNL     1       2.496  -1.261   0.000  0.00  0.00    +0.000 A 
ATOM     17  C   UNL     1       2.496  -2.088   0.000  0.00  0.00    +0.000 A 
ATOM     18  C   UNL     1       3.211  -2.499   0.000  0.00  0.00    +0.000 A 
ATOM     19  C   UNL     1       3.928  -2.086   0.000  0.00  0.00    +0.000 A 
ATOM     20  C   UNL     1       3.922  -1.254   0.000  0.00  0.00    +0.000 A 
ATOM     21  C   UNL     1       3.210  -0.848   0.000  0.00  0.00    +0.000 A 
BRANCH  17  22
ATOM     22  C   UNL     1       1.846  -2.595   0.000  0.00  0.00    +0.000 A 
ATOM     23  N   UNL     1       1.053  -2.366   0.000  0.00  0.00    +0.000 NA
ATOM     24  N   UNL     1       0.591  -3.048   0.000  0.00  0.00    +0.000 NA
ATOM     25  N   UNL     1       1.097  -3.700   0.000  0.00  0.00    +0.000 NA
ATOM     26  N   UNL     1       1.872  -3.420   0.000  0.00  0.00    +0.000 NA
ENDBRANCH  17  22
ENDBRANCH  13  16
ENDBRANCH   9  10
ENDBRANCH   3   9
BRANCH   2  27
ATOM     27  C   UNL     1      -1.784   1.215   0.000  0.00  0.00    +0.000 C 
BRANCH  27  28
ATOM     28  C   UNL     1      -2.500   1.624   0.000  0.00  0.00    +0.000 C 
BRANCH  28  29
ATOM     29  C   UNL     1      -3.216   1.213   0.000  0.00  0.00    +0.000 C 
ATOM     30  C   UNL     1      -3.928   1.626   0.000  0.00  0.00    +0.000 C 
ENDBRANCH  28  29
ENDBRANCH  27  28
ENDBRANCH   2  27
BRANCH   5  31
ATOM     31  C   UNL     1       1.072   2.873   0.000  0.00  0.00    +0.000 C 
BRANCH  31  32
ATOM     32  C   UNL     1       1.786   2.461   0.000  0.00  0.00    +0.000 C 
ATOM     33  S   UNL     1       1.790   1.636   0.000  0.00  0.00    +0.000 S 
BRANCH  32  34
ATOM     34  N   UNL     1       2.502   2.875   0.000  0.00  0.00    +0.000 N 
ATOM     35  C   UNL     1       3.219   2.464   0.000  0.00  0.00    +0.000 C 
ATOM     36  C   UNL     1       2.499   3.700   0.000  0.00  0.00    +0.000 C 
ENDBRANCH  32  34
ENDBRANCH  31  32
ENDBRANCH   5  31
TORSDOF 10
