REMARK  Name = 
REMARK  1 active torsions:
REMARK  status: ('A' for Active; 'I' for Inactive)
REMARK    1  A    between atoms: C_19  and  C_20
REMARK                            x       y       z     vdW  Elec       q    Type
REMARK                         _______ _______ _______ _____ _____    ______ ____
ROOT
ATOM      1  C   UNL     1      -1.459   0.412   0.000  0.00  0.00    +0.000 A 
ATOM      2  C   UNL     1      -1.459  -0.411   0.000  0.00  0.00    +0.000 A 
ATOM      3  C   UNL     1      -0.744   0.825   0.000  0.00  0.00    +0.000 A 
ATOM      4  C   UNL     1      -2.173   0.825   0.000  0.00  0.00    +0.000 A 
ATOM      5  C   UNL     1      -0.744  -0.823   0.000  0.00  0.00    +0.000 A 
ATOM      6  C   UNL     1      -2.173  -0.823   0.000  0.00  0.00    +0.000 A 
ATOM      7  C   UNL     1      -0.030   0.412   0.000  0.00  0.00    +0.000 A 
ATOM      8  C   UNL     1      -0.744   1.651   0.000  0.00  0.00    +0.000 A 
ATOM      9  N   UNL     1      -2.173   1.651   0.000  0.00  0.00    +0.000 NA
ATOM     10  O   UNL     1      -2.888   0.412   0.000  0.00  0.00    +0.000 OA
ATOM     11  C   UNL     1      -0.030  -0.411   0.000  0.00  0.00    +0.000 A 
ATOM     12  C   UNL     1      -0.744  -1.649   0.000  0.00  0.00    +0.000 A 
ATOM     13  C   UNL     1      -2.173  -1.649   0.000  0.00  0.00    +0.000 A 
ATOM     14  N   UNL     1       0.754   0.667   0.000  0.00  0.00    +0.000 NA
ATOM     15  C   UNL     1      -1.459   2.062   0.000  0.00  0.00    +0.000 A 
ATOM     16  N   UNL     1       0.754  -0.665   0.000  0.00  0.00    +0.000 NA
ATOM     17  C   UNL     1      -1.459  -2.062   0.000  0.00  0.00    +0.000 A 
ATOM     18  F   UNL     1      -2.888  -2.062   0.000  0.00  0.00    +0.000 F 
ATOM     19  C   UNL     1       1.239   0.000   0.000  0.00  0.00    +0.000 A 
ENDROOT
BRANCH  19  20
ATOM     20  C   UNL     1       2.063   0.000   0.000  0.00  0.00    +0.000 C 
ATOM     21  C   UNL     1       2.475  -0.713   0.000  0.00  0.00    +0.000 C 
ATOM     22  C   UNL     1       2.475   0.715   0.000  0.00  0.00    +0.000 C 
ATOM     23  C   UNL     1       2.888   0.000   0.000  0.00  0.00    +0.000 C 
ENDBRANCH  19  20
TORSDOF 1
