REMARK  Name = 
REMARK  4 active torsions:
REMARK  status: ('A' for Active; 'I' for Inactive)
REMARK    1  A    between atoms: N_1  and  CA_2
REMARK    2  A    between atoms: CA_2  and  C_3
REMARK    3  A    between atoms: CA_2  and  CB_6
REMARK    4  A    between atoms: CB_6  and  CG_7
REMARK                            x       y       z     vdW  Elec       q    Type
REMARK                         _______ _______ _______ _____ _____    ______ ____
ROOT
ATOM      1  CA  PHE A   1       0.715   0.412   0.000  0.00  0.00    +0.000 C 
ENDROOT
BRANCH   1   2
ATOM      2  N   PHE A   1       0.715  -0.412   0.000  0.00  0.00    +0.000 NA
ATOM      3  C   UNK A   0       1.429  -0.825   0.000  0.00  0.00    +0.000 C 
ATOM      4  N   UNK A   0       1.429  -1.650   0.000  0.00  0.00    +0.000 NA
ATOM      5  O   UNK A   0       2.143  -0.412   0.000  0.00  0.00    +0.000 OA
ENDBRANCH   1   2
BRANCH   1   6
ATOM      6  C   PHE A   1       1.429   0.825   0.000  0.00  0.00    +0.000 C 
ATOM      7  O   PHE A   1       1.429   1.650   0.000  0.00  0.00    +0.000 OA
ATOM      8  OXT PHE A   1       2.143   0.412   0.000  0.00  0.00    +0.000 OA
ENDBRANCH   1   6
BRANCH   1   9
ATOM      9  CB  PHE A   1       0.000   0.825   0.000  0.00  0.00    +0.000 C 
BRANCH   9  10
ATOM     10  CG  PHE A   1      -0.714   0.412   0.000  0.00  0.00    +0.000 A 
ATOM     11  CD1 PHE A   1      -1.429   0.825   0.000  0.00  0.00    +0.000 A 
ATOM     12  CE1 PHE A   1      -2.143   0.412   0.000  0.00  0.00    +0.000 A 
ATOM     13  CZ  PHE A   1      -2.143  -0.412   0.000  0.00  0.00    +0.000 A 
ATOM     14  CE2 PHE A   1      -1.429  -0.825   0.000  0.00  0.00    +0.000 A 
ATOM     15  CD2 PHE A   1      -0.714  -0.412   0.000  0.00  0.00    +0.000 A 
ENDBRANCH   9  10
ENDBRANCH   1   9
TORSDOF 4
