REMARK  Name = 
REMARK  12 active torsions:
REMARK  status: ('A' for Active; 'I' for Inactive)
REMARK    1  A    between atoms: C_4  and  C_17
REMARK    2  A    between atoms: C_5  and  N_19
REMARK    3  A    between atoms: C_6  and  N_19
REMARK    4  A    between atoms: C_12  and  C_13
REMARK    5  A    between atoms: C_12  and  N_19
REMARK    6  A    between atoms: C_13  and  O_21
REMARK    7  A    between atoms: C_14  and  C_15
REMARK    8  A    between atoms: C_14  and  O_21
REMARK    9  A    between atoms: C_15  and  O_22
REMARK   10  A    between atoms: C_16  and  C_17
REMARK   11  A    between atoms: C_17  and  C_18
REMARK   12  A    between atoms: C_18  and  O_22
REMARK                            x       y       z     vdW  Elec       q    Type
REMARK                         _______ _______ _______ _____ _____    ______ ____
ROOT
ATOM      1  C   UNL     1       3.572   2.062   0.000  0.00  0.00    +0.000 C 
ATOM      2  O   UNL     1       3.572   2.888   0.000  0.00  0.00    +0.000 OA
ENDROOT
BRANCH   1   3
ATOM      3  C   UNL     1       2.858   1.650   0.000  0.00  0.00    +0.000 C 
BRANCH   3   9
ATOM      4  C   UNL     1       0.715   2.888   0.000  0.00  0.00    +0.000 A 
ATOM      5  C   UNL     1       0.715   2.062   0.000  0.00  0.00    +0.000 A 
ATOM      6  C   UNL     1       1.429   3.300   0.000  0.00  0.00    +0.000 A 
ATOM      7  C   UNL     1       1.429   1.650   0.000  0.00  0.00    +0.000 A 
ATOM      8  C   UNL     1       2.143   2.888   0.000  0.00  0.00    +0.000 A 
ATOM      9  C   UNL     1       2.143   2.062   0.000  0.00  0.00    +0.000 A 
ENDBRANCH   3   9
BRANCH   3  11
ATOM     10  C   UNL     1       3.572   0.412   0.000  0.00  0.00    +0.000 C 
ATOM     11  C   UNL     1       2.858   0.825   0.000  0.00  0.00    +0.000 C 
ENDBRANCH   3  11
ENDBRANCH   1   3
BRANCH   1  12
ATOM     12  O   UNL     1       4.287   1.650   0.000  0.00  0.00    +0.000 OA
BRANCH  12  13
ATOM     13  C   UNL     1       5.001   2.062   0.000  0.00  0.00    +0.000 C 
BRANCH  13  14
ATOM     14  C   UNL     1       5.716   1.650   0.000  0.00  0.00    +0.000 C 
BRANCH  14  15
ATOM     15  O   UNL     1       6.430   2.062   0.000  0.00  0.00    +0.000 OA
BRANCH  15  16
ATOM     16  C   UNL     1       7.145   1.650   0.000  0.00  0.00    +0.000 C 
BRANCH  16  17
ATOM     17  C   UNL     1       7.859   2.062   0.000  0.00  0.00    +0.000 C 
BRANCH  17  18
ATOM     18  N   UNL     1       8.574   1.650   0.000  0.00  0.00    +0.000 NA
BRANCH  18  20
ATOM     19  C   UNL     1      10.003   1.650   0.000  0.00  0.00    +0.000 C 
ATOM     20  C   UNL     1       9.288   2.062   0.000  0.00  0.00    +0.000 C 
ENDBRANCH  18  20
BRANCH  18  22
ATOM     21  C   UNL     1       7.859   0.412   0.000  0.00  0.00    +0.000 C 
ATOM     22  C   UNL     1       8.574   0.825   0.000  0.00  0.00    +0.000 C 
ENDBRANCH  18  22
ENDBRANCH  17  18
ENDBRANCH  16  17
ENDBRANCH  15  16
ENDBRANCH  14  15
ENDBRANCH  13  14
ENDBRANCH  12  13
ENDBRANCH   1  12
TORSDOF 12
