REMARK  Name = 
REMARK  6 active torsions:
REMARK  status: ('A' for Active; 'I' for Inactive)
REMARK    1  A    between atoms: C_2  and  O_7
REMARK    2  A    between atoms: C_5  and  C_14
REMARK    3  A    between atoms: O_7  and  C_8
REMARK    4  A    between atoms: C_15  and  C_19
REMARK    5  A    between atoms: C_22  and  C_26
REMARK    6  A    between atoms: C_32  and  C_33
REMARK                            x       y       z     vdW  Elec       q    Type
REMARK                         _______ _______ _______ _____ _____    ______ ____
ROOT
ATOM      1  C   UNL     1      -1.657  -1.125   0.000  0.00  0.00    +0.000 A 
ATOM      2  C   UNL     1      -2.325  -1.609   0.000  0.00  0.00    +0.000 A 
ATOM      3  C   UNL     1      -2.070  -2.394   0.000  0.00  0.00    +0.000 A 
ATOM      4  N   UNL     1      -1.245  -2.394   0.000  0.00  0.00    +0.000 N 
ATOM      5  N   UNL     1      -0.990  -1.609   0.000  0.00  0.00    +0.000 NA
ATOM      6  C   UNL     1      -0.833  -3.108   0.000  0.00  0.00    +0.000 C 
ATOM      7  C   UNL     1      -1.245  -3.822   0.000  0.00  0.00    +0.000 C 
ATOM      8  C   UNL     1      -2.070  -3.822   0.000  0.00  0.00    +0.000 C 
ATOM      9  N   UNL     1      -2.482  -3.108   0.000  0.00  0.00    +0.000 NA
ENDROOT
BRANCH   6  10
ATOM     10  C   UNL     1      -0.008  -3.108   0.000  0.00  0.00    +0.000 C 
ATOM     11  C   UNL     1       0.405  -2.393   0.000  0.00  0.00    +0.000 C 
ATOM     12  C   UNL     1       1.230  -2.393   0.000  0.00  0.00    +0.000 C 
ATOM     13  N   UNL     1       1.642  -3.108   0.000  0.00  0.00    +0.000 N 
ATOM     14  C   UNL     1       1.230  -3.823   0.000  0.00  0.00    +0.000 C 
ATOM     15  C   UNL     1       0.405  -3.823   0.000  0.00  0.00    +0.000 C 
ATOM     16  C   UNL     1       2.467  -3.108   0.000  0.00  0.00    +0.000 C 
ATOM     17  O   UNL     1       2.880  -2.393   0.000  0.00  0.00    +0.000 OA
BRANCH  16  18
ATOM     18  C   UNL     1       2.880  -3.823   0.000  0.00  0.00    +0.000 C 
ATOM     19  C   UNL     1       3.705  -3.823   0.000  0.00  0.00    +0.000 C 
ENDBRANCH  16  18
ENDBRANCH   6  10
BRANCH   1  24
ATOM     20  C   UNL     1      -2.374   0.937   0.000  0.00  0.00    +0.000 A 
ATOM     21  C   UNL     1      -1.659   1.349   0.000  0.00  0.00    +0.000 A 
ATOM     22  C   UNL     1      -0.947   0.937   0.000  0.00  0.00    +0.000 A 
ATOM     23  C   UNL     1      -0.947   0.112   0.000  0.00  0.00    +0.000 A 
ATOM     24  C   UNL     1      -1.657  -0.300   0.000  0.00  0.00    +0.000 A 
ATOM     25  C   UNL     1      -2.374   0.108   0.000  0.00  0.00    +0.000 A 
BRANCH  21  26
ATOM     26  O   UNL     1      -1.659   2.174   0.000  0.00  0.00    +0.000 OA
BRANCH  26  27
ATOM     27  C   UNL     1      -0.945   2.587   0.000  0.00  0.00    +0.000 A 
ATOM     28  C   UNL     1      -0.944   3.412   0.000  0.00  0.00    +0.000 A 
ATOM     29  C   UNL     1      -0.232   3.823   0.000  0.00  0.00    +0.000 A 
ATOM     30  C   UNL     1       0.483   3.410   0.000  0.00  0.00    +0.000 A 
ATOM     31  C   UNL     1       0.484   2.589   0.000  0.00  0.00    +0.000 A 
ATOM     32  C   UNL     1      -0.227   2.172   0.000  0.00  0.00    +0.000 A 
ENDBRANCH  26  27
ENDBRANCH  21  26
ENDBRANCH   1  24
BRANCH   2  33
ATOM     33  C   UNL     1      -3.122  -1.396   0.000  0.00  0.00    +0.000 C 
ATOM     34  N   UNL     1      -3.335  -0.599   0.000  0.00  0.00    +0.000 NA
ATOM     35  O   UNL     1      -3.705  -1.979   0.000  0.00  0.00    +0.000 OA
ENDBRANCH   2  33
TORSDOF 6
