REMARK  Name = 
REMARK  28 active torsions:
REMARK  status: ('A' for Active; 'I' for Inactive)
REMARK    1  A    between atoms: C_2  and  C_3
REMARK    2  A    between atoms: C_3  and  O_4
REMARK    3  A    between atoms: O_4  and  C_5
REMARK    4  A    between atoms: C_5  and  C_6
REMARK    5  A    between atoms: C_7  and  O_50
REMARK    6  A    between atoms: C_8  and  O_45
REMARK    7  A    between atoms: C_9  and  O_40
REMARK    8  A    between atoms: C_10  and  O_12
REMARK    9  A    between atoms: O_12  and  C_13
REMARK   10  A    between atoms: C_14  and  C_34
REMARK   11  A    between atoms: C_16  and  O_29
REMARK   12  A    between atoms: C_17  and  O_24
REMARK   13  A    between atoms: C_18  and  O_19
REMARK   14  A    between atoms: O_19  and  C_20
REMARK   15  A    between atoms: C_20  and  C_21
REMARK   16  A    between atoms: O_24  and  C_25
REMARK   17  A    between atoms: C_25  and  C_26
REMARK   18  A    between atoms: O_29  and  C_30
REMARK   19  A    between atoms: C_30  and  C_31
REMARK   20  A    between atoms: C_34  and  O_35
REMARK   21  A    between atoms: O_35  and  C_36
REMARK   22  A    between atoms: C_36  and  C_37
REMARK   23  A    between atoms: O_40  and  C_41
REMARK   24  A    between atoms: C_41  and  C_42
REMARK   25  A    between atoms: O_45  and  C_46
REMARK   26  A    between atoms: C_46  and  C_47
REMARK   27  A    between atoms: O_50  and  C_51
REMARK   28  A    between atoms: C_51  and  C_52
REMARK                            x       y       z     vdW  Elec       q    Type
REMARK                         _______ _______ _______ _____ _____    ______ ____
ROOT
ATOM      1  O   UNL     1       0.714  -0.619   0.000  0.00  0.00    +0.000 OA
ENDROOT
BRANCH   1   2
ATOM      2  C   UNL     1       0.000  -1.031   0.000  0.00  0.00    +0.000 C 
ATOM      3  C   UNL     1       0.000  -1.856   0.000  0.00  0.00    +0.000 C 
ATOM      4  O   UNL     1      -0.714  -2.269   0.000  0.00  0.00    +0.000 OA
ATOM      5  C   UNL     1      -1.429  -1.856   0.000  0.00  0.00    +0.000 C 
ATOM      6  C   UNL     1      -1.429  -1.031   0.000  0.00  0.00    +0.000 C 
ATOM      7  C   UNL     1      -0.714  -0.619   0.000  0.00  0.00    +0.000 C 
BRANCH   6   8
ATOM      8  O   UNL     1      -2.143  -0.619   0.000  0.00  0.00    +0.000 OA
BRANCH   8   9
ATOM      9  C   UNL     1      -2.858  -1.031   0.000  0.00  0.00    +0.000 C 
BRANCH   9  10
ATOM     10  C   UNL     1      -3.572  -0.619   0.000  0.00  0.00    +0.000 C 
ATOM     11  C   UNL     1      -4.287  -1.031   0.000  0.00  0.00    +0.000 C 
ATOM     12  O   UNL     1      -3.572   0.206   0.000  0.00  0.00    +0.000 OA
ENDBRANCH   9  10
ENDBRANCH   8   9
ENDBRANCH   6   8
BRANCH   5  13
ATOM     13  O   UNL     1      -2.143  -2.269   0.000  0.00  0.00    +0.000 OA
BRANCH  13  14
ATOM     14  C   UNL     1      -2.143  -3.094   0.000  0.00  0.00    +0.000 C 
BRANCH  14  15
ATOM     15  C   UNL     1      -2.858  -3.506   0.000  0.00  0.00    +0.000 C 
ATOM     16  C   UNL     1      -2.858  -4.331   0.000  0.00  0.00    +0.000 C 
ATOM     17  O   UNL     1      -3.572  -3.094   0.000  0.00  0.00    +0.000 OA
ENDBRANCH  14  15
ENDBRANCH  13  14
ENDBRANCH   5  13
BRANCH   7  18
ATOM     18  O   UNL     1      -0.714   0.206   0.000  0.00  0.00    +0.000 OA
BRANCH  18  19
ATOM     19  C   UNL     1      -1.429   0.619   0.000  0.00  0.00    +0.000 C 
BRANCH  19  20
ATOM     20  C   UNL     1      -1.429   1.444   0.000  0.00  0.00    +0.000 C 
ATOM     21  C   UNL     1      -1.093   2.197   0.000  0.00  0.00    +0.000 C 
ATOM     22  O   UNL     1      -2.143   1.856   0.000  0.00  0.00    +0.000 OA
ENDBRANCH  19  20
ENDBRANCH  18  19
ENDBRANCH   7  18
BRANCH   3  23
ATOM     23  C   UNL     1       0.714  -2.269   0.000  0.00  0.00    +0.000 C 
BRANCH  23  24
ATOM     24  O   UNL     1       1.429  -1.856   0.000  0.00  0.00    +0.000 OA
BRANCH  24  25
ATOM     25  C   UNL     1       2.143  -2.269   0.000  0.00  0.00    +0.000 C 
BRANCH  25  26
ATOM     26  C   UNL     1       2.858  -1.856   0.000  0.00  0.00    +0.000 C 
ATOM     27  C   UNL     1       3.572  -2.269   0.000  0.00  0.00    +0.000 C 
ATOM     28  O   UNL     1       2.858  -1.031   0.000  0.00  0.00    +0.000 OA
ENDBRANCH  25  26
ENDBRANCH  24  25
ENDBRANCH  23  24
ENDBRANCH   3  23
ENDBRANCH   1   2
BRANCH   1  33
ATOM     29  C   UNL     1       0.000   1.444   0.000  0.00  0.00    +0.000 C 
ATOM     30  C   UNL     1       0.714   1.856   0.000  0.00  0.00    +0.000 C 
ATOM     31  C   UNL     1       1.429   1.444   0.000  0.00  0.00    +0.000 C 
ATOM     32  C   UNL     1       1.429   0.619   0.000  0.00  0.00    +0.000 C 
ATOM     33  C   UNL     1       0.714   0.206   0.000  0.00  0.00    +0.000 C 
ATOM     34  O   UNL     1       0.000   0.619   0.000  0.00  0.00    +0.000 OA
BRANCH  32  35
ATOM     35  O   UNL     1       2.143   0.206   0.000  0.00  0.00    +0.000 OA
BRANCH  35  36
ATOM     36  C   UNL     1       2.858   0.619   0.000  0.00  0.00    +0.000 C 
BRANCH  36  37
ATOM     37  C   UNL     1       3.572   0.206   0.000  0.00  0.00    +0.000 C 
ATOM     38  C   UNL     1       4.287   0.619   0.000  0.00  0.00    +0.000 C 
ATOM     39  O   UNL     1       3.572  -0.619   0.000  0.00  0.00    +0.000 OA
ENDBRANCH  36  37
ENDBRANCH  35  36
ENDBRANCH  32  35
BRANCH  31  40
ATOM     40  O   UNL     1       2.143   1.856   0.000  0.00  0.00    +0.000 OA
BRANCH  40  41
ATOM     41  C   UNL     1       2.143   2.681   0.000  0.00  0.00    +0.000 C 
BRANCH  41  42
ATOM     42  C   UNL     1       2.858   3.094   0.000  0.00  0.00    +0.000 C 
ATOM     43  C   UNL     1       2.858   3.919   0.000  0.00  0.00    +0.000 C 
ATOM     44  O   UNL     1       3.572   2.681   0.000  0.00  0.00    +0.000 OA
ENDBRANCH  41  42
ENDBRANCH  40  41
ENDBRANCH  31  40
BRANCH  29  45
ATOM     45  C   UNL     1      -0.714   1.856   0.000  0.00  0.00    +0.000 C 
BRANCH  45  46
ATOM     46  O   UNL     1      -0.714   2.681   0.000  0.00  0.00    +0.000 OA
BRANCH  46  47
ATOM     47  C   UNL     1      -1.429   3.094   0.000  0.00  0.00    +0.000 C 
BRANCH  47  49
ATOM     48  C   UNL     1      -2.143   4.331   0.000  0.00  0.00    +0.000 C 
ATOM     49  C   UNL     1      -1.429   3.919   0.000  0.00  0.00    +0.000 C 
ATOM     50  O   UNL     1      -0.714   4.331   0.000  0.00  0.00    +0.000 OA
ENDBRANCH  47  49
ENDBRANCH  46  47
ENDBRANCH  45  46
ENDBRANCH  29  45
BRANCH  30  51
ATOM     51  O   UNL     1       0.714   2.681   0.000  0.00  0.00    +0.000 OA
BRANCH  51  52
ATOM     52  C   UNL     1       1.429   3.094   0.000  0.00  0.00    +0.000 C 
BRANCH  52  53
ATOM     53  C   UNL     1       1.429   3.919   0.000  0.00  0.00    +0.000 C 
ATOM     54  C   UNL     1       0.714   4.331   0.000  0.00  0.00    +0.000 C 
ATOM     55  O   UNL     1       2.143   4.331   0.000  0.00  0.00    +0.000 OA
ENDBRANCH  52  53
ENDBRANCH  51  52
ENDBRANCH  30  51
ENDBRANCH   1  33
TORSDOF 28
