REMARK  Name = 
REMARK  4 active torsions:
REMARK  status: ('A' for Active; 'I' for Inactive)
REMARK    1  A    between atoms: P_1  and  O_4
REMARK    2  A    between atoms: O_4  and  C_14
REMARK    3  A    between atoms: C_11  and  C_14
REMARK    4  A    between atoms: C_13  and  C_15
REMARK                            x       y       z     vdW  Elec       q    Type
REMARK                         _______ _______ _______ _____ _____    ______ ____
ROOT
ATOM      1  O   UNL     1       0.570  -0.266   0.000  0.00  0.00    +0.000 OA
ATOM      2  O   UNL     1       2.610  -0.895   0.000  0.00  0.00    +0.000 OA
ATOM      3  C   UNL     1       1.789  -0.809   0.000  0.00  0.00    +0.000 C 
ATOM      4  C   UNL     1       1.377  -0.094   0.000  0.00  0.00    +0.000 C 
ATOM      5  C   UNL     1       1.237  -1.422   0.000  0.00  0.00    +0.000 C 
ATOM      6  C   UNL     1       0.483  -1.086   0.000  0.00  0.00    +0.000 C 
ENDROOT
BRANCH   6   9
ATOM      7  O   UNL     1      -2.375  -2.736   0.000  0.00  0.00    +0.000 OA
ATOM      8  N   UNL     1      -0.946  -2.736   0.000  0.00  0.00    +0.000 NA
ATOM      9  C   UNL     1      -0.231  -1.499   0.000  0.00  0.00    +0.000 A 
ATOM     10  C   UNL     1      -0.946  -1.086   0.000  0.00  0.00    +0.000 A 
ATOM     11  C   UNL     1      -0.231  -2.324   0.000  0.00  0.00    +0.000 A 
ATOM     12  C   UNL     1      -1.660  -1.499   0.000  0.00  0.00    +0.000 A 
ATOM     13  C   UNL     1      -1.660  -2.324   0.000  0.00  0.00    +0.000 A 
ATOM     14  C   UNL     1      -2.375  -1.086   0.000  0.00  0.00    +0.000 C 
ENDBRANCH   6   9
BRANCH   4  15
ATOM     15  C   UNL     1       1.712   0.659   0.000  0.00  0.00    +0.000 C 
BRANCH  15  16
ATOM     16  O   UNL     1       1.227   1.327   0.000  0.00  0.00    +0.000 OA
BRANCH  16  17
ATOM     17  P   UNL     1       1.563   2.080   0.000  0.00  0.00    +0.000 P 
ATOM     18  O   UNL     1       1.898   2.834   0.000  0.00  0.00    +0.000 OA
ATOM     19  O   UNL     1       0.809   2.416   0.000  0.00  0.00    +0.000 OA
ATOM     20  O   UNL     1       2.316   1.745   0.000  0.00  0.00    +0.000 OA
ENDBRANCH  16  17
ENDBRANCH  15  16
ENDBRANCH   4  15
TORSDOF 4
