REMARK  Name = 
REMARK  6 active torsions:
REMARK  status: ('A' for Active; 'I' for Inactive)
REMARK    1  A    between atoms: C_1  and  C_19
REMARK    2  A    between atoms: C_2  and  C_7
REMARK    3  A    between atoms: C_6  and  C_18
REMARK    4  A    between atoms: C_7  and  C_8
REMARK    5  A    between atoms: C_11  and  C_14
REMARK    6  A    between atoms: C_14  and  C_15
REMARK                            x       y       z     vdW  Elec       q    Type
REMARK                         _______ _______ _______ _____ _____    ______ ____
ROOT
ATOM      1  C   UNL     1      -2.498   1.250   0.000  0.00  0.00    +0.000 A 
ATOM      2  C   UNL     1      -1.072   1.250   0.000  0.00  0.00    +0.000 A 
ATOM      3  C   UNL     1      -1.784   1.662   0.000  0.00  0.00    +0.000 A 
ATOM      4  C   UNL     1      -1.072   0.425   0.000  0.00  0.00    +0.000 A 
ATOM      5  N   UNL     1      -2.498   0.421   0.000  0.00  0.00    +0.000 NA
ATOM      6  C   UNL     1      -1.782   0.013   0.000  0.00  0.00    +0.000 A 
ENDROOT
BRANCH   6   7
ATOM      7  C   UNL     1      -1.782  -0.812   0.000  0.00  0.00    +0.000 A 
ATOM      8  C   UNL     1      -1.068  -2.047   0.000  0.00  0.00    +0.000 A 
ATOM      9  C   UNL     1      -1.067  -1.224   0.000  0.00  0.00    +0.000 A 
ATOM     10  C   UNL     1      -1.783  -2.460   0.000  0.00  0.00    +0.000 A 
ATOM     11  C   UNL     1      -2.499  -1.226   0.000  0.00  0.00    +0.000 A 
ATOM     12  C   UNL     1      -2.495  -2.050   0.000  0.00  0.00    +0.000 A 
ATOM     13 CL   UNL     1      -0.354  -2.459   0.000  0.00  0.00    +0.000 Cl
ENDBRANCH   6   7
BRANCH   1  14
ATOM     14  C   UNL     1      -3.213   1.663   0.000  0.00  0.00    +0.000 C 
ATOM     15  F   UNL     1      -2.999   2.460   0.000  0.00  0.00    +0.000 F 
ATOM     16  F   UNL     1      -3.927   2.075   0.000  0.00  0.00    +0.000 F 
ATOM     17  F   UNL     1      -3.927   1.250   0.000  0.00  0.00    +0.000 F 
ENDBRANCH   1  14
BRANCH   2  18
ATOM     18  C   UNL     1      -0.357   1.663   0.000  0.00  0.00    +0.000 C 
BRANCH  18  19
ATOM     19  C   UNL     1       0.357   1.250   0.000  0.00  0.00    +0.000 A 
ATOM     20  C   UNL     1       1.784   1.251   0.000  0.00  0.00    +0.000 A 
ATOM     21  C   UNL     1       1.072   1.663   0.000  0.00  0.00    +0.000 A 
ATOM     22  C   UNL     1       1.784   0.426   0.000  0.00  0.00    +0.000 A 
ATOM     23  C   UNL     1       0.357   0.422   0.000  0.00  0.00    +0.000 A 
ATOM     24  C   UNL     1       1.074   0.014   0.000  0.00  0.00    +0.000 A 
BRANCH  22  25
ATOM     25  C   UNL     1       2.498   0.013   0.000  0.00  0.00    +0.000 C 
BRANCH  25  26
ATOM     26  C   UNL     1       3.213   0.426   0.000  0.00  0.00    +0.000 C 
ATOM     27  O   UNL     1       3.927   0.013   0.000  0.00  0.00    +0.000 OA
ATOM     28  O   UNL     1       3.213   1.251   0.000  0.00  0.00    +0.000 OA
ENDBRANCH  25  26
ENDBRANCH  22  25
ENDBRANCH  18  19
ENDBRANCH   2  18
TORSDOF 6
