REMARK  Name = 
REMARK  86 active torsions:
REMARK  status: ('A' for Active; 'I' for Inactive)
REMARK    1  A    between atoms: S_2  and  C_3
REMARK    2  A    between atoms: C_3  and  C_4
REMARK    3  A    between atoms: C_4  and  C_5
REMARK    4  A    between atoms: C_5  and  N_6
REMARK    5  A    between atoms: C_5  and  C_88
REMARK    6  A    between atoms: C_7  and  C_9
REMARK    7  A    between atoms: C_9  and  C_10
REMARK    8  A    between atoms: C_9  and  N_12
REMARK    9  A    between atoms: C_13  and  C_15
REMARK   10  A    between atoms: C_15  and  C_16
REMARK   11  A    between atoms: C_15  and  N_24
REMARK   12  A    between atoms: C_16  and  C_17
REMARK   13  A    between atoms: C_25  and  C_27
REMARK   14  A    between atoms: C_27  and  C_28
REMARK   15  A    between atoms: C_27  and  N_30
REMARK   16  A    between atoms: C_31  and  C_33
REMARK   17  A    between atoms: C_33  and  C_34
REMARK   18  A    between atoms: C_33  and  N_39
REMARK   19  A    between atoms: C_34  and  C_35
REMARK   20  A    between atoms: C_35  and  C_36
REMARK   21  A    between atoms: C_36  and  C_37
REMARK   22  A    between atoms: C_40  and  C_42
REMARK   23  A    between atoms: C_42  and  C_43
REMARK   24  A    between atoms: C_42  and  N_48
REMARK   25  A    between atoms: C_43  and  C_44
REMARK   26  A    between atoms: C_44  and  C_45
REMARK   27  A    between atoms: C_45  and  C_46
REMARK   28  A    between atoms: C_49  and  C_51
REMARK   29  A    between atoms: C_51  and  C_52
REMARK   30  A    between atoms: C_51  and  N_57
REMARK   31  A    between atoms: C_52  and  C_53
REMARK   32  A    between atoms: C_53  and  C_54
REMARK   33  A    between atoms: C_54  and  C_55
REMARK   34  A    between atoms: C_58  and  C_60
REMARK   35  A    between atoms: C_60  and  C_61
REMARK   36  A    between atoms: C_60  and  N_66
REMARK   37  A    between atoms: C_61  and  C_62
REMARK   38  A    between atoms: C_62  and  C_63
REMARK   39  A    between atoms: C_63  and  C_64
REMARK   40  A    between atoms: C_67  and  C_69
REMARK   41  A    between atoms: C_69  and  C_70
REMARK   42  A    between atoms: C_69  and  N_75
REMARK   43  A    between atoms: C_70  and  C_71
REMARK   44  A    between atoms: C_71  and  C_72
REMARK   45  A    between atoms: C_72  and  C_73
REMARK   46  A    between atoms: C_76  and  C_78
REMARK   47  A    between atoms: C_78  and  C_79
REMARK   48  A    between atoms: C_78  and  N_84
REMARK   49  A    between atoms: C_79  and  C_80
REMARK   50  A    between atoms: C_80  and  C_81
REMARK   51  A    between atoms: C_81  and  C_82
REMARK   52  A    between atoms: N_90  and  C_91
REMARK   53  A    between atoms: C_91  and  C_92
REMARK   54  A    between atoms: C_91  and  C_97
REMARK   55  A    between atoms: C_92  and  C_93
REMARK   56  A    between atoms: C_93  and  C_94
REMARK   57  A    between atoms: N_99  and  C_100
REMARK   58  A    between atoms: C_100  and  C_101
REMARK   59  A    between atoms: C_100  and  C_107
REMARK   60  A    between atoms: C_101  and  C_102
REMARK   61  A    between atoms: N_109  and  C_110
REMARK   62  A    between atoms: C_110  and  C_111
REMARK   63  A    between atoms: C_110  and  C_118
REMARK   64  A    between atoms: C_111  and  C_112
REMARK   65  A    between atoms: N_120  and  C_121
REMARK   66  A    between atoms: C_121  and  C_122
REMARK   67  A    between atoms: C_121  and  C_129
REMARK   68  A    between atoms: C_122  and  C_123
REMARK   69  A    between atoms: C_123  and  C_124
REMARK   70  A    between atoms: C_124  and  N_125
REMARK   71  A    between atoms: N_131  and  C_132
REMARK   72  A    between atoms: C_132  and  C_133
REMARK   73  A    between atoms: C_132  and  C_143
REMARK   74  A    between atoms: C_133  and  C_134
REMARK   75  A    between atoms: N_145  and  C_146
REMARK   76  A    between atoms: C_146  and  C_147
REMARK   77  A    between atoms: N_149  and  C_150
REMARK   78  A    between atoms: C_150  and  C_151
REMARK   79  A    between atoms: C_150  and  C_156
REMARK   80  A    between atoms: C_151  and  C_152
REMARK   81  A    between atoms: C_152  and  C_153
REMARK   82  A    between atoms: C_153  and  C_154
REMARK   83  A    between atoms: C_162  and  C_163
REMARK   84  A    between atoms: N_165  and  C_166
REMARK   85  A    between atoms: C_166  and  C_167
REMARK   86  A    between atoms: C_166  and  C_170
REMARK                            x       y       z     vdW  Elec       q    Type
REMARK                         _______ _______ _______ _____ _____    ______ ____
ROOT
ATOM      1  C   UNK A   1      13.306 -34.488   0.000  0.00  0.00    +0.000 C 
ENDROOT
BRANCH   1   2
ATOM      2  N   UNK A   1      12.610 -34.046   0.000  0.00  0.00    +0.000 NA
ATOM      3  C   UNK A   1      11.879 -34.428   0.000  0.00  0.00    +0.000 C 
ATOM      4  O   UNK A   1      11.844 -35.252   0.000  0.00  0.00    +0.000 OA
BRANCH   3   5
ATOM      5  C   UNK A   1      11.182 -33.985   0.000  0.00  0.00    +0.000 C 
BRANCH   5   6
ATOM      6  N   UNK A   1      10.451 -34.367   0.000  0.00  0.00    +0.000 NA
ATOM      7  C   UNK A   1       9.754 -33.925   0.000  0.00  0.00    +0.000 C 
ATOM      8  O   UNK A   1       9.789 -33.101   0.000  0.00  0.00    +0.000 OA
BRANCH   7   9
ATOM      9  C   UNK A   1       9.023 -34.307   0.000  0.00  0.00    +0.000 C 
BRANCH   9  10
ATOM     10  N   UNK A   1       8.327 -33.865   0.000  0.00  0.00    +0.000 NA
ATOM     11  C   UNK A   1       7.596 -34.247   0.000  0.00  0.00    +0.000 C 
ATOM     12  O   UNK A   1       7.561 -35.071   0.000  0.00  0.00    +0.000 OA
BRANCH  11  13
ATOM     13  C   UNK A   1       6.899 -33.804   0.000  0.00  0.00    +0.000 C 
BRANCH  13  14
ATOM     14  N   UNK A   1       6.168 -34.187   0.000  0.00  0.00    +0.000 NA
ATOM     15  C   UNK A   1       5.471 -33.744   0.000  0.00  0.00    +0.000 C 
ATOM     16  O   UNK A   1       5.506 -32.920   0.000  0.00  0.00    +0.000 OA
BRANCH  15  17
ATOM     17  C   UNK A   1       4.740 -34.126   0.000  0.00  0.00    +0.000 C 
BRANCH  17  18
ATOM     18  N   UNK A   1       4.044 -33.684   0.000  0.00  0.00    +0.000 NA
ATOM     19  C   UNK A   1       3.312 -34.066   0.000  0.00  0.00    +0.000 C 
ATOM     20  O   UNK A   1       3.278 -34.890   0.000  0.00  0.00    +0.000 OA
BRANCH  19  21
ATOM     21  C   UNK A   1       2.616 -33.624   0.000  0.00  0.00    +0.000 C 
BRANCH  21  22
ATOM     22  N   UNK A   1       1.885 -34.005   0.000  0.00  0.00    +0.000 NA
ATOM     23  C   UNK A   1       1.188 -33.563   0.000  0.00  0.00    +0.000 C 
ATOM     24  O   UNK A   1       1.223 -32.739   0.000  0.00  0.00    +0.000 OA
BRANCH  23  25
ATOM     25  C   UNK A   1       0.457 -33.945   0.000  0.00  0.00    +0.000 C 
BRANCH  25  26
ATOM     26  N   UNK A   1      -0.239 -33.503   0.000  0.00  0.00    +0.000 NA
ATOM     27  C   UNK A   1      -0.971 -33.885   0.000  0.00  0.00    +0.000 C 
ATOM     28  O   UNK A   1      -1.005 -34.709   0.000  0.00  0.00    +0.000 OA
BRANCH  27  29
ATOM     29  C   UNK A   1      -1.667 -33.443   0.000  0.00  0.00    +0.000 C 
BRANCH  29  30
ATOM     30  N   UNK A   1      -2.398 -33.825   0.000  0.00  0.00    +0.000 NA
ATOM     31  C   UNK A   1      -3.095 -33.382   0.000  0.00  0.00    +0.000 C 
ATOM     32  O   UNK A   1      -3.060 -32.558   0.000  0.00  0.00    +0.000 OA
BRANCH  31  33
ATOM     33  C   UNK A   1      -3.826 -33.764   0.000  0.00  0.00    +0.000 C 
BRANCH  33  34
ATOM     34  N   UNK A   1      -4.522 -33.322   0.000  0.00  0.00    +0.000 NA
ATOM     35  C   UNK A   1      -5.253 -33.704   0.000  0.00  0.00    +0.000 C 
ATOM     36  O   UNK A   1      -5.288 -34.528   0.000  0.00  0.00    +0.000 OA
BRANCH  35  37
ATOM     37  C   UNK A   1      -5.950 -33.262   0.000  0.00  0.00    +0.000 C 
BRANCH  37  38
ATOM     38  N   UNK A   1      -5.915 -32.437   0.000  0.00  0.00    +0.000 NA
ATOM     39  C   UNK A   0      -6.612 -31.995   0.000  0.00  0.00    +0.000 C 
ATOM     40  C   UNK A   0      -7.343 -32.377   0.000  0.00  0.00    +0.000 C 
ATOM     41  O   UNK A   0      -6.577 -31.171   0.000  0.00  0.00    +0.000 OA
ENDBRANCH  37  38
BRANCH  37  42
ATOM     42  C   UNK A   1      -6.681 -33.644   0.000  0.00  0.00    +0.000 C 
BRANCH  42  43
ATOM     43  C   UNK A   1      -7.378 -33.201   0.000  0.00  0.00    +0.000 C 
BRANCH  43  44
ATOM     44  C   UNK A   1      -8.109 -33.583   0.000  0.00  0.00    +0.000 C 
BRANCH  44  45
ATOM     45  C   UNK A   1      -8.805 -33.141   0.000  0.00  0.00    +0.000 C 
ATOM     46  N   UNK A   1      -9.537 -33.523   0.000  0.00  0.00    +0.000 NA
ENDBRANCH  44  45
ENDBRANCH  43  44
ENDBRANCH  42  43
ENDBRANCH  37  42
ENDBRANCH  35  37
ENDBRANCH  33  34
BRANCH  33  47
ATOM     47  C   UNK A   1      -3.861 -34.589   0.000  0.00  0.00    +0.000 C 
BRANCH  47  48
ATOM     48  C   UNK A   1      -3.164 -35.031   0.000  0.00  0.00    +0.000 C 
BRANCH  48  49
ATOM     49  C   UNK A   1      -3.199 -35.855   0.000  0.00  0.00    +0.000 C 
BRANCH  49  50
ATOM     50  C   UNK A   1      -2.503 -36.297   0.000  0.00  0.00    +0.000 C 
ATOM     51  N   UNK A   1      -2.537 -37.122   0.000  0.00  0.00    +0.000 NA
ENDBRANCH  49  50
ENDBRANCH  48  49
ENDBRANCH  47  48
ENDBRANCH  33  47
ENDBRANCH  31  33
ENDBRANCH  29  30
BRANCH  29  52
ATOM     52  C   UNK A   1      -1.632 -32.618   0.000  0.00  0.00    +0.000 C 
BRANCH  52  53
ATOM     53  C   UNK A   1      -2.329 -32.176   0.000  0.00  0.00    +0.000 C 
BRANCH  53  54
ATOM     54  C   UNK A   1      -2.294 -31.352   0.000  0.00  0.00    +0.000 C 
BRANCH  54  55
ATOM     55  C   UNK A   1      -2.990 -30.910   0.000  0.00  0.00    +0.000 C 
ATOM     56  N   UNK A   1      -2.955 -30.085   0.000  0.00  0.00    +0.000 NA
ENDBRANCH  54  55
ENDBRANCH  53  54
ENDBRANCH  52  53
ENDBRANCH  29  52
ENDBRANCH  27  29
ENDBRANCH  25  26
BRANCH  25  57
ATOM     57  C   UNK A   1       0.422 -34.770   0.000  0.00  0.00    +0.000 C 
BRANCH  57  58
ATOM     58  C   UNK A   1       1.119 -35.212   0.000  0.00  0.00    +0.000 C 
BRANCH  58  59
ATOM     59  C   UNK A   1       1.084 -36.036   0.000  0.00  0.00    +0.000 C 
BRANCH  59  60
ATOM     60  C   UNK A   1       1.780 -36.478   0.000  0.00  0.00    +0.000 C 
ATOM     61  N   UNK A   1       1.746 -37.303   0.000  0.00  0.00    +0.000 NA
ENDBRANCH  59  60
ENDBRANCH  58  59
ENDBRANCH  57  58
ENDBRANCH  25  57
ENDBRANCH  23  25
ENDBRANCH  21  22
BRANCH  21  62
ATOM     62  C   UNK A   1       2.651 -32.799   0.000  0.00  0.00    +0.000 C 
BRANCH  62  63
ATOM     63  C   UNK A   1       1.954 -32.357   0.000  0.00  0.00    +0.000 C 
BRANCH  63  64
ATOM     64  C   UNK A   1       1.989 -31.533   0.000  0.00  0.00    +0.000 C 
BRANCH  64  65
ATOM     65  C   UNK A   1       1.293 -31.090   0.000  0.00  0.00    +0.000 C 
ATOM     66  N   UNK A   1       1.328 -30.266   0.000  0.00  0.00    +0.000 NA
ENDBRANCH  64  65
ENDBRANCH  63  64
ENDBRANCH  62  63
ENDBRANCH  21  62
ENDBRANCH  19  21
ENDBRANCH  17  18
BRANCH  17  67
ATOM     67  C   UNK A   1       4.705 -34.950   0.000  0.00  0.00    +0.000 C 
BRANCH  67  68
ATOM     68  C   UNK A   1       5.402 -35.393   0.000  0.00  0.00    +0.000 C 
BRANCH  68  69
ATOM     69  C   UNK A   1       5.367 -36.217   0.000  0.00  0.00    +0.000 C 
BRANCH  69  70
ATOM     70  C   UNK A   1       6.063 -36.659   0.000  0.00  0.00    +0.000 C 
ATOM     71  N   UNK A   1       6.029 -37.483   0.000  0.00  0.00    +0.000 NA
ENDBRANCH  69  70
ENDBRANCH  68  69
ENDBRANCH  67  68
ENDBRANCH  17  67
ENDBRANCH  15  17
ENDBRANCH  13  14
BRANCH  13  72
ATOM     72  C   UNK A   1       6.934 -32.980   0.000  0.00  0.00    +0.000 C 
ATOM     73  O   UNK A   1       6.237 -32.538   0.000  0.00  0.00    +0.000 OA
ENDBRANCH  13  72
ENDBRANCH  11  13
ENDBRANCH   9  10
BRANCH   9  74
ATOM     74  C   UNK A   1       8.988 -35.131   0.000  0.00  0.00    +0.000 C 
BRANCH  74  75
ATOM     75  C   UNK A   1       9.685 -35.574   0.000  0.00  0.00    +0.000 A 
ATOM     76  C   UNK A   1      10.416 -35.192   0.000  0.00  0.00    +0.000 A 
ATOM     77  C   UNK A   1      11.113 -35.634   0.000  0.00  0.00    +0.000 A 
ATOM     78  C   UNK A   1      11.078 -36.458   0.000  0.00  0.00    +0.000 A 
ATOM     79  O   UNK A   1      11.774 -36.901   0.000  0.00  0.00    +0.000 OA
ATOM     80  C   UNK A   1      10.346 -36.840   0.000  0.00  0.00    +0.000 A 
ATOM     81  C   UNK A   1       9.650 -36.398   0.000  0.00  0.00    +0.000 A 
ENDBRANCH  74  75
ENDBRANCH   9  74
ENDBRANCH   7   9
ENDBRANCH   5   6
BRANCH   5  82
ATOM     82  C   UNK A   1      11.217 -33.161   0.000  0.00  0.00    +0.000 C 
ATOM     83  O   UNK A   1      11.948 -32.779   0.000  0.00  0.00    +0.000 OA
ENDBRANCH   5  82
ENDBRANCH   3   5
ENDBRANCH   1   2
BRANCH   1  84
ATOM     84  C   UNK A   1      14.037 -34.106   0.000  0.00  0.00    +0.000 C 
ATOM     85  O   UNK A   1      14.072 -33.282   0.000  0.00  0.00    +0.000 OA
ATOM     86  N   UNK A   1      14.734 -34.548   0.000  0.00  0.00    +0.000 NA
BRANCH  86  87
ATOM     87  C   UNK A   1      15.465 -34.166   0.000  0.00  0.00    +0.000 C 
BRANCH  87  88
ATOM     88  C   UNK A   1      16.162 -34.609   0.000  0.00  0.00    +0.000 C 
ATOM     89  O   UNK A   1      16.127 -35.433   0.000  0.00  0.00    +0.000 OA
ATOM     90  N   UNK A   1      16.893 -34.227   0.000  0.00  0.00    +0.000 NA
BRANCH  90  91
ATOM     91  C   UNK A   1      17.589 -34.669   0.000  0.00  0.00    +0.000 C 
BRANCH  91  92
ATOM     92  C   UNK A   1      18.320 -34.287   0.000  0.00  0.00    +0.000 C 
ATOM     93  O   UNK A   1      17.864 -33.600   0.000  0.00  0.00    +0.000 OA
ATOM     94  N   UNK A   1      19.017 -34.729   0.000  0.00  0.00    +0.000 NA
BRANCH  94  95
ATOM     95  C   UNK A   1      19.748 -34.347   0.000  0.00  0.00    +0.000 C 
BRANCH  95  96
ATOM     96  C   UNK A   1      20.445 -34.790   0.000  0.00  0.00    +0.000 C 
ATOM     97  O   UNK A   1      20.410 -35.614   0.000  0.00  0.00    +0.000 OA
ATOM     98  N   UNK A   1      21.176 -34.408   0.000  0.00  0.00    +0.000 NA
BRANCH  98  99
ATOM     99  C   UNK A   1      21.872 -34.850   0.000  0.00  0.00    +0.000 C 
BRANCH  99 100
ATOM    100  C   UNK A   1      22.604 -34.468   0.000  0.00  0.00    +0.000 C 
ATOM    101  O   UNK A   1      22.638 -33.644   0.000  0.00  0.00    +0.000 OA
ATOM    102  N   UNK A   1      23.300 -34.910   0.000  0.00  0.00    +0.000 NA
BRANCH 102 103
ATOM    103  C   UNK A   1      24.031 -34.528   0.000  0.00  0.00    +0.000 C 
BRANCH 103 104
ATOM    104  C   UNK A   1      24.066 -33.704   0.000  0.00  0.00    +0.000 C 
ATOM    105  O   UNK A   1      24.797 -33.322   0.000  0.00  0.00    +0.000 OA
ATOM    106  N   UNK A   1      23.369 -33.262   0.000  0.00  0.00    +0.000 NA
BRANCH 106 107
ATOM    107  C   UNK A   1      23.404 -32.437   0.000  0.00  0.00    +0.000 C 
BRANCH 107 108
ATOM    108  C   UNK A   1      22.708 -31.995   0.000  0.00  0.00    +0.000 C 
ATOM    109  O   UNK A   1      21.977 -32.377   0.000  0.00  0.00    +0.000 OA
ATOM    110  N   UNK A   1      22.743 -31.171   0.000  0.00  0.00    +0.000 NA
BRANCH 110 111
ATOM    111  C   UNK A   1      22.046 -30.729   0.000  0.00  0.00    +0.000 C 
BRANCH 111 112
ATOM    112  C   UNK A   1      22.081 -29.904   0.000  0.00  0.00    +0.000 C 
ATOM    113  O   UNK A   1      21.385 -29.462   0.000  0.00  0.00    +0.000 OA
ATOM    114  N   UNK A   1      22.812 -29.522   0.000  0.00  0.00    +0.000 N 
ATOM    115  C   UNK A   1      23.551 -29.889   0.000  0.00  0.00    +0.000 C 
ATOM    116  C   UNK A   1      24.129 -29.300   0.000  0.00  0.00    +0.000 C 
ATOM    117  C   UNK A   1      23.747 -28.569   0.000  0.00  0.00    +0.000 C 
ATOM    118  C   UNK A   1      22.933 -28.706   0.000  0.00  0.00    +0.000 C 
BRANCH 118 119
ATOM    119  C   UNK A   1      22.344 -28.129   0.000  0.00  0.00    +0.000 C 
ATOM    120  O   UNK A   1      21.549 -28.350   0.000  0.00  0.00    +0.000 OA
ATOM    121  N   UNK A   1      22.549 -27.330   0.000  0.00  0.00    +0.000 NA
BRANCH 121 122
ATOM    122  C   UNK A   1      21.960 -26.752   0.000  0.00  0.00    +0.000 C 
BRANCH 122 123
ATOM    123  C   UNK A   1      22.166 -25.953   0.000  0.00  0.00    +0.000 C 
ATOM    124  C   UNK A   1      21.576 -25.376   0.000  0.00  0.00    +0.000 C 
ATOM    125  C   UNK A   1      22.960 -25.732   0.000  0.00  0.00    +0.000 C 
ENDBRANCH 122 123
BRANCH 122 126
ATOM    126  C   UNK A   1      21.165 -26.974   0.000  0.00  0.00    +0.000 C 
ATOM    127  N   UNK A   1      20.960 -27.773   0.000  0.00  0.00    +0.000 NA
ATOM    128  O   UNK A   1      20.576 -26.397   0.000  0.00  0.00    +0.000 OA
ENDBRANCH 122 126
ENDBRANCH 121 122
ENDBRANCH 118 119
ENDBRANCH 111 112
BRANCH 111 129
ATOM    129  C   UNK A   1      21.315 -31.111   0.000  0.00  0.00    +0.000 C 
BRANCH 129 130
ATOM    130  C   UNK A   1      21.280 -31.935   0.000  0.00  0.00    +0.000 C 
BRANCH 130 131
ATOM    131  C   UNK A   1      20.549 -32.317   0.000  0.00  0.00    +0.000 C 
BRANCH 131 132
ATOM    132  C   UNK A   1      20.514 -33.141   0.000  0.00  0.00    +0.000 C 
ATOM    133  N   UNK A   1      21.211 -33.583   0.000  0.00  0.00    +0.000 NA
ENDBRANCH 131 132
ENDBRANCH 130 131
ENDBRANCH 129 130
ENDBRANCH 111 129
ENDBRANCH 110 111
ENDBRANCH 107 108
ENDBRANCH 106 107
ENDBRANCH 103 104
BRANCH 103 134
ATOM    134  C   UNK A   1      24.727 -34.971   0.000  0.00  0.00    +0.000 C 
BRANCH 134 135
ATOM    135  C   UNK A   1      24.693 -35.795   0.000  0.00  0.00    +0.000 A 
ATOM    136  C   UNK A   1      24.005 -36.251   0.000  0.00  0.00    +0.000 A 
ATOM    137  N   UNK A   1      24.227 -37.046   0.000  0.00  0.00    +0.000 NA
ATOM    138  C   UNK A   1      25.051 -37.081   0.000  0.00  0.00    +0.000 A 
ATOM    139  C   UNK A   1      25.339 -36.307   0.000  0.00  0.00    +0.000 A 
ATOM    140  C   UNK A   1      26.153 -36.170   0.000  0.00  0.00    +0.000 A 
ATOM    141  C   UNK A   1      26.678 -36.806   0.000  0.00  0.00    +0.000 A 
ATOM    142  C   UNK A   1      26.390 -37.579   0.000  0.00  0.00    +0.000 A 
ATOM    143  C   UNK A   1      25.577 -37.717   0.000  0.00  0.00    +0.000 A 
ENDBRANCH 134 135
ENDBRANCH 103 134
ENDBRANCH 102 103
ENDBRANCH  99 100
BRANCH  99 144
ATOM    144  C   UNK A   1      21.837 -35.674   0.000  0.00  0.00    +0.000 C 
BRANCH 144 145
ATOM    145  C   UNK A   1      21.106 -36.056   0.000  0.00  0.00    +0.000 C 
BRANCH 145 146
ATOM    146  C   UNK A   1      21.071 -36.880   0.000  0.00  0.00    +0.000 C 
BRANCH 146 147
ATOM    147  N   UNK A   1      20.340 -37.262   0.000  0.00  0.00    +0.000 NA
ATOM    148  C   UNK A   1      20.305 -38.087   0.000  0.00  0.00    +0.000 C 
ATOM    149  N   UNK A   1      19.574 -38.469   0.000  0.00  0.00    +0.000 NA
ATOM    150  N   UNK A   1      21.002 -38.529   0.000  0.00  0.00    +0.000 NA
ENDBRANCH 146 147
ENDBRANCH 145 146
ENDBRANCH 144 145
ENDBRANCH  99 144
ENDBRANCH  98  99
ENDBRANCH  95  96
BRANCH  95 151
ATOM    151  C   UNK A   1      19.783 -33.523   0.000  0.00  0.00    +0.000 C 
BRANCH 151 152
ATOM    152  C   UNK A   1      19.087 -33.081   0.000  0.00  0.00    +0.000 A 
ATOM    153  C   UNK A   1      18.355 -33.463   0.000  0.00  0.00    +0.000 A 
ATOM    154  C   UNK A   1      17.659 -33.020   0.000  0.00  0.00    +0.000 A 
ATOM    155  C   UNK A   1      17.694 -32.196   0.000  0.00  0.00    +0.000 A 
ATOM    156  C   UNK A   1      18.425 -31.814   0.000  0.00  0.00    +0.000 A 
ATOM    157  C   UNK A   1      19.121 -32.257   0.000  0.00  0.00    +0.000 A 
ENDBRANCH 151 152
ENDBRANCH  95 151
ENDBRANCH  94  95
ENDBRANCH  91  92
BRANCH  91 158
ATOM    158  C   UNK A   1      17.554 -35.493   0.000  0.00  0.00    +0.000 C 
BRANCH 158 159
ATOM    159  C   UNK A   1      18.251 -35.935   0.000  0.00  0.00    +0.000 A 
ATOM    160  C   UNK A   1      19.018 -35.632   0.000  0.00  0.00    +0.000 A 
ATOM    161  N   UNK A   1      19.544 -36.268   0.000  0.00  0.00    +0.000 NA
ATOM    162  C   UNK A   1      19.101 -36.964   0.000  0.00  0.00    +0.000 A 
ATOM    163  N   UNK A   1      18.302 -36.759   0.000  0.00  0.00    +0.000 NA
ENDBRANCH 158 159
ENDBRANCH  91 158
ENDBRANCH  90  91
ENDBRANCH  87  88
BRANCH  87 164
ATOM    164  C   UNK A   1      15.500 -33.342   0.000  0.00  0.00    +0.000 C 
BRANCH 164 165
ATOM    165  C   UNK A   1      16.231 -32.960   0.000  0.00  0.00    +0.000 C 
BRANCH 165 166
ATOM    166  C   UNK A   1      16.266 -32.136   0.000  0.00  0.00    +0.000 C 
ATOM    167  O   UNK A   1      15.570 -31.694   0.000  0.00  0.00    +0.000 OA
ATOM    168  O   UNK A   1      16.997 -31.754   0.000  0.00  0.00    +0.000 OA
ENDBRANCH 165 166
ENDBRANCH 164 165
ENDBRANCH  87 164
ENDBRANCH  86  87
ENDBRANCH   1  84
BRANCH   1 169
ATOM    169  C   UNK A   1      13.271 -35.312   0.000  0.00  0.00    +0.000 C 
BRANCH 169 170
ATOM    170  C   UNK A   1      13.968 -35.755   0.000  0.00  0.00    +0.000 C 
BRANCH 170 172
ATOM    171  C   UNK A   1      14.629 -37.021   0.000  0.00  0.00    +0.000 C 
ATOM    172  S   UNK A   1      13.933 -36.579   0.000  0.00  0.00    +0.000 S 
ENDBRANCH 170 172
ENDBRANCH 169 170
ENDBRANCH   1 169
TORSDOF 86
