REMARK  Name = 
REMARK  8 active torsions:
REMARK  status: ('A' for Active; 'I' for Inactive)
REMARK    1  A    between atoms: C_2  and  N_3
REMARK    2  A    between atoms: N_3  and  C_4
REMARK    3  A    between atoms: N_3  and  C_6
REMARK    4  A    between atoms: C_6  and  C_7
REMARK    5  A    between atoms: C_7  and  C_8
REMARK    6  A    between atoms: C_21  and  N_24
REMARK    7  A    between atoms: C_25  and  O_27
REMARK    8  A    between atoms: O_27  and  C_28
REMARK                            x       y       z     vdW  Elec       q    Type
REMARK                         _______ _______ _______ _____ _____    ______ ____
ROOT
ATOM      1  C   UNL     1      -1.097  -1.238   0.000  0.00  0.00    +0.000 C 
ATOM      2  O   UNL     1      -0.685  -0.523   0.000  0.00  0.00    +0.000 OA
ATOM      3  N   UNL     1      -0.685  -1.952   0.000  0.00  0.00    +0.000 N 
ATOM      4  C   UNL     1      -1.097  -2.666   0.000  0.00  0.00    +0.000 A 
ATOM      5  C   UNL     1      -1.922  -2.666   0.000  0.00  0.00    +0.000 A 
ATOM      6  C   UNL     1      -2.335  -3.381   0.000  0.00  0.00    +0.000 A 
ATOM      7  C   UNL     1      -1.922  -4.095   0.000  0.00  0.00    +0.000 A 
ATOM      8  C   UNL     1      -1.097  -4.095   0.000  0.00  0.00    +0.000 A 
ATOM      9  C   UNL     1      -0.685  -3.381   0.000  0.00  0.00    +0.000 A 
ATOM     10  S   UNL     1       0.140  -3.381   0.000  0.00  0.00    +0.000 S 
ATOM     11  C   UNL     1       0.553  -2.666   0.000  0.00  0.00    +0.000 A 
ATOM     12  C   UNL     1       0.140  -1.952   0.000  0.00  0.00    +0.000 A 
ATOM     13  C   UNL     1       0.553  -1.238   0.000  0.00  0.00    +0.000 A 
ATOM     14  C   UNL     1       1.378  -1.238   0.000  0.00  0.00    +0.000 A 
ATOM     15  C   UNL     1       1.790  -1.952   0.000  0.00  0.00    +0.000 A 
ATOM     16  C   UNL     1       1.378  -2.666   0.000  0.00  0.00    +0.000 A 
ENDROOT
BRANCH  14  17
ATOM     17  N   UNL     1       1.790  -0.523   0.000  0.00  0.00    +0.000 NA
ATOM     18  C   UNL     1       2.615  -0.523   0.000  0.00  0.00    +0.000 C 
ATOM     19  O   UNL     1       3.028  -1.238   0.000  0.00  0.00    +0.000 OA
BRANCH  18  20
ATOM     20  O   UNL     1       3.028   0.191   0.000  0.00  0.00    +0.000 OA
BRANCH  20  21
ATOM     21  C   UNL     1       3.853   0.191   0.000  0.00  0.00    +0.000 C 
ATOM     22  C   UNL     1       4.265   0.906   0.000  0.00  0.00    +0.000 C 
ENDBRANCH  20  21
ENDBRANCH  18  20
ENDBRANCH  14  17
BRANCH   1  23
ATOM     23  C   UNL     1      -1.922  -1.238   0.000  0.00  0.00    +0.000 C 
BRANCH  23  24
ATOM     24  C   UNL     1      -2.335  -0.523   0.000  0.00  0.00    +0.000 C 
BRANCH  24  25
ATOM     25  N   UNL     1      -3.160  -0.523   0.000  0.00  0.00    +0.000 NA
BRANCH  25  26
ATOM     26  C   UNL     1      -3.572  -1.238   0.000  0.00  0.00    +0.000 C 
ATOM     27  C   UNL     1      -4.397  -1.238   0.000  0.00  0.00    +0.000 C 
ENDBRANCH  25  26
BRANCH  25  29
ATOM     28  C   UNL     1      -4.397   0.191   0.000  0.00  0.00    +0.000 C 
ATOM     29  C   UNL     1      -3.572   0.191   0.000  0.00  0.00    +0.000 C 
ENDBRANCH  25  29
ENDBRANCH  24  25
ENDBRANCH  23  24
ENDBRANCH   1  23
TORSDOF 8
