REMARK  Name = 
REMARK  1 active torsions:
REMARK  status: ('A' for Active; 'I' for Inactive)
REMARK    1  A    between atoms: C_1  and  S_2
REMARK                            x       y       z     vdW  Elec       q    Type
REMARK                         _______ _______ _______ _____ _____    ______ ____
ROOT
ATOM      1  S   UNL     1       1.238  -0.715   0.000  0.00  0.00    +0.000 S 
ATOM      2  O   UNL     1       1.650  -1.429   0.000  0.00  0.00    +0.000 OA
ATOM      3  O   UNL     1       1.952  -0.302   0.000  0.00  0.00    +0.000 OA
ATOM      4  O   UNL     1       0.523  -1.127   0.000  0.00  0.00    +0.000 OA
ENDROOT
BRANCH   1   5
ATOM      5  C   UNL     1       0.825   0.000   0.000  0.00  0.00    +0.000 C 
ATOM      6  I   UNL     1       0.000   0.000   0.000  0.00  0.00    +0.000 I 
ENDBRANCH   1   5
TORSDOF 1
