REMARK  Name = 
REMARK  12 active torsions:
REMARK  status: ('A' for Active; 'I' for Inactive)
REMARK    1  A    between atoms: C_3  and  C_7
REMARK    2  A    between atoms: C_5  and  C_10
REMARK    3  A    between atoms: C_10  and  C_11
REMARK    4  A    between atoms: C_11  and  N_12
REMARK    5  A    between atoms: C_11  and  C_16
REMARK    6  A    between atoms: N_12  and  S_13
REMARK    7  A    between atoms: S_13  and  C_29
REMARK    8  A    between atoms: C_24  and  O_26
REMARK    9  A    between atoms: O_26  and  C_27
REMARK   10  A    between atoms: C_30  and  C_35
REMARK   11  A    between atoms: C_32  and  C_38
REMARK   12  A    between atoms: C_34  and  C_41
REMARK                            x       y       z     vdW  Elec       q    Type
REMARK                         _______ _______ _______ _____ _____    ______ ____
ROOT
ATOM      1  C   UNL     1      -0.598   0.281   0.000  0.00  0.00    +0.000 C 
ENDROOT
BRANCH   1   2
ATOM      2  C   UNL     1       0.115   0.698   0.000  0.00  0.00    +0.000 C 
ATOM      3  O   UNL     1       0.110   1.523   0.000  0.00  0.00    +0.000 OA
ATOM      4  N   UNL     1       0.827   0.285   0.000  0.00  0.00    +0.000 N 
ATOM      5  C   UNL     1       0.824  -0.539   0.000  0.00  0.00    +0.000 C 
ATOM      6  C   UNL     1       1.532  -0.951   0.000  0.00  0.00    +0.000 C 
ATOM      7  N   UNL     1       2.248  -0.544   0.000  0.00  0.00    +0.000 N 
ATOM      8  C   UNL     1       2.251   0.280   0.000  0.00  0.00    +0.000 C 
ATOM      9  C   UNL     1       1.538   0.697   0.000  0.00  0.00    +0.000 C 
ATOM     10  C   UNL     1       2.960  -0.956   0.000  0.00  0.00    +0.000 C 
ATOM     11  O   UNL     1       2.956  -1.781   0.000  0.00  0.00    +0.000 OA
BRANCH  10  12
ATOM     12  O   UNL     1       3.673  -0.539   0.000  0.00  0.00    +0.000 OA
BRANCH  12  13
ATOM     13  C   UNL     1       4.385  -0.952   0.000  0.00  0.00    +0.000 C 
ATOM     14  C   UNL     1       5.098  -0.535   0.000  0.00  0.00    +0.000 C 
ENDBRANCH  12  13
ENDBRANCH  10  12
ENDBRANCH   1   2
BRANCH   1  15
ATOM     15  C   UNL     1      -0.594  -0.544   0.000  0.00  0.00    +0.000 C 
BRANCH  15  20
ATOM     16  C   UNL     1      -2.733  -0.965   0.000  0.00  0.00    +0.000 A 
ATOM     17  C   UNL     1      -2.734  -1.792   0.000  0.00  0.00    +0.000 A 
ATOM     18  C   UNL     1      -2.019  -2.205   0.000  0.00  0.00    +0.000 A 
ATOM     19  C   UNL     1      -1.302  -1.792   0.000  0.00  0.00    +0.000 A 
ATOM     20  C   UNL     1      -1.305  -0.961   0.000  0.00  0.00    +0.000 A 
ATOM     21  C   UNL     1      -2.021  -0.552   0.000  0.00  0.00    +0.000 A 
BRANCH  18  22
ATOM     22  C   UNL     1      -2.027  -3.027   0.000  0.00  0.00    +0.000 C 
ATOM     23  N   UNL     1      -2.744  -3.435   0.000  0.00  0.00    +0.000 NA
ATOM     24  N   UNL     1      -1.315  -3.439   0.000  0.00  0.00    +0.000 NA
ENDBRANCH  18  22
ENDBRANCH  15  20
ENDBRANCH   1  15
BRANCH   1  25
ATOM     25  N   UNL     1      -1.315   0.694   0.000  0.00  0.00    +0.000 NA
BRANCH  25  26
ATOM     26  S   UNL     1      -2.031   0.285   0.000  0.00  0.00    +0.000 S 
ATOM     27  O   UNL     1      -1.623  -0.427   0.000  0.00  0.00    +0.000 OA
ATOM     28  O   UNL     1      -2.619  -0.298   0.000  0.00  0.00    +0.000 OA
BRANCH  26  29
ATOM     29  C   UNL     1      -2.619   0.873   0.000  0.00  0.00    +0.000 A 
ATOM     30  C   UNL     1      -2.401   1.676   0.000  0.00  0.00    +0.000 A 
ATOM     31  C   UNL     1      -2.987   2.263   0.000  0.00  0.00    +0.000 A 
ATOM     32  C   UNL     1      -3.791   2.048   0.000  0.00  0.00    +0.000 A 
ATOM     33  C   UNL     1      -4.005   1.241   0.000  0.00  0.00    +0.000 A 
ATOM     34  C   UNL     1      -3.495   0.724   0.000  0.00  0.00    +0.000 A 
BRANCH  32  35
ATOM     35  C   UNL     1      -4.381   2.640   0.000  0.00  0.00    +0.000 C 
ATOM     36  C   UNL     1      -5.098   2.231   0.000  0.00  0.00    +0.000 C 
ATOM     37  C   UNL     1      -4.169   3.439   0.000  0.00  0.00    +0.000 C 
ENDBRANCH  32  35
BRANCH  30  38
ATOM     38  C   UNL     1      -1.690   2.094   0.000  0.00  0.00    +0.000 C 
ATOM     39  C   UNL     1      -1.477   2.894   0.000  0.00  0.00    +0.000 C 
ATOM     40  C   UNL     1      -1.106   1.510   0.000  0.00  0.00    +0.000 C 
ENDBRANCH  30  38
BRANCH  34  41
ATOM     41  C   UNL     1      -3.814   0.069   0.000  0.00  0.00    +0.000 C 
ATOM     42  C   UNL     1      -4.590  -0.031   0.000  0.00  0.00    +0.000 C 
ATOM     43  C   UNL     1      -3.710  -0.606   0.000  0.00  0.00    +0.000 C 
ENDBRANCH  34  41
ENDBRANCH  26  29
ENDBRANCH  25  26
ENDBRANCH   1  25
TORSDOF 12
REMARK  Name = 
REMARK  12 active torsions:
REMARK  status: ('A' for Active; 'I' for Inactive)
REMARK    1  A    between atoms: C_3  and  C_7
REMARK    2  A    between atoms: C_5  and  C_10
REMARK    3  A    between atoms: C_10  and  C_11
REMARK    4  A    between atoms: C_11  and  N_12
REMARK    5  A    between atoms: C_11  and  C_16
REMARK    6  A    between atoms: N_12  and  S_13
REMARK    7  A    between atoms: S_13  and  C_29
REMARK    8  A    between atoms: C_24  and  O_26
REMARK    9  A    between atoms: O_26  and  C_27
REMARK   10  A    between atoms: C_30  and  C_35
REMARK   11  A    between atoms: C_32  and  C_38
REMARK   12  A    between atoms: C_34  and  C_41
REMARK                            x       y       z     vdW  Elec       q    Type
REMARK                         _______ _______ _______ _____ _____    ______ ____
ROOT
ATOM      1 CL   UNL     1       2.135  -3.156   0.000  0.00  0.00    +0.000 Cl
ENDROOT
TORSDOF 0
