REMARK  Name = 
REMARK  4 active torsions:
REMARK  status: ('A' for Active; 'I' for Inactive)
REMARK    1  A    between atoms: C_1  and  O_7
REMARK    2  A    between atoms: C_6  and  C_12
REMARK    3  A    between atoms: O_7  and  C_8
REMARK    4  A    between atoms: C_8  and  C_9
REMARK                            x       y       z     vdW  Elec       q    Type
REMARK                         _______ _______ _______ _____ _____    ______ ____
ROOT
ATOM      1  C   UNL     1      -0.357  -0.412   0.000  0.00  0.00    +0.000 C 
ATOM      2  C   UNL     1      -1.072  -0.825   0.000  0.00  0.00    +0.000 C 
ATOM      3  C   UNL     1      -1.072  -1.650   0.000  0.00  0.00    +0.000 C 
ATOM      4  C   UNL     1      -0.357  -2.062   0.000  0.00  0.00    +0.000 C 
ATOM      5  C   UNL     1       0.357  -1.650   0.000  0.00  0.00    +0.000 C 
ATOM      6  C   UNL     1       0.357  -0.825   0.000  0.00  0.00    +0.000 C 
ATOM      7  C   UNL     1      -1.786  -2.062   0.000  0.00  0.00    +0.000 C 
ENDROOT
BRANCH   6   8
ATOM      8  C   UNL     1       1.072  -0.412   0.000  0.00  0.00    +0.000 C 
ATOM      9  C   UNL     1       1.072   0.412   0.000  0.00  0.00    +0.000 C 
ATOM     10  C   UNL     1       1.786  -0.825   0.000  0.00  0.00    +0.000 C 
ENDBRANCH   6   8
BRANCH   1  11
ATOM     11  O   UNL     1      -0.357   0.412   0.000  0.00  0.00    +0.000 OA
BRANCH  11  12
ATOM     12  C   UNL     1       0.357   0.825   0.000  0.00  0.00    +0.000 C 
BRANCH  12  13
ATOM     13  C   UNL     1       0.357   1.650   0.000  0.00  0.00    +0.000 C 
ATOM     14  O   UNL     1       1.072   2.062   0.000  0.00  0.00    +0.000 OA
ENDBRANCH  12  13
ENDBRANCH  11  12
ENDBRANCH   1  11
TORSDOF 4
