REMARK  Name = 
REMARK  5 active torsions:
REMARK  status: ('A' for Active; 'I' for Inactive)
REMARK    1  A    between atoms: N_1  and  C_11
REMARK    2  A    between atoms: N_2  and  C_13
REMARK    3  A    between atoms: C_3  and  C_5
REMARK    4  A    between atoms: C_5  and  C_9
REMARK    5  A    between atoms: C_9  and  C_13
REMARK                            x       y       z     vdW  Elec       q    Type
REMARK                         _______ _______ _______ _____ _____    ______ ____
ROOT
ATOM      1  N   UNL     1      -0.651   0.120   0.000  0.00  0.00    +0.000 N 
ATOM      2  C   UNL     1      -0.651   1.448   0.000  0.00  0.00    +0.000 C 
ATOM      3  C   UNL     1      -0.169   0.784   0.000  0.00  0.00    +0.000 C 
ATOM      4  C   UNL     1      -1.431   1.196   0.000  0.00  0.00    +0.000 A 
ATOM      5  C   UNL     1      -1.431   0.371   0.000  0.00  0.00    +0.000 A 
ATOM      6  C   UNL     1      -0.904   2.233   0.000  0.00  0.00    +0.000 C 
ATOM      7  C   UNL     1      -2.146   1.609   0.000  0.00  0.00    +0.000 A 
ATOM      8  C   UNL     1      -2.146  -0.041   0.000  0.00  0.00    +0.000 A 
ATOM      9  C   UNL     1      -2.860   1.196   0.000  0.00  0.00    +0.000 A 
ATOM     10  C   UNL     1      -2.860   0.371   0.000  0.00  0.00    +0.000 A 
ENDROOT
BRANCH   1  11
ATOM     11  C   UNL     1      -0.394  -0.664   0.000  0.00  0.00    +0.000 A 
ATOM     12  C   UNL     1       0.413  -0.834   0.000  0.00  0.00    +0.000 A 
ATOM     13  C   UNL     1      -0.945  -1.278   0.000  0.00  0.00    +0.000 A 
ATOM     14  C   UNL     1       0.669  -1.619   0.000  0.00  0.00    +0.000 A 
ATOM     15  C   UNL     1      -0.689  -2.063   0.000  0.00  0.00    +0.000 A 
ATOM     16  C   UNL     1       0.118  -2.233   0.000  0.00  0.00    +0.000 A 
ENDBRANCH   1  11
BRANCH   2  17
ATOM     17  C   UNL     1       0.018   1.931   0.000  0.00  0.00    +0.000 C 
BRANCH  17  18
ATOM     18  C   UNL     1       0.771   1.595   0.000  0.00  0.00    +0.000 C 
BRANCH  18  19
ATOM     19  C   UNL     1       1.439   2.078   0.000  0.00  0.00    +0.000 C 
BRANCH  19  20
ATOM     20  N   UNL     1       2.192   1.742   0.000  0.00  0.00    +0.000 NA
ATOM     21  C   UNL     1       2.860   2.225   0.000  0.00  0.00    +0.000 C 
ATOM     22  H   UNL     1       2.245   1.233   0.000  0.00  0.00    +0.000 HD
ENDBRANCH  19  20
ENDBRANCH  18  19
ENDBRANCH  17  18
ENDBRANCH   2  17
TORSDOF 5
