REMARK  Name = 
REMARK  5 active torsions:
REMARK  status: ('A' for Active; 'I' for Inactive)
REMARK    1  A    between atoms: C_3  and  O_8
REMARK    2  A    between atoms: O_8  and  C_9
REMARK    3  A    between atoms: C_12  and  C_16
REMARK    4  A    between atoms: C_16  and  C_17
REMARK    5  A    between atoms: C_17  and  C_18
REMARK                            x       y       z     vdW  Elec       q    Type
REMARK                         _______ _______ _______ _____ _____    ______ ____
ROOT
ATOM      1  C   UNL     1       1.429  -4.125   0.000  0.00  0.00    +0.000 A 
ATOM      2  C   UNL     1       1.429  -4.950   0.000  0.00  0.00    +0.000 A 
ATOM      3  C   UNL     1       0.715  -5.362   0.000  0.00  0.00    +0.000 A 
ATOM      4  C   UNL     1       0.000  -4.950   0.000  0.00  0.00    +0.000 A 
ATOM      5  C   UNL     1       0.000  -4.125   0.000  0.00  0.00    +0.000 A 
ATOM      6  C   UNL     1       0.715  -3.712   0.000  0.00  0.00    +0.000 A 
ATOM      7  I   UNL     1       0.715  -2.888   0.000  0.00  0.00    +0.000 I 
ATOM      8  I   UNL     1       2.143  -5.362   0.000  0.00  0.00    +0.000 I 
ENDROOT
BRANCH   1   9
ATOM      9  O   UNL     1       2.143  -3.712   0.000  0.00  0.00    +0.000 OA
BRANCH   9  12
ATOM     10  C   UNL     1       2.858  -1.650   0.000  0.00  0.00    +0.000 A 
ATOM     11  C   UNL     1       2.858  -2.475   0.000  0.00  0.00    +0.000 A 
ATOM     12  C   UNL     1       2.143  -2.888   0.000  0.00  0.00    +0.000 A 
ATOM     13  C   UNL     1       1.429  -2.475   0.000  0.00  0.00    +0.000 A 
ATOM     14  C   UNL     1       1.429  -1.650   0.000  0.00  0.00    +0.000 A 
ATOM     15  C   UNL     1       2.143  -1.238   0.000  0.00  0.00    +0.000 A 
ATOM     16  O   UNL     1       2.143  -0.412   0.000  0.00  0.00    +0.000 OA
ENDBRANCH   9  12
ENDBRANCH   1   9
BRANCH   4  17
ATOM     17  C   UNL     1      -0.715  -5.362   0.000  0.00  0.00    +0.000 C 
BRANCH  17  18
ATOM     18  C   UNL     1      -0.715  -6.188   0.000  0.00  0.00    +0.000 C 
BRANCH  18  19
ATOM     19  C   UNL     1      -1.429  -6.600   0.000  0.00  0.00    +0.000 C 
ATOM     20  O   UNL     1      -1.429  -7.425   0.000  0.00  0.00    +0.000 OA
ATOM     21  O   UNL     1      -2.143  -6.188   0.000  0.00  0.00    +0.000 OA
ENDBRANCH  18  19
ENDBRANCH  17  18
ENDBRANCH   4  17
TORSDOF 5
