REMARK  Name = 
REMARK  7 active torsions:
REMARK  status: ('A' for Active; 'I' for Inactive)
REMARK    1  A    between atoms: O_2  and  C_3
REMARK    2  A    between atoms: C_4  and  O_5
REMARK    3  A    between atoms: C_7  and  C_11
REMARK    4  A    between atoms: C_11  and  C_13
REMARK    5  A    between atoms: N_16  and  C_17
REMARK    6  A    between atoms: C_17  and  C_18
REMARK    7  A    between atoms: C_18  and  C_19
REMARK                            x       y       z     vdW  Elec       q    Type
REMARK                         _______ _______ _______ _____ _____    ______ ____
ROOT
ATOM      1  C   UNL     1       4.287  -7.425   0.000  0.00  0.00    +0.000 C 
ATOM      2  C   UNL     1       5.001  -7.838   0.000  0.00  0.00    +0.000 C 
ATOM      3  C   UNL     1       5.001  -8.662   0.000  0.00  0.00    +0.000 C 
ATOM      4  N   UNL     1       4.287  -9.075   0.000  0.00  0.00    +0.000 NA
ATOM      5  C   UNL     1       3.572  -8.662   0.000  0.00  0.00    +0.000 C 
ATOM      6  C   UNL     1       3.572  -7.838   0.000  0.00  0.00    +0.000 C 
ENDROOT
BRANCH   1   7
ATOM      7  C   UNL     1       4.287  -6.600   0.000  0.00  0.00    +0.000 C 
ATOM      8  O   UNL     1       5.001  -6.188   0.000  0.00  0.00    +0.000 OA
BRANCH   7  11
ATOM      9  C   UNL     1       2.858  -4.950   0.000  0.00  0.00    +0.000 A 
ATOM     10  C   UNL     1       3.572  -5.362   0.000  0.00  0.00    +0.000 A 
ATOM     11  C   UNL     1       3.572  -6.188   0.000  0.00  0.00    +0.000 A 
ATOM     12  C   UNL     1       2.858  -6.600   0.000  0.00  0.00    +0.000 A 
ATOM     13  C   UNL     1       2.143  -6.188   0.000  0.00  0.00    +0.000 A 
ATOM     14  C   UNL     1       2.143  -5.362   0.000  0.00  0.00    +0.000 A 
BRANCH  10  15
ATOM     15  O   UNL     1       4.287  -4.950   0.000  0.00  0.00    +0.000 OA
ATOM     16  C   UNL     1       5.001  -5.362   0.000  0.00  0.00    +0.000 C 
ENDBRANCH  10  15
BRANCH   9  18
ATOM     17  C   UNL     1       2.143  -3.712   0.000  0.00  0.00    +0.000 C 
ATOM     18  O   UNL     1       2.858  -4.125   0.000  0.00  0.00    +0.000 OA
ENDBRANCH   9  18
ENDBRANCH   7  11
ENDBRANCH   1   7
BRANCH   4  19
ATOM     19  C   UNL     1       4.287  -9.900   0.000  0.00  0.00    +0.000 C 
BRANCH  19  20
ATOM     20  C   UNL     1       5.001 -10.312   0.000  0.00  0.00    +0.000 C 
BRANCH  20  21
ATOM     21  C   UNL     1       5.001 -11.137   0.000  0.00  0.00    +0.000 A 
ATOM     22  C   UNL     1       5.716 -11.550   0.000  0.00  0.00    +0.000 A 
ATOM     23  C   UNL     1       5.716 -12.375   0.000  0.00  0.00    +0.000 A 
ATOM     24  C   UNL     1       5.001 -12.787   0.000  0.00  0.00    +0.000 A 
ATOM     25  F   UNL     1       5.001 -13.613   0.000  0.00  0.00    +0.000 F 
ATOM     26  C   UNL     1       4.287 -12.375   0.000  0.00  0.00    +0.000 A 
ATOM     27  C   UNL     1       4.287 -11.550   0.000  0.00  0.00    +0.000 A 
ENDBRANCH  20  21
ENDBRANCH  19  20
ENDBRANCH   4  19
TORSDOF 7
