REMARK  Name = 
REMARK  4 active torsions:
REMARK  status: ('A' for Active; 'I' for Inactive)
REMARK    1  A    between atoms: C_1  and  C_10
REMARK    2  A    between atoms: C_9  and  C_11
REMARK    3  A    between atoms: C_11  and  C_12
REMARK    4  A    between atoms: C_24  and  C_27
REMARK                            x       y       z     vdW  Elec       q    Type
REMARK                         _______ _______ _______ _____ _____    ______ ____
ROOT
ATOM      1  C   UNL     1      -1.026  -0.619   0.000  0.00  0.00    +0.000 A 
ATOM      2  N   UNL     1      -0.311  -0.207   0.000  0.00  0.00    +0.000 NA
ATOM      3  N   UNL     1       0.401  -0.619   0.000  0.00  0.00    +0.000 N 
ATOM      4  C   UNL     1       0.401  -1.444   0.000  0.00  0.00    +0.000 A 
ATOM      5  N   UNL     1      -0.309  -1.856   0.000  0.00  0.00    +0.000 NA
ATOM      6  C   UNL     1      -1.026  -1.448   0.000  0.00  0.00    +0.000 A 
ATOM      7  N   UNL     1       1.178  -1.699   0.000  0.00  0.00    +0.000 NA
ATOM      8  C   UNL     1       1.665  -1.036   0.000  0.00  0.00    +0.000 A 
ATOM      9  C   UNL     1       1.188  -0.371   0.000  0.00  0.00    +0.000 A 
ENDROOT
BRANCH   1  10
ATOM     10  C   UNL     1      -1.740  -0.206   0.000  0.00  0.00    +0.000 A 
ATOM     11  C   UNL     1      -2.455  -0.619   0.000  0.00  0.00    +0.000 A 
ATOM     12  C   UNL     1      -3.167  -0.207   0.000  0.00  0.00    +0.000 A 
ATOM     13  C   UNL     1      -3.167   0.618   0.000  0.00  0.00    +0.000 A 
ATOM     14  C   UNL     1      -2.457   1.030   0.000  0.00  0.00    +0.000 A 
ATOM     15  C   UNL     1      -1.740   0.622   0.000  0.00  0.00    +0.000 A 
ATOM     16  F   UNL     1      -3.881  -0.620   0.000  0.00  0.00    +0.000 F 
BRANCH  13  17
ATOM     17  C   UNL     1      -3.881   1.031   0.000  0.00  0.00    +0.000 C 
ATOM     18  N   UNL     1      -4.596   0.618   0.000  0.00  0.00    +0.000 NA
ATOM     19  C   UNL     1      -5.310   1.031   0.000  0.00  0.00    +0.000 C 
ATOM     20  O   UNL     1      -3.881   1.856   0.000  0.00  0.00    +0.000 OA
ENDBRANCH  13  17
ENDBRANCH   1  10
BRANCH   9  21
ATOM     21  C   UNL     1       1.601   0.344   0.000  0.00  0.00    +0.000 C 
BRANCH  21  22
ATOM     22  C   UNL     1       2.425   0.344   0.000  0.00  0.00    +0.000 A 
ATOM     23  C   UNL     1       2.838   1.058   0.000  0.00  0.00    +0.000 A 
ATOM     24  C   UNL     1       3.661   1.057   0.000  0.00  0.00    +0.000 A 
ATOM     25  C   UNL     1       4.074   0.343   0.000  0.00  0.00    +0.000 A 
ATOM     26  C   UNL     1       3.664  -0.369   0.000  0.00  0.00    +0.000 A 
ATOM     27  C   UNL     1       2.840  -0.374   0.000  0.00  0.00    +0.000 A 
ATOM     28  C   UNL     1       4.073   1.770   0.000  0.00  0.00    +0.000 A 
ATOM     29  C   UNL     1       4.898   1.770   0.000  0.00  0.00    +0.000 A 
ATOM     30  C   UNL     1       5.310   1.060   0.000  0.00  0.00    +0.000 A 
ATOM     31  N   UNL     1       4.902   0.343   0.000  0.00  0.00    +0.000 NA
ENDBRANCH  21  22
ENDBRANCH   9  21
TORSDOF 4
