REMARK  Name = 
REMARK  3 active torsions:
REMARK  status: ('A' for Active; 'I' for Inactive)
REMARK    1  A    between atoms: C_2  and  CA_4
REMARK    2  A    between atoms: CA_4  and  C_6
REMARK    3  A    between atoms: C_6  and  C_7
REMARK                            x       y       z     vdW  Elec       q    Type
REMARK                         _______ _______ _______ _____ _____    ______ ____
ROOT
ATOM      1  C   UNL     1      -0.112  -0.027   0.000  0.00  0.00    +0.000 A 
ATOM      2  C   UNL     1      -0.026  -0.848   0.000  0.00  0.00    +0.000 A 
ATOM      3  N   UNL     1       0.781  -1.019   0.000  0.00  0.00    +0.000 NA
ATOM      4  C   UNL     1       1.194  -0.305   0.000  0.00  0.00    +0.000 A 
ATOM      5  C   UNL     1       0.642   0.308   0.000  0.00  0.00    +0.000 A 
ATOM      6  C   UNL     1       0.896   1.093   0.000  0.00  0.00    +0.000 A 
ATOM      7  C   UNL     1       1.704   1.265   0.000  0.00  0.00    +0.000 A 
ATOM      8  C   UNL     1       2.256   0.652   0.000  0.00  0.00    +0.000 A 
ATOM      9  N   UNL     1       2.001  -0.133   0.000  0.00  0.00    +0.000 NA
ENDROOT
BRANCH   1  10
ATOM     10  C   UNL     1      -0.827   0.385   0.000  0.00  0.00    +0.000 C 
BRANCH  10  11
ATOM     11  CA  UNL     1      -1.541  -0.027   0.000  0.00  0.00    +0.000 C 
ATOM     12  N   UNL     1      -2.256   0.385   0.000  0.00  0.00    +0.000 NA
BRANCH  11  14
ATOM     13  O   UNL     1      -2.256  -1.265   0.000  0.00  0.00    +0.000 OA
ATOM     14  C   UNL     1      -1.541  -0.852   0.000  0.00  0.00    +0.000 C 
ATOM     15  OXT UNL     1      -0.827  -1.265   0.000  0.00  0.00    +0.000 OA
ENDBRANCH  11  14
ENDBRANCH  10  11
ENDBRANCH   1  10
TORSDOF 3
