REMARK  Name = 
REMARK  6 active torsions:
REMARK  status: ('A' for Active; 'I' for Inactive)
REMARK    1  A    between atoms: C_1  and  C_15
REMARK    2  A    between atoms: C_3  and  S_16
REMARK    3  A    between atoms: C_7  and  C_17
REMARK    4  A    between atoms: C_11  and  C_13
REMARK    5  A    between atoms: N_14  and  C_15
REMARK    6  A    between atoms: C_15  and  C_23
REMARK                            x       y       z     vdW  Elec       q    Type
REMARK                         _______ _______ _______ _____ _____    ______ ____
ROOT
ATOM      1  C   UNL     1       1.071   0.736   0.000  0.00  0.00    +0.000 C 
ENDROOT
BRANCH   1   2
ATOM      2  C   UNL     1       1.783   0.323   0.000  0.00  0.00    +0.000 C 
ATOM      3  O   UNL     1       1.779  -0.502   0.000  0.00  0.00    +0.000 OA
ATOM      4  C   UNL     1       2.488  -0.916   0.000  0.00  0.00    +0.000 C 
ATOM      5  C   UNL     1       3.205  -0.509   0.000  0.00  0.00    +0.000 C 
ATOM      6  C   UNL     1       3.209   0.316   0.000  0.00  0.00    +0.000 C 
ATOM      7  C   UNL     1       2.496   0.734   0.000  0.00  0.00    +0.000 C 
ATOM      8  O   UNL     1       2.492   1.561   0.000  0.00  0.00    +0.000 OA
ATOM      9  O   UNL     1       3.921   0.736   0.000  0.00  0.00    +0.000 OA
ATOM     10  O   UNL     1       3.917  -0.919   0.000  0.00  0.00    +0.000 OA
BRANCH   4  11
ATOM     11  S   UNL     1       2.484  -1.740   0.000  0.00  0.00    +0.000 S 
ATOM     12  C   UNL     1       1.767  -2.148   0.000  0.00  0.00    +0.000 C 
ENDBRANCH   4  11
ENDBRANCH   1   2
BRANCH   1  14
ATOM     13  C   UNL     1      -0.354   0.731   0.000  0.00  0.00    +0.000 C 
ATOM     14  N   UNL     1       0.358   0.319   0.000  0.00  0.00    +0.000 NA
ATOM     15  O   UNL     1      -0.358   1.556   0.000  0.00  0.00    +0.000 OA
BRANCH  13  20
ATOM     16  C   UNL     1      -2.488   0.315   0.000  0.00  0.00    +0.000 C 
ATOM     17  C   UNL     1      -2.488  -0.510   0.000  0.00  0.00    +0.000 C 
ATOM     18  C   UNL     1      -1.776  -0.919   0.000  0.00  0.00    +0.000 C 
ATOM     19  N   UNL     1      -1.064  -0.510   0.000  0.00  0.00    +0.000 NA
ATOM     20  C   UNL     1      -1.064   0.315   0.000  0.00  0.00    +0.000 C 
ATOM     21  C   UNL     1      -1.776   0.731   0.000  0.00  0.00    +0.000 C 
BRANCH  16  22
ATOM     22  C   UNL     1      -3.204   0.727   0.000  0.00  0.00    +0.000 C 
ATOM     23  C   UNL     1      -3.921   0.319   0.000  0.00  0.00    +0.000 C 
ENDBRANCH  16  22
ENDBRANCH  13  20
ENDBRANCH   1  14
BRANCH   1  24
ATOM     24  C   UNL     1       1.067   1.561   0.000  0.00  0.00    +0.000 C 
ATOM     25  C   UNL     1       1.650   2.148   0.000  0.00  0.00    +0.000 C 
ATOM     26 CL   UNL     1       0.479   2.148   0.000  0.00  0.00    +0.000 Cl
ENDBRANCH   1  24
TORSDOF 6
