REMARK  Name = 
REMARK  7 active torsions:
REMARK  status: ('A' for Active; 'I' for Inactive)
REMARK    1  A    between atoms: C_2  and  C_19
REMARK    2  A    between atoms: C_4  and  N_32
REMARK    3  A    between atoms: C_10  and  N_29
REMARK    4  A    between atoms: C_12  and  N_28
REMARK    5  A    between atoms: C_37  and  C_38
REMARK    6  A    between atoms: C_38  and  N_40
REMARK    7  A    between atoms: N_40  and  C_41
REMARK                            x       y       z     vdW  Elec       q    Type
REMARK                         _______ _______ _______ _____ _____    ______ ____
ROOT
ATOM      1  C   UNL     1       3.235   1.039   0.000  0.00  0.00    +0.000 C 
ATOM      2  C   UNL     1       3.938   0.611   0.000  0.00  0.00    +0.000 C 
ATOM      3  C   UNL     1       3.938  -0.214   0.000  0.00  0.00    +0.000 C 
ATOM      4  C   UNL     1       3.235  -0.611   0.000  0.00  0.00    +0.000 C 
ATOM      5  C   UNL     1       2.502  -0.214   0.000  0.00  0.00    +0.000 C 
ATOM      6  C   UNL     1       1.799  -0.611   0.000  0.00  0.00    +0.000 C 
ATOM      7  C   UNL     1       1.066  -0.214   0.000  0.00  0.00    +0.000 C 
ATOM      8  C   UNL     1       0.363  -0.611   0.000  0.00  0.00    +0.000 C 
ATOM      9  C   UNL     1      -0.370  -0.214   0.000  0.00  0.00    +0.000 A 
ATOM     10  C   UNL     1      -1.073  -0.611   0.000  0.00  0.00    +0.000 A 
ATOM     11  C   UNL     1      -1.806  -0.214   0.000  0.00  0.00    +0.000 A 
ATOM     12  C   UNL     1      -1.806   0.611   0.000  0.00  0.00    +0.000 A 
ATOM     13  C   UNL     1      -1.073   1.039   0.000  0.00  0.00    +0.000 A 
ATOM     14  C   UNL     1      -0.370   0.611   0.000  0.00  0.00    +0.000 A 
ATOM     15  C   UNL     1       0.363   1.039   0.000  0.00  0.00    +0.000 C 
ATOM     16  C   UNL     1       1.066   0.611   0.000  0.00  0.00    +0.000 C 
ATOM     17  C   UNL     1       1.799   1.039   0.000  0.00  0.00    +0.000 C 
ATOM     18  C   UNL     1       2.502   0.611   0.000  0.00  0.00    +0.000 C 
ATOM     19  O   UNL     1       0.363   1.864   0.000  0.00  0.00    +0.000 OA
ATOM     20  O   UNL     1       3.235   1.864   0.000  0.00  0.00    +0.000 OA
ATOM     21  O   UNL     1       2.502   1.436   0.000  0.00  0.00    +0.000 OA
ATOM     22  O   UNL     1       1.799   1.864   0.000  0.00  0.00    +0.000 OA
ATOM     23  O   UNL     1      -1.073   1.864   0.000  0.00  0.00    +0.000 OA
ATOM     24  O   UNL     1       4.672  -0.611   0.000  0.00  0.00    +0.000 OA
ENDROOT
BRANCH  12  25
ATOM     25  N   UNL     1      -2.509   1.039   0.000  0.00  0.00    +0.000 NA
ATOM     26  C   UNL     1      -3.228   0.625   0.000  0.00  0.00    +0.000 C 
ATOM     27  O   UNL     1      -3.230  -0.200   0.000  0.00  0.00    +0.000 OA
BRANCH  26  28
ATOM     28  C   UNL     1      -3.942   1.039   0.000  0.00  0.00    +0.000 C 
BRANCH  28  29
ATOM     29  N   UNL     1      -4.660   0.625   0.000  0.00  0.00    +0.000 NA
BRANCH  29  30
ATOM     30  C   UNL     1      -4.660  -0.200   0.000  0.00  0.00    +0.000 C 
ATOM     31  C   UNL     1      -5.374  -0.613   0.000  0.00  0.00    +0.000 C 
ATOM     32  C   UNL     1      -3.946  -0.613   0.000  0.00  0.00    +0.000 C 
ATOM     33  C   UNL     1      -4.660  -1.025   0.000  0.00  0.00    +0.000 C 
ENDBRANCH  29  30
ENDBRANCH  28  29
ENDBRANCH  26  28
ENDBRANCH  12  25
BRANCH  10  34
ATOM     34  N   UNL     1      -1.073  -1.467   0.000  0.00  0.00    +0.000 N 
ATOM     35  C   UNL     1      -1.806  -1.864   0.000  0.00  0.00    +0.000 C 
ATOM     36  C   UNL     1      -0.370  -1.864   0.000  0.00  0.00    +0.000 C 
ENDBRANCH  10  34
BRANCH   2  37
ATOM     37  C   UNL     1       4.672   1.039   0.000  0.00  0.00    +0.000 C 
ATOM     38  O   UNL     1       4.672   1.864   0.000  0.00  0.00    +0.000 OA
ATOM     39  N   UNL     1       5.374   0.611   0.000  0.00  0.00    +0.000 NA
ENDBRANCH   2  37
BRANCH   4  40
ATOM     40  N   UNL     1       3.235  -1.467   0.000  0.00  0.00    +0.000 NA
ATOM     41  C   UNL     1       3.938  -1.864   0.000  0.00  0.00    +0.000 C 
ATOM     42  C   UNL     1       2.502  -1.864   0.000  0.00  0.00    +0.000 C 
ENDBRANCH   4  40
TORSDOF 7
