REMARK  Name = 
REMARK  6 active torsions:
REMARK  status: ('A' for Active; 'I' for Inactive)
REMARK    1  A    between atoms: C_1  and  C_2
REMARK    2  A    between atoms: C_6  and  N_11
REMARK    3  A    between atoms: N_11  and  C_12
REMARK    4  A    between atoms: N_11  and  C_20
REMARK    5  A    between atoms: C_12  and  C_13
REMARK    6  A    between atoms: C_20  and  C_21
REMARK                            x       y       z     vdW  Elec       q    Type
REMARK                         _______ _______ _______ _____ _____    ______ ____
ROOT
ATOM      1  N   UNL     1      -0.357  -0.206   0.000  0.00  0.00    +0.000 N 
ENDROOT
BRANCH   1   6
ATOM      2  C   UNL     1      -1.073   1.855   0.000  0.00  0.00    +0.000 A 
ATOM      3  C   UNL     1      -0.357   2.267   0.000  0.00  0.00    +0.000 A 
ATOM      4  C   UNL     1       0.357   1.855   0.000  0.00  0.00    +0.000 A 
ATOM      5  C   UNL     1       0.357   1.030   0.000  0.00  0.00    +0.000 A 
ATOM      6  C   UNL     1      -0.357   0.618   0.000  0.00  0.00    +0.000 A 
ATOM      7  C   UNL     1      -1.073   1.030   0.000  0.00  0.00    +0.000 A 
ATOM      8  O   UNL     1      -0.357   3.091   0.000  0.00  0.00    +0.000 OA
BRANCH   2   9
ATOM      9  C   UNL     1      -1.783   2.267   0.000  0.00  0.00    +0.000 C 
ATOM     10  O   UNL     1      -1.783   3.091   0.000  0.00  0.00    +0.000 OA
ATOM     11  O   UNL     1      -2.498   1.855   0.000  0.00  0.00    +0.000 OA
ENDBRANCH   2   9
ENDBRANCH   1   6
BRANCH   1  12
ATOM     12  C   UNL     1      -1.073  -0.619   0.000  0.00  0.00    +0.000 C 
BRANCH  12  13
ATOM     13  C   UNL     1      -1.073  -1.442   0.000  0.00  0.00    +0.000 A 
ATOM     14  C   UNL     1      -0.357  -1.855   0.000  0.00  0.00    +0.000 A 
ATOM     15  C   UNL     1      -0.357  -2.679   0.000  0.00  0.00    +0.000 A 
ATOM     16  C   UNL     1      -1.073  -3.091   0.000  0.00  0.00    +0.000 A 
ATOM     17  C   UNL     1      -1.783  -2.679   0.000  0.00  0.00    +0.000 A 
ATOM     18  C   UNL     1      -1.783  -1.855   0.000  0.00  0.00    +0.000 A 
ATOM     19  O   UNL     1       0.357  -1.442   0.000  0.00  0.00    +0.000 OA
ENDBRANCH  12  13
ENDBRANCH   1  12
BRANCH   1  20
ATOM     20  C   UNL     1       0.357  -0.619   0.000  0.00  0.00    +0.000 C 
BRANCH  20  21
ATOM     21  C   UNL     1       1.073  -0.206   0.000  0.00  0.00    +0.000 A 
ATOM     22  C   UNL     1       1.783  -0.619   0.000  0.00  0.00    +0.000 A 
ATOM     23  C   UNL     1       2.498  -0.206   0.000  0.00  0.00    +0.000 A 
ATOM     24  C   UNL     1       2.498   0.618   0.000  0.00  0.00    +0.000 A 
ATOM     25  C   UNL     1       1.783   1.030   0.000  0.00  0.00    +0.000 A 
ATOM     26  C   UNL     1       1.073   0.618   0.000  0.00  0.00    +0.000 A 
ATOM     27  O   UNL     1       1.783  -1.442   0.000  0.00  0.00    +0.000 OA
ENDBRANCH  20  21
ENDBRANCH   1  20
TORSDOF 6
