REMARK  Name = 
REMARK  7 active torsions:
REMARK  status: ('A' for Active; 'I' for Inactive)
REMARK    1  A    between atoms: C_8  and  C_11
REMARK    2  A    between atoms: C_8  and  C_15
REMARK    3  A    between atoms: C_13  and  S_31
REMARK    4  A    between atoms: C_14  and  C_18
REMARK    5  A    between atoms: C_15  and  C_17
REMARK    6  A    between atoms: C_15  and  C_19
REMARK    7  A    between atoms: C_17  and  C_20
REMARK                            x       y       z     vdW  Elec       q    Type
REMARK                         _______ _______ _______ _____ _____    ______ ____
ROOT
ATOM      1  C   UNL     1      -0.727  -0.818   0.000  0.00  0.00    +0.000 C 
ATOM      2  C   UNL     1       0.166   0.174   0.000  0.00  0.00    +0.000 C 
ATOM      3  N   UNL     1       0.080  -0.646   0.000  0.00  0.00    +0.000 NA
ATOM      4  N   UNL     1      -1.139  -0.103   0.000  0.00  0.00    +0.000 NA
ATOM      5  O   UNL     1      -0.587   0.510   0.000  0.00  0.00    +0.000 OA
ENDROOT
BRANCH   1  10
ATOM      6  C   UNL     1      -0.913  -2.993   0.000  0.00  0.00    +0.000 A 
ATOM      7  C   UNL     1      -0.577  -2.239   0.000  0.00  0.00    +0.000 A 
ATOM      8  C   UNL     1      -2.218  -2.411   0.000  0.00  0.00    +0.000 A 
ATOM      9  C   UNL     1      -1.733  -3.079   0.000  0.00  0.00    +0.000 A 
ATOM     10  C   UNL     1      -1.062  -1.571   0.000  0.00  0.00    +0.000 A 
ATOM     11  C   UNL     1      -1.883  -1.658   0.000  0.00  0.00    +0.000 A 
ATOM     12  F   UNL     1      -2.368  -0.990   0.000  0.00  0.00    +0.000 F 
BRANCH   9  16
ATOM     13  C   UNL     1      -2.405  -4.586   0.000  0.00  0.00    +0.000 C 
ATOM     14  O   UNL     1      -1.315  -4.168   0.000  0.00  0.00    +0.000 OA
ATOM     15  O   UNL     1      -2.823  -3.497   0.000  0.00  0.00    +0.000 OA
ATOM     16  S   UNL     1      -2.069  -3.833   0.000  0.00  0.00    +0.000 S 
ENDBRANCH   9  16
ENDBRANCH   1  10
BRANCH   2  17
ATOM     17  C   UNL     1       0.881   0.587   0.000  0.00  0.00    +0.000 C 
BRANCH  17  18
ATOM     18  C   UNL     1       0.881   1.412   0.000  0.00  0.00    +0.000 C 
ATOM     19  N   UNL     1       0.166   1.824   0.000  0.00  0.00    +0.000 NA
BRANCH  18  24
ATOM     20  C   UNL     1       1.183   3.919   0.000  0.00  0.00    +0.000 C 
ATOM     21  C   UNL     1       0.928   3.134   0.000  0.00  0.00    +0.000 C 
ATOM     22  C   UNL     1       2.263   3.134   0.000  0.00  0.00    +0.000 C 
ATOM     23  C   UNL     1       2.008   3.919   0.000  0.00  0.00    +0.000 C 
ATOM     24  C   UNL     1       1.595   1.824   0.000  0.00  0.00    +0.000 C 
ATOM     25  F   UNL     1       2.493   4.586   0.000  0.00  0.00    +0.000 F 
ATOM     26  N   UNL     1       1.595   2.649   0.000  0.00  0.00    +0.000 N 
ATOM     27  O   UNL     1       2.310   1.412   0.000  0.00  0.00    +0.000 OA
ENDBRANCH  18  24
ENDBRANCH  17  18
BRANCH  17  28
ATOM     28  C   UNL     1       1.595   0.174   0.000  0.00  0.00    +0.000 C 
BRANCH  28  31
ATOM     29  C   UNL     1       1.183  -1.365   0.000  0.00  0.00    +0.000 C 
ATOM     30  C   UNL     1       2.008  -1.365   0.000  0.00  0.00    +0.000 C 
ATOM     31  C   UNL     1       1.595  -0.651   0.000  0.00  0.00    +0.000 C 
ENDBRANCH  28  31
ENDBRANCH  17  28
ENDBRANCH   2  17
TORSDOF 7
