REMARK  Name = 
REMARK  5 active torsions:
REMARK  status: ('A' for Active; 'I' for Inactive)
REMARK    1  A    between atoms: C_4  and  O_8
REMARK    2  A    between atoms: O_8  and  C_9
REMARK    3  A    between atoms: C_17  and  C_20
REMARK    4  A    between atoms: N_23  and  C_25
REMARK    5  A    between atoms: C_25  and  C_26
REMARK                            x       y       z     vdW  Elec       q    Type
REMARK                         _______ _______ _______ _____ _____    ______ ____
ROOT
ATOM      1  C   UNL     1       0.715   5.941   0.000  0.00  0.00    +0.000 C 
ATOM      2  C   UNL     1       1.429   5.529   0.000  0.00  0.00    +0.000 C 
ATOM      3  C   UNL     1       1.429   4.704   0.000  0.00  0.00    +0.000 C 
ATOM      4  N   UNL     1       0.715   4.291   0.000  0.00  0.00    +0.000 N 
ATOM      5  C   UNL     1       0.000   4.704   0.000  0.00  0.00    +0.000 C 
ATOM      6  C   UNL     1       0.000   5.529   0.000  0.00  0.00    +0.000 C 
ATOM      7  C   UNL     1       0.715   3.466   0.000  0.00  0.00    +0.000 A 
ATOM      8  C   UNL     1       1.382   2.981   0.000  0.00  0.00    +0.000 A 
ATOM      9  C   UNL     1       1.127   2.196   0.000  0.00  0.00    +0.000 A 
ATOM     10  O   UNL     1       0.302   2.196   0.000  0.00  0.00    +0.000 OA
ATOM     11  N   UNL     1       0.047   2.981   0.000  0.00  0.00    +0.000 NA
ENDROOT
BRANCH   9  12
ATOM     12  C   UNL     1       1.612   1.529   0.000  0.00  0.00    +0.000 A 
ATOM     13  N   UNL     1       2.437   1.529   0.000  0.00  0.00    +0.000 NA
ATOM     14  N   UNL     1       2.692   0.745   0.000  0.00  0.00    +0.000 NA
ATOM     15  N   UNL     1       2.024   0.260   0.000  0.00  0.00    +0.000 N 
ATOM     16  N   UNL     1       1.357   0.745   0.000  0.00  0.00    +0.000 NA
BRANCH  15  17
ATOM     17  C   UNL     1       2.024  -0.566   0.000  0.00  0.00    +0.000 C 
BRANCH  17  18
ATOM     18  C   UNL     1       1.310  -0.978   0.000  0.00  0.00    +0.000 C 
ATOM     19  O   UNL     1       1.310  -1.803   0.000  0.00  0.00    +0.000 OA
ATOM     20  O   UNL     1       0.596  -0.566   0.000  0.00  0.00    +0.000 OA
ENDBRANCH  17  18
ENDBRANCH  15  17
ENDBRANCH   9  12
BRANCH   1  21
ATOM     21  O   UNL     1       0.715   6.766   0.000  0.00  0.00    +0.000 OA
BRANCH  21  25
ATOM     22  C   UNL     1      -1.429   8.004   0.000  0.00  0.00    +0.000 A 
ATOM     23  C   UNL     1      -0.715   8.416   0.000  0.00  0.00    +0.000 A 
ATOM     24  C   UNL     1       0.000   8.004   0.000  0.00  0.00    +0.000 A 
ATOM     25  C   UNL     1       0.000   7.179   0.000  0.00  0.00    +0.000 A 
ATOM     26  C   UNL     1      -0.715   6.766   0.000  0.00  0.00    +0.000 A 
ATOM     27  C   UNL     1      -1.429   7.179   0.000  0.00  0.00    +0.000 A 
ATOM     28  F   UNL     1      -2.143   6.766   0.000  0.00  0.00    +0.000 F 
ATOM     29 BR   UNL     1       0.715   8.416   0.000  0.00  0.00    +0.000 Br
ENDBRANCH  21  25
ENDBRANCH   1  21
TORSDOF 5
