REMARK  Name = 
REMARK  6 active torsions:
REMARK  status: ('A' for Active; 'I' for Inactive)
REMARK    1  A    between atoms: C_2  and  O_4
REMARK    2  A    between atoms: O_4  and  C_5
REMARK    3  A    between atoms: C_5  and  C_6
REMARK    4  A    between atoms: C_5  and  C_10
REMARK    5  A    between atoms: C_6  and  C_7
REMARK    6  A    between atoms: C_10  and  N_11
REMARK                            x       y       z     vdW  Elec       q    Type
REMARK                         _______ _______ _______ _____ _____    ______ ____
ROOT
ATOM      1  C   UNL     1       0.825  -0.825   0.000  0.00  0.00    +0.000 C 
ENDROOT
BRANCH   1   2
ATOM      2  O   UNL     1       1.540  -1.238   0.000  0.00  0.00    +0.000 OA
BRANCH   2   4
ATOM      3  C   UNL     1       2.254  -2.475   0.000  0.00  0.00    +0.000 C 
ATOM      4  C   UNL     1       1.540  -2.062   0.000  0.00  0.00    +0.000 C 
ATOM      5  O   UNL     1       0.825  -2.475   0.000  0.00  0.00    +0.000 OA
ENDBRANCH   2   4
ENDBRANCH   1   2
BRANCH   1   6
ATOM      6  C   UNL     1       0.825   0.000   0.000  0.00  0.00    +0.000 C 
BRANCH   6   7
ATOM      7  N   UNL     1       1.540   0.412   0.000  0.00  0.00    +0.000 N 
ATOM      8  C   UNL     1       1.952  -0.302   0.000  0.00  0.00    +0.000 C 
ATOM      9  C   UNL     1       1.127   1.127   0.000  0.00  0.00    +0.000 C 
ATOM     10  C   UNL     1       2.254   0.825   0.000  0.00  0.00    +0.000 C 
ENDBRANCH   6   7
ENDBRANCH   1   6
BRANCH   1  11
ATOM     11  C   UNL     1       0.111  -1.238   0.000  0.00  0.00    +0.000 C 
BRANCH  11  12
ATOM     12  C   UNL     1      -0.604  -0.825   0.000  0.00  0.00    +0.000 C 
ATOM     13  O   UNL     1      -1.318  -1.238   0.000  0.00  0.00    +0.000 OA
ATOM     14  O   UNL     1      -0.604   0.000   0.000  0.00  0.00    +0.000 OA
ENDBRANCH  11  12
ENDBRANCH   1  11
TORSDOF 6
