REMARK  Name = 
REMARK  3 active torsions:
REMARK  status: ('A' for Active; 'I' for Inactive)
REMARK    1  A    between atoms: C_10  and  N_23
REMARK    2  A    between atoms: C_14  and  C_19
REMARK    3  A    between atoms: C_17  and  N_22
REMARK                            x       y       z     vdW  Elec       q    Type
REMARK                         _______ _______ _______ _____ _____    ______ ____
ROOT
ATOM      1  C   UNL     1       1.429   2.475   0.000  0.00  0.00    +0.000 A 
ATOM      2  C   UNL     1       1.429   0.825   0.000  0.00  0.00    +0.000 A 
ATOM      3  C   UNL     1       3.572   1.238   0.000  0.00  0.00    +0.000 A 
ATOM      4  C   UNL     1       2.143   2.062   0.000  0.00  0.00    +0.000 A 
ATOM      5  C   UNL     1       3.572   2.062   0.000  0.00  0.00    +0.000 A 
ATOM      6  C   UNL     1       0.715   2.062   0.000  0.00  0.00    +0.000 A 
ATOM      7  C   UNL     1       2.143   1.238   0.000  0.00  0.00    +0.000 A 
ATOM      8  C   UNL     1       0.715   1.238   0.000  0.00  0.00    +0.000 A 
ATOM      9  C   UNL     1       2.858   2.475   0.000  0.00  0.00    +0.000 A 
ATOM     10  F   UNL     1       0.000   2.475   0.000  0.00  0.00    +0.000 F 
ATOM     11  N   UNL     1       2.858   0.825   0.000  0.00  0.00    +0.000 N 
ATOM     12  O   UNL     1       2.858   3.300   0.000  0.00  0.00    +0.000 OA
ENDROOT
BRANCH   8  20
ATOM     13  C   UNL     1      -2.143  -0.412   0.000  0.00  0.00    +0.000 C 
ATOM     14  C   UNL     1      -0.921   0.412   0.000  0.00  0.00    +0.000 C 
ATOM     15  C   UNL     1      -1.429   0.825   0.000  0.00  0.00    +0.000 C 
ATOM     16  C   UNL     1       0.000   0.000   0.000  0.00  0.00    +0.000 C 
ATOM     17  C   UNL     1      -0.715  -0.412   0.000  0.00  0.00    +0.000 C 
ATOM     18  C   UNL     1      -0.715   1.238   0.000  0.00  0.00    +0.000 C 
ATOM     19  N   UNL     1      -1.429   0.000   0.000  0.00  0.00    +0.000 NA
ATOM     20  N   UNL     1       0.000   0.825   0.000  0.00  0.00    +0.000 N 
ENDBRANCH   8  20
BRANCH  11  23
ATOM     21  C   UNL     1       2.445  -0.715   0.000  0.00  0.00    +0.000 C 
ATOM     22  C   UNL     1       3.270  -0.715   0.000  0.00  0.00    +0.000 C 
ATOM     23  C   UNL     1       2.858   0.000   0.000  0.00  0.00    +0.000 C 
ENDBRANCH  11  23
BRANCH   5  24
ATOM     24  C   UNL     1       4.287   2.475   0.000  0.00  0.00    +0.000 C 
ATOM     25  O   UNL     1       4.287   3.300   0.000  0.00  0.00    +0.000 OA
ATOM     26  O   UNL     1       5.001   2.062   0.000  0.00  0.00    +0.000 OA
ENDBRANCH   5  24
TORSDOF 3
