REMARK  Name = 
REMARK  9 active torsions:
REMARK  status: ('A' for Active; 'I' for Inactive)
REMARK    1  A    between atoms: C_2  and  C_3
REMARK    2  A    between atoms: C_2  and  C_17
REMARK    3  A    between atoms: C_3  and  C_4
REMARK    4  A    between atoms: C_4  and  C_5
REMARK    5  A    between atoms: N_7  and  C_8
REMARK    6  A    between atoms: C_8  and  C_9
REMARK    7  A    between atoms: C_8  and  C_10
REMARK    8  A    between atoms: N_12  and  CA_13
REMARK    9  A    between atoms: CA_13  and  C_14
REMARK                            x       y       z     vdW  Elec       q    Type
REMARK                         _______ _______ _______ _____ _____    ______ ____
ROOT
ATOM      1  C   UNK A   1      -1.786   0.206   0.000  0.00  0.00    +0.000 C 
ATOM      2  O   UNK A   1      -2.501  -0.206   0.000  0.00  0.00    +0.000 OA
ATOM      3  N   UNK A   1      -1.786   1.031   0.000  0.00  0.00    +0.000 NA
ENDROOT
BRANCH   3   4
ATOM      4  C   UNK A   1      -1.071   1.444   0.000  0.00  0.00    +0.000 C 
BRANCH   4   5
ATOM      5  C   UNK A   1      -0.357   1.031   0.000  0.00  0.00    +0.000 C 
ATOM      6  O   UNK A   1      -0.357   0.206   0.000  0.00  0.00    +0.000 OA
ATOM      7  N   GLY A   2       0.357   1.444   0.000  0.00  0.00    +0.000 NA
BRANCH   7   8
ATOM      8  CA  GLY A   2       1.072   1.031   0.000  0.00  0.00    +0.000 C 
BRANCH   8   9
ATOM      9  C   GLY A   2       1.786   1.444   0.000  0.00  0.00    +0.000 C 
ATOM     10  O   GLY A   2       1.786   2.269   0.000  0.00  0.00    +0.000 OA
ATOM     11  OXT GLY A   2       2.501   1.031   0.000  0.00  0.00    +0.000 OA
ENDBRANCH   8   9
ENDBRANCH   7   8
ENDBRANCH   4   5
BRANCH   4  12
ATOM     12  C   UNK A   1      -1.071   2.269   0.000  0.00  0.00    +0.000 C 
ATOM     13  S   UNK A   1      -0.357   2.681   0.000  0.00  0.00    +0.000 S 
ENDBRANCH   4  12
ENDBRANCH   3   4
BRANCH   1  14
ATOM     14  C   UNK A   1      -1.072  -0.206   0.000  0.00  0.00    +0.000 C 
BRANCH  14  15
ATOM     15  C   UNK A   1      -1.072  -1.031   0.000  0.00  0.00    +0.000 C 
BRANCH  15  17
ATOM     16  N   UNK A   1       0.357  -1.031   0.000  0.00  0.00    +0.000 NA
ATOM     17  C   UNK A   1      -0.357  -1.444   0.000  0.00  0.00    +0.000 C 
BRANCH  17  18
ATOM     18  C   UNK A   1      -0.357  -2.269   0.000  0.00  0.00    +0.000 C 
ATOM     19  O   UNK A   1      -1.072  -2.681   0.000  0.00  0.00    +0.000 OA
ATOM     20  O   UNK A   1       0.357  -2.681   0.000  0.00  0.00    +0.000 OA
ENDBRANCH  17  18
ENDBRANCH  15  17
ENDBRANCH  14  15
ENDBRANCH   1  14
TORSDOF 9
