REMARK  Name = 
REMARK  10 active torsions:
REMARK  status: ('A' for Active; 'I' for Inactive)
REMARK    1  A    between atoms: C_3  and  C_46
REMARK    2  A    between atoms: C_9  and  C_10
REMARK    3  A    between atoms: C_21  and  O_22
REMARK    4  A    between atoms: O_22  and  C_23
REMARK    5  A    between atoms: C_29  and  N_32
REMARK    6  A    between atoms: C_35  and  O_44
REMARK    7  A    between atoms: N_48  and  O_49
REMARK    8  A    between atoms: O_49  and  C_50
REMARK    9  A    between atoms: C_50  and  C_52
REMARK   10  A    between atoms: C_55  and  C_57
REMARK                            x       y       z     vdW  Elec       q    Type
REMARK                         _______ _______ _______ _____ _____    ______ ____
ROOT
ATOM      1  C   UNL     1       1.356  -2.348   0.000  0.00  0.00    +0.000 C 
ATOM      2  C   UNL     1       0.571  -2.603   0.000  0.00  0.00    +0.000 C 
ATOM      3  C   UNL     1       0.086  -1.935   0.000  0.00  0.00    +0.000 C 
ATOM      4  O   UNL     1      -0.739  -1.935   0.000  0.00  0.00    +0.000 OA
ATOM      5  O   UNL     1       0.571  -1.268   0.000  0.00  0.00    +0.000 OA
ATOM      6  C   UNL     1       1.356  -1.523   0.000  0.00  0.00    +0.000 C 
ATOM      7  C   UNL     1       1.020  -0.769   0.000  0.00  0.00    +0.000 C 
ATOM      8  C   UNL     1       2.070  -1.110   0.000  0.00  0.00    +0.000 C 
ATOM      9  O   UNL     1       2.070  -0.285   0.000  0.00  0.00    +0.000 OA
ATOM     10  C   UNL     1       2.784   0.127   0.000  0.00  0.00    +0.000 C 
ATOM     11  O   UNL     1       2.784   0.952   0.000  0.00  0.00    +0.000 OA
ATOM     12  C   UNL     1       3.499  -0.285   0.000  0.00  0.00    +0.000 C 
ATOM     13  C   UNL     1       4.213   0.127   0.000  0.00  0.00    +0.000 C 
ATOM     14  C   UNL     1       3.499  -1.110   0.000  0.00  0.00    +0.000 C 
ATOM     15  O   UNL     1       2.784  -1.523   0.000  0.00  0.00    +0.000 OA
ATOM     16  C   UNL     1       4.213  -1.523   0.000  0.00  0.00    +0.000 C 
ATOM     17  C   UNL     1       4.928  -1.110   0.000  0.00  0.00    +0.000 C 
ATOM     18  C   UNL     1       4.213  -2.348   0.000  0.00  0.00    +0.000 C 
ATOM     19  C   UNL     1       3.499  -2.760   0.000  0.00  0.00    +0.000 C 
ATOM     20  C   UNL     1       4.029  -3.392   0.000  0.00  0.00    +0.000 C 
ATOM     21  C   UNL     1       3.499  -3.585   0.000  0.00  0.00    +0.000 C 
ATOM     22  C   UNL     1       2.784  -3.998   0.000  0.00  0.00    +0.000 C 
ATOM     23  C   UNL     1       2.784  -4.823   0.000  0.00  0.00    +0.000 C 
ATOM     24  C   UNL     1       2.070  -3.585   0.000  0.00  0.00    +0.000 C 
ATOM     25  O   UNL     1       1.356  -3.998   0.000  0.00  0.00    +0.000 OA
ATOM     26  C   UNL     1       2.070  -2.760   0.000  0.00  0.00    +0.000 C 
ATOM     27  C   UNL     1       2.784  -2.348   0.000  0.00  0.00    +0.000 C 
ENDROOT
BRANCH   2  28
ATOM     28  C   UNL     1       0.316  -3.388   0.000  0.00  0.00    +0.000 C 
ATOM     29  N   UNL     1       0.868  -4.001   0.000  0.00  0.00    +0.000 NA
ATOM     30  N   UNL     1      -0.491  -3.559   0.000  0.00  0.00    +0.000 NA
BRANCH  30  31
ATOM     31  O   UNL     1      -0.746  -4.344   0.000  0.00  0.00    +0.000 OA
BRANCH  31  32
ATOM     32  C   UNL     1      -1.553  -4.515   0.000  0.00  0.00    +0.000 C 
ATOM     33  C   UNL     1      -2.105  -3.902   0.000  0.00  0.00    +0.000 C 
BRANCH  32  34
ATOM     34  C   UNL     1      -1.808  -5.300   0.000  0.00  0.00    +0.000 A 
ATOM     35  N   UNL     1      -1.323  -5.967   0.000  0.00  0.00    +0.000 NA
ATOM     36  N   UNL     1      -1.808  -6.635   0.000  0.00  0.00    +0.000 NA
ATOM     37  C   UNL     1      -2.592  -6.380   0.000  0.00  0.00    +0.000 A 
ATOM     38  S   UNL     1      -2.592  -5.555   0.000  0.00  0.00    +0.000 S 
BRANCH  37  39
ATOM     39  C   UNL     1      -3.260  -6.865   0.000  0.00  0.00    +0.000 A 
ATOM     40  C   UNL     1      -3.174  -7.685   0.000  0.00  0.00    +0.000 A 
ATOM     41  C   UNL     1      -3.841  -8.170   0.000  0.00  0.00    +0.000 A 
ATOM     42  C   UNL     1      -4.595  -7.835   0.000  0.00  0.00    +0.000 A 
ATOM     43  C   UNL     1      -4.681  -7.014   0.000  0.00  0.00    +0.000 A 
ATOM     44  N   UNL     1      -4.013  -6.529   0.000  0.00  0.00    +0.000 NA
ENDBRANCH  37  39
ENDBRANCH  32  34
ENDBRANCH  31  32
ENDBRANCH  30  31
ENDBRANCH   2  28
BRANCH  19  45
ATOM     45  O   UNL     1       4.311  -2.904   0.000  0.00  0.00    +0.000 OA
ATOM     46  C   UNL     1       4.594  -3.679   0.000  0.00  0.00    +0.000 C 
ENDBRANCH  19  45
BRANCH   8  47
ATOM     47  C   UNL     1       1.356  -0.698   0.000  0.00  0.00    +0.000 C 
ATOM     48  C   UNL     1       1.356   0.127   0.000  0.00  0.00    +0.000 C 
ENDBRANCH   8  47
BRANCH  18  49
ATOM     49  O   UNL     1       4.928  -2.760   0.000  0.00  0.00    +0.000 OA
BRANCH  49  50
ATOM     50  C   UNL     1       5.642  -2.348   0.000  0.00  0.00    +0.000 C 
ATOM     51  O   UNL     1       5.642  -1.523   0.000  0.00  0.00    +0.000 OA
ATOM     52  C   UNL     1       6.357  -1.110   0.000  0.00  0.00    +0.000 C 
ATOM     53  C   UNL     1       6.357  -0.285   0.000  0.00  0.00    +0.000 C 
ATOM     54  C   UNL     1       7.071  -1.523   0.000  0.00  0.00    +0.000 C 
ATOM     55  C   UNL     1       7.071  -2.348   0.000  0.00  0.00    +0.000 C 
ATOM     56  C   UNL     1       6.357  -2.760   0.000  0.00  0.00    +0.000 C 
ATOM     57  O   UNL     1       6.357  -3.585   0.000  0.00  0.00    +0.000 OA
BRANCH  55  58
ATOM     58  N   UNL     1       7.786  -2.760   0.000  0.00  0.00    +0.000 NA
ATOM     59  C   UNL     1       8.500  -2.348   0.000  0.00  0.00    +0.000 C 
ATOM     60  C   UNL     1       7.786  -3.585   0.000  0.00  0.00    +0.000 C 
ENDBRANCH  55  58
ENDBRANCH  49  50
ENDBRANCH  18  49
TORSDOF 10
