REMARK  Name = 
REMARK  4 active torsions:
REMARK  status: ('A' for Active; 'I' for Inactive)
REMARK    1  A    between atoms: N_2  and  C_3
REMARK    2  A    between atoms: N_5  and  C_10
REMARK    3  A    between atoms: C_7  and  O_8
REMARK    4  A    between atoms: C_16  and  C_26
REMARK                            x       y       z     vdW  Elec       q    Type
REMARK                         _______ _______ _______ _____ _____    ______ ____
ROOT
ATOM      1  C   UNL     1       0.715  -1.238   0.000  0.00  0.00    +0.000 A 
ATOM      2  C   UNL     1       0.715  -0.412   0.000  0.00  0.00    +0.000 A 
ATOM      3  C   UNL     1       1.429   0.000   0.000  0.00  0.00    +0.000 A 
ATOM      4  C   UNL     1       2.143  -0.412   0.000  0.00  0.00    +0.000 A 
ATOM      5  C   UNL     1       2.858   0.000   0.000  0.00  0.00    +0.000 A 
ATOM      6  O   UNL     1       2.858   0.825   0.000  0.00  0.00    +0.000 OA
ATOM      7  C   UNL     1       3.572  -0.412   0.000  0.00  0.00    +0.000 A 
ATOM      8  C   UNL     1       3.572  -1.238   0.000  0.00  0.00    +0.000 A 
ATOM      9  N   UNL     1       2.858  -1.650   0.000  0.00  0.00    +0.000 N 
ATOM     10  C   UNL     1       2.143  -1.238   0.000  0.00  0.00    +0.000 A 
ATOM     11  N   UNL     1       1.429  -1.650   0.000  0.00  0.00    +0.000 NA
ATOM     12  C   UNL     1       2.858  -2.475   0.000  0.00  0.00    +0.000 A 
ATOM     13  N   UNL     1       3.525  -2.960   0.000  0.00  0.00    +0.000 NA
ATOM     14  C   UNL     1       3.270  -3.744   0.000  0.00  0.00    +0.000 A 
ATOM     15  C   UNL     1       2.445  -3.744   0.000  0.00  0.00    +0.000 A 
ATOM     16  S   UNL     1       2.190  -2.960   0.000  0.00  0.00    +0.000 S 
ENDROOT
BRANCH   1  19
ATOM     17  C   UNL     1      -1.306  -1.927   0.000  0.00  0.00    +0.000 C 
ATOM     18  C   UNL     1      -0.754  -1.314   0.000  0.00  0.00    +0.000 C 
ATOM     19  N   UNL     1       0.000  -1.650   0.000  0.00  0.00    +0.000 N 
ATOM     20  C   UNL     1      -0.086  -2.470   0.000  0.00  0.00    +0.000 C 
ATOM     21  C   UNL     1      -0.893  -2.642   0.000  0.00  0.00    +0.000 C 
BRANCH  17  23
ATOM     22  C   UNL     1      -2.611  -2.509   0.000  0.00  0.00    +0.000 C 
ATOM     23  N   UNL     1      -2.126  -1.841   0.000  0.00  0.00    +0.000 NA
ENDBRANCH  17  23
BRANCH  21  24
ATOM     24  O   UNL     1      -1.229  -3.396   0.000  0.00  0.00    +0.000 OA
ATOM     25  C   UNL     1      -2.049  -3.482   0.000  0.00  0.00    +0.000 C 
ENDBRANCH  21  24
ENDBRANCH   1  19
BRANCH   7  26
ATOM     26  C   UNL     1       4.287   0.000   0.000  0.00  0.00    +0.000 C 
ATOM     27  O   UNL     1       4.287   0.825   0.000  0.00  0.00    +0.000 OA
ATOM     28  O   UNL     1       5.001  -0.412   0.000  0.00  0.00    +0.000 OA
ENDBRANCH   7  26
TORSDOF 4
