REMARK  Name = 
REMARK  23 active torsions:
REMARK  status: ('A' for Active; 'I' for Inactive)
REMARK    1  A    between atoms: S_1  and  C_50
REMARK    2  A    between atoms: S_1  and  C_51
REMARK    3  A    between atoms: P_2  and  O_6
REMARK    4  A    between atoms: P_3  and  O_8
REMARK    5  A    between atoms: P_3  and  O_11
REMARK    6  A    between atoms: P_4  and  O_11
REMARK    7  A    between atoms: P_4  and  O_12
REMARK    8  A    between atoms: O_6  and  C_30
REMARK    9  A    between atoms: O_8  and  C_34
REMARK   10  A    between atoms: O_12  and  C_40
REMARK   11  A    between atoms: N_23  and  C_33
REMARK   12  A    between atoms: N_27  and  C_41
REMARK   13  A    between atoms: N_28  and  C_46
REMARK   14  A    between atoms: N_29  and  C_49
REMARK   15  A    between atoms: C_32  and  C_34
REMARK   16  A    between atoms: C_38  and  C_39
REMARK   17  A    between atoms: C_38  and  C_40
REMARK   18  A    between atoms: C_39  and  C_45
REMARK   19  A    between atoms: C_46  and  C_47
REMARK   20  A    between atoms: C_47  and  C_48
REMARK   21  A    between atoms: C_49  and  C_50
REMARK   22  A    between atoms: C_51  and  C_52
REMARK   23  A    between atoms: C_52  and  C_54
REMARK                            x       y       z     vdW  Elec       q    Type
REMARK                         _______ _______ _______ _____ _____    ______ ____
ROOT
ATOM      1  P   UNL     1      -2.680   1.849   0.000  0.00  0.00    +0.000 P 
ATOM      2  O   UNL     1      -2.344   2.602   0.000  0.00  0.00    +0.000 OA
ATOM      3  O   UNL     1      -3.017   1.096   0.000  0.00  0.00    +0.000 OA
ENDROOT
BRANCH   1   4
ATOM      4  O   UNL     1      -1.927   1.512   0.000  0.00  0.00    +0.000 OA
BRANCH   4   5
ATOM      5  C   UNL     1      -1.259   1.996   0.000  0.00  0.00    +0.000 C 
BRANCH   5   6
ATOM      6  C   UNL     1      -0.506   1.659   0.000  0.00  0.00    +0.000 C 
ATOM      7  C   UNL     1      -0.843   0.906   0.000  0.00  0.00    +0.000 C 
ATOM      8  C   UNL     1      -0.169   2.412   0.000  0.00  0.00    +0.000 C 
BRANCH   6  10
ATOM      9  O   UNL     1       0.332   0.501   0.000  0.00  0.00    +0.000 OA
ATOM     10  C   UNL     1       0.247   1.322   0.000  0.00  0.00    +0.000 C 
BRANCH  10  13
ATOM     11  O   UNL     1       0.831   2.627   0.000  0.00  0.00    +0.000 OA
ATOM     12  N   UNL     1       1.669   1.469   0.000  0.00  0.00    +0.000 N 
ATOM     13  C   UNL     1       0.915   1.806   0.000  0.00  0.00    +0.000 C 
ATOM     14  H   UNL     1       1.721   0.960   0.000  0.00  0.00    +0.000 HD
BRANCH  12  15
ATOM     15  C   UNL     1       2.337   1.953   0.000  0.00  0.00    +0.000 C 
BRANCH  15  16
ATOM     16  C   UNL     1       3.090   1.616   0.000  0.00  0.00    +0.000 C 
BRANCH  16  19
ATOM     17  O   UNL     1       3.674   2.920   0.000  0.00  0.00    +0.000 OA
ATOM     18  N   UNL     1       4.511   1.763   0.000  0.00  0.00    +0.000 N 
ATOM     19  C   UNL     1       3.758   2.100   0.000  0.00  0.00    +0.000 C 
ATOM     20  H   UNL     1       4.564   1.254   0.000  0.00  0.00    +0.000 HD
BRANCH  18  21
ATOM     21  C   UNL     1       5.180   2.247   0.000  0.00  0.00    +0.000 C 
BRANCH  21  22
ATOM     22  C   UNL     1       5.933   1.910   0.000  0.00  0.00    +0.000 C 
BRANCH  22  23
ATOM     23  S   UNL     1       6.601   2.393   0.000  0.00  0.00    +0.000 S 
BRANCH  23  24
ATOM     24  C   UNL     1       7.354   2.057   0.000  0.00  0.00    +0.000 C 
BRANCH  24  25
ATOM     25  C   UNL     1       8.022   2.540   0.000  0.00  0.00    +0.000 C 
ATOM     26  C   UNL     1       7.938   3.361   0.000  0.00  0.00    +0.000 C 
BRANCH  25  29
ATOM     27  O   UNL     1       9.444   2.687   0.000  0.00  0.00    +0.000 OA
ATOM     28  O   UNL     1       8.860   1.383   0.000  0.00  0.00    +0.000 OA
ATOM     29  C   UNL     1       8.775   2.204   0.000  0.00  0.00    +0.000 C 
ENDBRANCH  25  29
ENDBRANCH  24  25
ENDBRANCH  23  24
ENDBRANCH  22  23
ENDBRANCH  21  22
ENDBRANCH  18  21
ENDBRANCH  16  19
ENDBRANCH  15  16
ENDBRANCH  12  15
ENDBRANCH  10  13
ENDBRANCH   6  10
ENDBRANCH   5   6
ENDBRANCH   4   5
ENDBRANCH   1   4
BRANCH   1  30
ATOM     30  O   UNL     1      -3.433   2.186   0.000  0.00  0.00    +0.000 OA
BRANCH  30  31
ATOM     31  P   UNL     1      -4.102   1.702   0.000  0.00  0.00    +0.000 P 
ATOM     32  O   UNL     1      -3.618   1.034   0.000  0.00  0.00    +0.000 OA
ATOM     33  O   UNL     1      -4.585   2.370   0.000  0.00  0.00    +0.000 OA
BRANCH  31  34
ATOM     34  O   UNL     1      -4.770   1.218   0.000  0.00  0.00    +0.000 OA
BRANCH  34  35
ATOM     35  C   UNL     1      -5.523   1.555   0.000  0.00  0.00    +0.000 C 
BRANCH  35  40
ATOM     36  O   UNL     1      -6.193   0.246   0.000  0.00  0.00    +0.000 OA
ATOM     37  O   UNL     1      -8.287   0.662   0.000  0.00  0.00    +0.000 OA
ATOM     38  C   UNL     1      -6.976   1.328   0.000  0.00  0.00    +0.000 C 
ATOM     39  C   UNL     1      -7.462   0.661   0.000  0.00  0.00    +0.000 C 
ATOM     40  C   UNL     1      -6.191   1.071   0.000  0.00  0.00    +0.000 C 
ATOM     41  C   UNL     1      -6.978  -0.007   0.000  0.00  0.00    +0.000 C 
BRANCH  41  42
ATOM     42  N   UNL     1      -7.234  -0.791   0.000  0.00  0.00    +0.000 N 
ATOM     43  N   UNL     1      -7.234  -2.119   0.000  0.00  0.00    +0.000 NA
ATOM     44  N   UNL     1      -8.729  -0.630   0.000  0.00  0.00    +0.000 NA
ATOM     45  N   UNL     1      -9.444  -1.868   0.000  0.00  0.00    +0.000 NA
ATOM     46  C   UNL     1      -8.015  -1.043   0.000  0.00  0.00    +0.000 A 
ATOM     47  C   UNL     1      -6.753  -1.455   0.000  0.00  0.00    +0.000 A 
ATOM     48  C   UNL     1      -8.015  -1.868   0.000  0.00  0.00    +0.000 A 
ATOM     49  C   UNL     1      -8.729  -2.280   0.000  0.00  0.00    +0.000 A 
ATOM     50  C   UNL     1      -9.444  -1.043   0.000  0.00  0.00    +0.000 A 
BRANCH  49  51
ATOM     51  N   UNL     1      -8.729  -3.105   0.000  0.00  0.00    +0.000 N 
ATOM     52  H   UNL     1      -8.286  -3.361   0.000  0.00  0.00    +0.000 HD
ATOM     53  H   UNL     1      -9.172  -3.361   0.000  0.00  0.00    +0.000 HD
ENDBRANCH  49  51
ENDBRANCH  41  42
BRANCH  38  54
ATOM     54  O   UNL     1      -7.229   2.113   0.000  0.00  0.00    +0.000 OA
BRANCH  54  55
ATOM     55  P   UNL     1      -6.676   2.725   0.000  0.00  0.00    +0.000 P 
ATOM     56  O   UNL     1      -7.288   3.278   0.000  0.00  0.00    +0.000 OA
ATOM     57  O   UNL     1      -6.123   3.337   0.000  0.00  0.00    +0.000 OA
ATOM     58  O   UNL     1      -6.064   2.172   0.000  0.00  0.00    +0.000 OA
ENDBRANCH  54  55
ENDBRANCH  38  54
ENDBRANCH  35  40
ENDBRANCH  34  35
ENDBRANCH  31  34
ENDBRANCH  30  31
ENDBRANCH   1  30
TORSDOF 23
