REMARK  Name = 
REMARK  2 active torsions:
REMARK  status: ('A' for Active; 'I' for Inactive)
REMARK    1  A    between atoms: C_7  and  C_8
REMARK    2  A    between atoms: C_7  and  N_13
REMARK                            x       y       z     vdW  Elec       q    Type
REMARK                         _______ _______ _______ _____ _____    ______ ____
ROOT
ATOM      1  C   UNL     1      -1.746   1.738   0.000  0.00  0.00    +0.000 C 
ATOM      2  C   UNL     1      -0.953   1.511   0.000  0.00  0.00    +0.000 C 
ATOM      3  C   UNL     1      -0.359   2.084   0.000  0.00  0.00    +0.000 C 
ATOM      4  C   UNL     1       0.434   1.856   0.000  0.00  0.00    +0.000 C 
ATOM      5  C   UNL     1       0.633   1.056   0.000  0.00  0.00    +0.000 C 
ATOM      6  C   UNL     1       0.040   0.483   0.000  0.00  0.00    +0.000 C 
ATOM      7  C   UNL     1      -0.753   0.710   0.000  0.00  0.00    +0.000 C 
ENDROOT
BRANCH   7   8
ATOM      8  N   UNL     1      -1.546   0.483   0.000  0.00  0.00    +0.000 NA
ATOM      9  C   UNL     1      -1.746  -0.318   0.000  0.00  0.00    +0.000 C 
ATOM     10  C   UNL     1      -2.539  -0.545   0.000  0.00  0.00    +0.000 C 
ATOM     11  C   UNL     1      -3.132   0.028   0.000  0.00  0.00    +0.000 C 
ATOM     12  C   UNL     1      -2.933   0.828   0.000  0.00  0.00    +0.000 C 
ATOM     13  C   UNL     1      -2.140   1.056   0.000  0.00  0.00    +0.000 C 
ENDBRANCH   7   8
BRANCH   7  14
ATOM     14  C   UNL     1      -0.753  -0.115   0.000  0.00  0.00    +0.000 A 
ATOM     15  C   UNL     1      -0.086  -0.600   0.000  0.00  0.00    +0.000 A 
ATOM     16  C   UNL     1      -0.341  -1.384   0.000  0.00  0.00    +0.000 A 
ATOM     17  C   UNL     1      -1.166  -1.384   0.000  0.00  0.00    +0.000 A 
ATOM     18  S   UNL     1      -1.421  -0.600   0.000  0.00  0.00    +0.000 S 
ENDBRANCH   7  14
TORSDOF 2
