REMARK  Name = 
REMARK  4 active torsions:
REMARK  status: ('A' for Active; 'I' for Inactive)
REMARK    1  A    between atoms: C_2  and  C_3
REMARK    2  A    between atoms: C_3  and  C_4
REMARK    3  A    between atoms: C_4  and  C_5
REMARK    4  A    between atoms: C_5  and  N_6
REMARK                            x       y       z     vdW  Elec       q    Type
REMARK                         _______ _______ _______ _____ _____    ______ ____
ROOT
ATOM      1  C   UNL     1      -0.357   1.067   0.000  0.00  0.00    +0.000 C 
ENDROOT
BRANCH   1   2
ATOM      2  N   UNL     1      -1.072   0.655   0.000  0.00  0.00    +0.000 NA
ATOM      3  C   UNL     1      -1.786   1.067   0.000  0.00  0.00    +0.000 C 
ATOM      4  N   UNL     1      -2.501   0.655   0.000  0.00  0.00    +0.000 NA
ATOM      5  N   UNL     1      -1.786   1.893   0.000  0.00  0.00    +0.000 NA
ENDBRANCH   1   2
BRANCH   1   6
ATOM      6  C   UNL     1       0.357   0.655   0.000  0.00  0.00    +0.000 C 
BRANCH   6   7
ATOM      7  C   UNL     1       1.072   1.067   0.000  0.00  0.00    +0.000 C 
BRANCH   7   9
ATOM      8  N   UNL     1       2.501   1.067   0.000  0.00  0.00    +0.000 NA
ATOM      9  C   UNL     1       1.786   0.655   0.000  0.00  0.00    +0.000 C 
ENDBRANCH   7   9
ENDBRANCH   6   7
ENDBRANCH   1   6
TORSDOF 4
