REMARK  Name = 
REMARK  5 active torsions:
REMARK  status: ('A' for Active; 'I' for Inactive)
REMARK    1  A    between atoms: C_4  and  C_10
REMARK    2  A    between atoms: C_10  and  N_11
REMARK    3  A    between atoms: C_16  and  O_20
REMARK    4  A    between atoms: O_20  and  C_21
REMARK    5  A    between atoms: C_23  and  C_28
REMARK                            x       y       z     vdW  Elec       q    Type
REMARK                         _______ _______ _______ _____ _____    ______ ____
ROOT
ATOM      1  N   UNL     1       1.139  -0.030   0.000  0.00  0.00    +0.000 N 
ATOM      2  C   UNL     1       1.923  -0.285   0.000  0.00  0.00    +0.000 A 
ATOM      3  C   UNL     1       2.638   0.127   0.000  0.00  0.00    +0.000 A 
ATOM      4  C   UNL     1       3.352  -0.285   0.000  0.00  0.00    +0.000 A 
ATOM      5  C   UNL     1       3.352  -1.110   0.000  0.00  0.00    +0.000 A 
ATOM      6  C   UNL     1       2.638  -1.523   0.000  0.00  0.00    +0.000 A 
ATOM      7  C   UNL     1       1.923  -1.110   0.000  0.00  0.00    +0.000 A 
ATOM      8  C   UNL     1       1.139  -1.365   0.000  0.00  0.00    +0.000 A 
ATOM      9  N   UNL     1       0.654  -0.698   0.000  0.00  0.00    +0.000 NA
ATOM     10 CL   UNL     1       4.067  -1.523   0.000  0.00  0.00    +0.000 Cl
ENDROOT
BRANCH   1  11
ATOM     11  C   UNL     1       0.884   0.754   0.000  0.00  0.00    +0.000 C 
BRANCH  11  15
ATOM     12  C   UNL     1      -0.408   3.100   0.000  0.00  0.00    +0.000 A 
ATOM     13  C   UNL     1       0.077   2.433   0.000  0.00  0.00    +0.000 A 
ATOM     14  C   UNL     1      -0.259   1.679   0.000  0.00  0.00    +0.000 A 
ATOM     15  C   UNL     1       0.077   0.926   0.000  0.00  0.00    +0.000 A 
ATOM     16  N   UNL     1      -0.536   0.374   0.000  0.00  0.00    +0.000 NA
ATOM     17  N   UNL     1      -1.251   0.786   0.000  0.00  0.00    +0.000 NA
ATOM     18  C   UNL     1      -1.079   1.593   0.000  0.00  0.00    +0.000 A 
ATOM     19  N   UNL     1      -1.564   2.260   0.000  0.00  0.00    +0.000 NA
ATOM     20  C   UNL     1      -1.229   3.014   0.000  0.00  0.00    +0.000 A 
ENDBRANCH  11  15
ENDBRANCH   1  11
BRANCH   6  21
ATOM     21  O   UNL     1       2.638  -2.348   0.000  0.00  0.00    +0.000 OA
BRANCH  21  22
ATOM     22  C   UNL     1       1.923  -2.760   0.000  0.00  0.00    +0.000 A 
ATOM     23  C   UNL     1       1.923  -3.585   0.000  0.00  0.00    +0.000 A 
ATOM     24  C   UNL     1       1.209  -3.998   0.000  0.00  0.00    +0.000 A 
ATOM     25  C   UNL     1       0.494  -3.585   0.000  0.00  0.00    +0.000 A 
ATOM     26  C   UNL     1       0.494  -2.760   0.000  0.00  0.00    +0.000 A 
ATOM     27  C   UNL     1       1.209  -2.348   0.000  0.00  0.00    +0.000 A 
ATOM     28 CL   UNL     1      -0.220  -2.348   0.000  0.00  0.00    +0.000 Cl
BRANCH  24  29
ATOM     29  C   UNL     1       1.209  -4.823   0.000  0.00  0.00    +0.000 C 
ATOM     30  N   UNL     1       1.209  -5.648   0.000  0.00  0.00    +0.000 NA
ENDBRANCH  24  29
ENDBRANCH  21  22
ENDBRANCH   6  21
TORSDOF 5
