REMARK  Name = 
REMARK  0 active torsions:
REMARK  status: ('A' for Active; 'I' for Inactive)
REMARK                            x       y       z     vdW  Elec       q    Type
REMARK                         _______ _______ _______ _____ _____    ______ ____
ROOT
ATOM      1  O   UNL     1      -0.487   1.156   0.000  0.00  0.00    +0.000 OA
ATOM      2  C   UNL     1      -0.269   0.360   0.000  0.00  0.00    +0.000 C 
ATOM      3  N   UNL     1      -0.830   0.800   0.000  0.00  0.00    +0.000 NA
ATOM      4  C   UNL     1      -0.590  -0.348   0.000  0.00  0.00    +0.000 C 
ATOM      5  C   UNL     1      -1.210  -0.725   0.000  0.00  0.00    +0.000 C 
ATOM      6  C   UNL     1      -0.690  -0.013   0.000  0.00  0.00    +0.000 C 
ATOM      7  C   UNL     1       0.660   0.376   0.000  0.00  0.00    +0.000 C 
ATOM      8  O   UNL     1       1.187   1.010   0.000  0.00  0.00    +0.000 OA
ATOM      9  C   UNL     1       0.798  -0.441   0.000  0.00  0.00    +0.000 C 
ATOM     10  O   UNL     1       1.210  -1.156   0.000  0.00  0.00    +0.000 OA
ATOM     11  C   UNL     1       0.282  -0.013   0.000  0.00  0.00    +0.000 C 
ATOM     12  O   UNL     1       0.002  -0.789   0.000  0.00  0.00    +0.000 OA
ENDROOT
TORSDOF 0
