REMARK  Name = 
REMARK  19 active torsions:
REMARK  status: ('A' for Active; 'I' for Inactive)
REMARK    1  A    between atoms: C_2  and  C_4
REMARK    2  A    between atoms: C_4  and  C_5
REMARK    3  A    between atoms: C_5  and  C_6
REMARK    4  A    between atoms: C_5  and  N_9
REMARK    5  A    between atoms: C_10  and  C_12
REMARK    6  A    between atoms: C_12  and  C_13
REMARK    7  A    between atoms: C_12  and  N_20
REMARK    8  A    between atoms: C_13  and  C_14
REMARK    9  A    between atoms: C_21  and  C_23
REMARK   10  A    between atoms: C_23  and  C_24
REMARK   11  A    between atoms: C_23  and  N_31
REMARK   12  A    between atoms: C_24  and  C_25
REMARK   13  A    between atoms: C_32  and  C_34
REMARK   14  A    between atoms: C_34  and  C_35
REMARK   15  A    between atoms: C_34  and  N_38
REMARK   16  A    between atoms: C_39  and  C_41
REMARK   17  A    between atoms: C_41  and  C_42
REMARK   18  A    between atoms: C_41  and  N_46
REMARK   19  A    between atoms: C_42  and  C_43
REMARK                            x       y       z     vdW  Elec       q    Type
REMARK                         _______ _______ _______ _____ _____    ______ ____
ROOT
ATOM      1  C   UNL     1      -2.858   3.300   0.000  0.00  0.00    +0.000 C 
ENDROOT
BRANCH   1   2
ATOM      2  N   UNL     1      -2.143   2.888   0.000  0.00  0.00    +0.000 NA
ATOM      3  C   UNL     1      -2.143   2.062   0.000  0.00  0.00    +0.000 C 
ATOM      4  O   UNL     1      -2.858   1.650   0.000  0.00  0.00    +0.000 OA
BRANCH   3   5
ATOM      5  C   UNL     1      -1.429   1.650   0.000  0.00  0.00    +0.000 C 
BRANCH   5   6
ATOM      6  N   UNL     1      -1.429   0.825   0.000  0.00  0.00    +0.000 NA
ATOM      7  C   UNL     1      -0.715   0.412   0.000  0.00  0.00    +0.000 C 
ATOM      8  O   UNL     1       0.000   0.825   0.000  0.00  0.00    +0.000 OA
BRANCH   7   9
ATOM      9  C   UNL     1      -0.715  -0.412   0.000  0.00  0.00    +0.000 C 
BRANCH   9  10
ATOM     10  N   UNL     1      -1.429  -0.825   0.000  0.00  0.00    +0.000 NA
ATOM     11  C   UNL     1      -2.143  -0.412   0.000  0.00  0.00    +0.000 C 
ENDBRANCH   9  10
BRANCH   9  12
ATOM     12  C   UNL     1       0.000  -0.825   0.000  0.00  0.00    +0.000 C 
BRANCH  12  13
ATOM     13  C   UNL     1       0.000  -1.650   0.000  0.00  0.00    +0.000 C 
ATOM     14  C   UNL     1       0.715  -2.062   0.000  0.00  0.00    +0.000 C 
ATOM     15  C   UNL     1      -0.715  -2.062   0.000  0.00  0.00    +0.000 C 
ENDBRANCH  12  13
ENDBRANCH   9  12
ENDBRANCH   7   9
ENDBRANCH   5   6
BRANCH   5  16
ATOM     16  C   UNL     1      -0.715   2.062   0.000  0.00  0.00    +0.000 C 
ATOM     17  C   UNL     1       0.000   1.650   0.000  0.00  0.00    +0.000 C 
ATOM     18  C   UNL     1      -0.715   2.888   0.000  0.00  0.00    +0.000 C 
ENDBRANCH   5  16
ENDBRANCH   3   5
ENDBRANCH   1   2
BRANCH   1  20
ATOM     19  N   UNL     1      -3.572   2.062   0.000  0.00  0.00    +0.000 NA
ATOM     20  C   UNL     1      -3.572   2.888   0.000  0.00  0.00    +0.000 C 
ATOM     21  O   UNL     1      -4.287   3.300   0.000  0.00  0.00    +0.000 OA
BRANCH  19  22
ATOM     22  C   UNL     1      -4.287   1.650   0.000  0.00  0.00    +0.000 C 
BRANCH  22  24
ATOM     23  N   UNL     1      -5.001   0.412   0.000  0.00  0.00    +0.000 NA
ATOM     24  C   UNL     1      -4.287   0.825   0.000  0.00  0.00    +0.000 C 
ATOM     25  O   UNL     1      -3.572   0.412   0.000  0.00  0.00    +0.000 OA
BRANCH  23  26
ATOM     26  C   UNL     1      -5.001  -0.412   0.000  0.00  0.00    +0.000 C 
BRANCH  26  27
ATOM     27  C   UNL     1      -4.287  -0.825   0.000  0.00  0.00    +0.000 C 
ATOM     28  O   UNL     1      -4.287  -1.650   0.000  0.00  0.00    +0.000 OA
ATOM     29  N   UNL     1      -3.572  -0.412   0.000  0.00  0.00    +0.000 NA
ENDBRANCH  26  27
BRANCH  26  30
ATOM     30  C   UNL     1      -5.716  -0.825   0.000  0.00  0.00    +0.000 C 
BRANCH  30  32
ATOM     31  C   UNL     1      -6.430  -2.062   0.000  0.00  0.00    +0.000 C 
ATOM     32  C   UNL     1      -5.716  -1.650   0.000  0.00  0.00    +0.000 C 
ATOM     33  C   UNL     1      -5.001  -2.062   0.000  0.00  0.00    +0.000 C 
ENDBRANCH  30  32
ENDBRANCH  26  30
ENDBRANCH  23  26
ENDBRANCH  22  24
BRANCH  22  34
ATOM     34  C   UNL     1      -5.001   2.062   0.000  0.00  0.00    +0.000 C 
BRANCH  34  35
ATOM     35  C   UNL     1      -5.716   1.650   0.000  0.00  0.00    +0.000 A 
ATOM     36  C   UNL     1      -5.716   0.825   0.000  0.00  0.00    +0.000 A 
ATOM     37  C   UNL     1      -6.430   0.412   0.000  0.00  0.00    +0.000 A 
ATOM     38  C   UNL     1      -7.145   0.825   0.000  0.00  0.00    +0.000 A 
ATOM     39  C   UNL     1      -7.145   1.650   0.000  0.00  0.00    +0.000 A 
ATOM     40  C   UNL     1      -6.430   2.062   0.000  0.00  0.00    +0.000 A 
ENDBRANCH  34  35
ENDBRANCH  22  34
ENDBRANCH  19  22
ENDBRANCH   1  20
BRANCH   1  41
ATOM     41  C   UNL     1      -2.858   4.125   0.000  0.00  0.00    +0.000 C 
BRANCH  41  42
ATOM     42  C   UNL     1      -3.572   4.537   0.000  0.00  0.00    +0.000 A 
ATOM     43  C   UNL     1      -4.287   4.125   0.000  0.00  0.00    +0.000 A 
ATOM     44  C   UNL     1      -5.001   4.537   0.000  0.00  0.00    +0.000 A 
ATOM     45  C   UNL     1      -5.001   5.362   0.000  0.00  0.00    +0.000 A 
ATOM     46  C   UNL     1      -4.287   5.775   0.000  0.00  0.00    +0.000 A 
ATOM     47  C   UNL     1      -3.572   5.362   0.000  0.00  0.00    +0.000 A 
ENDBRANCH  41  42
ENDBRANCH   1  41
TORSDOF 19
