REMARK  Name = 
REMARK  8 active torsions:
REMARK  status: ('A' for Active; 'I' for Inactive)
REMARK    1  A    between atoms: C_6  and  C_7
REMARK    2  A    between atoms: C_7  and  C_15
REMARK    3  A    between atoms: C_13  and  C_14
REMARK    4  A    between atoms: C_14  and  C_20
REMARK    5  A    between atoms: C_21  and  C_38
REMARK    6  A    between atoms: C_31  and  C_37
REMARK    7  A    between atoms: N_33  and  C_37
REMARK    8  A    between atoms: N_35  and  C_38
REMARK                            x       y       z     vdW  Elec       q    Type
REMARK                         _______ _______ _______ _____ _____    ______ ____
ROOT
ATOM      1  C   UNL     1      -0.927   0.281   0.000  0.00  0.00    +0.000 C 
ATOM      2  C   UNL     1      -0.412  -0.364   0.000  0.00  0.00    +0.000 C 
ATOM      3  O   UNL     1      -0.770  -1.108   0.000  0.00  0.00    +0.000 OA
ATOM      4  C   UNL     1       0.412  -0.364   0.000  0.00  0.00    +0.000 C 
ATOM      5  O   UNL     1       0.770  -1.108   0.000  0.00  0.00    +0.000 OA
ATOM      6  C   UNL     1       0.927   0.281   0.000  0.00  0.00    +0.000 C 
ATOM      7  N   UNL     1       0.743   1.085   0.000  0.00  0.00    +0.000 N 
ATOM      8  C   UNL     1       0.000   1.443   0.000  0.00  0.00    +0.000 C 
ATOM      9  N   UNL     1      -0.743   1.085   0.000  0.00  0.00    +0.000 N 
ATOM     10  O   UNL     1       0.000   2.268   0.000  0.00  0.00    +0.000 OA
ENDROOT
BRANCH   6  11
ATOM     11  C   UNL     1       1.731   0.097   0.000  0.00  0.00    +0.000 C 
BRANCH  11  17
ATOM     12  C   UNL     1       1.413  -1.296   0.000  0.00  0.00    +0.000 A 
ATOM     13  C   UNL     1       1.656  -2.084   0.000  0.00  0.00    +0.000 A 
ATOM     14  C   UNL     1       2.461  -2.268   0.000  0.00  0.00    +0.000 A 
ATOM     15  C   UNL     1       3.022  -1.663   0.000  0.00  0.00    +0.000 A 
ATOM     16  C   UNL     1       2.779  -0.875   0.000  0.00  0.00    +0.000 A 
ATOM     17  C   UNL     1       1.974  -0.691   0.000  0.00  0.00    +0.000 A 
ENDBRANCH  11  17
ENDBRANCH   6  11
BRANCH   1  18
ATOM     18  C   UNL     1      -1.731   0.097   0.000  0.00  0.00    +0.000 C 
BRANCH  18  24
ATOM     19  C   UNL     1      -2.779  -0.875   0.000  0.00  0.00    +0.000 A 
ATOM     20  C   UNL     1      -3.022  -1.663   0.000  0.00  0.00    +0.000 A 
ATOM     21  C   UNL     1      -2.461  -2.268   0.000  0.00  0.00    +0.000 A 
ATOM     22  C   UNL     1      -1.656  -2.084   0.000  0.00  0.00    +0.000 A 
ATOM     23  C   UNL     1      -1.413  -1.296   0.000  0.00  0.00    +0.000 A 
ATOM     24  C   UNL     1      -1.974  -0.691   0.000  0.00  0.00    +0.000 A 
ENDBRANCH  18  24
ENDBRANCH   1  18
BRANCH   7  25
ATOM     25  C   UNL     1       1.388   1.599   0.000  0.00  0.00    +0.000 C 
BRANCH  25  30
ATOM     26  C   UNL     1       3.569   1.511   0.000  0.00  0.00    +0.000 A 
ATOM     27  C   UNL     1       3.692   0.695   0.000  0.00  0.00    +0.000 A 
ATOM     28  C   UNL     1       3.047   0.181   0.000  0.00  0.00    +0.000 A 
ATOM     29  C   UNL     1       2.279   0.482   0.000  0.00  0.00    +0.000 A 
ATOM     30  C   UNL     1       2.156   1.298   0.000  0.00  0.00    +0.000 A 
ATOM     31  C   UNL     1       2.801   1.812   0.000  0.00  0.00    +0.000 A 
ATOM     32  N   UNL     1       4.214   2.025   0.000  0.00  0.00    +0.000 NA
ENDBRANCH  25  30
ENDBRANCH   7  25
BRANCH   9  33
ATOM     33  C   UNL     1      -1.388   1.599   0.000  0.00  0.00    +0.000 C 
BRANCH  33  34
ATOM     34  C   UNL     1      -2.156   1.298   0.000  0.00  0.00    +0.000 A 
ATOM     35  C   UNL     1      -2.279   0.482   0.000  0.00  0.00    +0.000 A 
ATOM     36  C   UNL     1      -3.047   0.181   0.000  0.00  0.00    +0.000 A 
ATOM     37  C   UNL     1      -3.692   0.695   0.000  0.00  0.00    +0.000 A 
ATOM     38  C   UNL     1      -3.569   1.511   0.000  0.00  0.00    +0.000 A 
ATOM     39  C   UNL     1      -2.801   1.812   0.000  0.00  0.00    +0.000 A 
ATOM     40  N   UNL     1      -4.214   2.025   0.000  0.00  0.00    +0.000 NA
ENDBRANCH  33  34
ENDBRANCH   9  33
TORSDOF 8
