REMARK  Name = 
REMARK  4 active torsions:
REMARK  status: ('A' for Active; 'I' for Inactive)
REMARK    1  A    between atoms: C_3  and  N_22
REMARK    2  A    between atoms: C_4  and  C_5
REMARK    3  A    between atoms: C_8  and  N_13
REMARK    4  A    between atoms: C_19  and  C_21
REMARK                            x       y       z     vdW  Elec       q    Type
REMARK                         _______ _______ _______ _____ _____    ______ ____
ROOT
ATOM      1  S   UNL     1      -0.287  -0.887   0.000  0.00  0.00    +0.000 S 
ATOM      2  C   UNL     1      -0.699   0.383   0.000  0.00  0.00    +0.000 A 
ATOM      3  C   UNL     1       0.126   0.383   0.000  0.00  0.00    +0.000 A 
ATOM      4  C   UNL     1       0.381  -0.402   0.000  0.00  0.00    +0.000 A 
ATOM      5  C   UNL     1      -0.954  -0.402   0.000  0.00  0.00    +0.000 A 
ENDROOT
BRANCH   5  11
ATOM      6  C   UNL     1      -2.370  -0.207   0.000  0.00  0.00    +0.000 A 
ATOM      7  C   UNL     1      -3.134  -0.519   0.000  0.00  0.00    +0.000 A 
ATOM      8  C   UNL     1      -3.246  -1.336   0.000  0.00  0.00    +0.000 A 
ATOM      9  C   UNL     1      -2.594  -1.842   0.000  0.00  0.00    +0.000 A 
ATOM     10  C   UNL     1      -1.830  -1.531   0.000  0.00  0.00    +0.000 A 
ATOM     11  C   UNL     1      -1.718  -0.713   0.000  0.00  0.00    +0.000 A 
ATOM     12  F   UNL     1      -3.785  -0.013   0.000  0.00  0.00    +0.000 F 
ENDBRANCH   5  11
BRANCH   3  13
ATOM     13  N   UNL     1       0.611   1.050   0.000  0.00  0.00    +0.000 NA
ATOM     14  C   UNL     1       0.275   1.804   0.000  0.00  0.00    +0.000 C 
ATOM     15  O   UNL     1      -0.545   1.890   0.000  0.00  0.00    +0.000 OA
ATOM     16  N   UNL     1       0.760   2.471   0.000  0.00  0.00    +0.000 NA
ENDBRANCH   3  13
BRANCH   4  17
ATOM     17  C   UNL     1       1.165  -0.657   0.000  0.00  0.00    +0.000 C 
ATOM     18  O   UNL     1       1.778  -0.105   0.000  0.00  0.00    +0.000 OA
ATOM     19  N   UNL     1       1.337  -1.464   0.000  0.00  0.00    +0.000 NA
BRANCH  19  21
ATOM     20  C   UNL     1       2.665  -0.937   0.000  0.00  0.00    +0.000 C 
ATOM     21  C   UNL     1       2.153  -1.584   0.000  0.00  0.00    +0.000 C 
ATOM     22  C   UNL     1       2.457  -2.351   0.000  0.00  0.00    +0.000 C 
ATOM     23  C   UNL     1       3.273  -2.471   0.000  0.00  0.00    +0.000 C 
ATOM     24  C   UNL     1       3.785  -1.825   0.000  0.00  0.00    +0.000 C 
ATOM     25  N   UNL     1       3.482  -1.058   0.000  0.00  0.00    +0.000 NA
ENDBRANCH  19  21
ENDBRANCH   4  17
TORSDOF 4
