REMARK  Name = 
REMARK  7 active torsions:
REMARK  status: ('A' for Active; 'I' for Inactive)
REMARK    1  A    between atoms: N_8  and  CA_13
REMARK    2  A    between atoms: N_9  and  CA_19
REMARK    3  A    between atoms: CA_11  and  C_16
REMARK    4  A    between atoms: C_12  and  CA_13
REMARK    5  A    between atoms: CA_13  and  C_17
REMARK    6  A    between atoms: C_18  and  CA_19
REMARK    7  A    between atoms: CA_19  and  C_20
REMARK                            x       y       z     vdW  Elec       q    Type
REMARK                         _______ _______ _______ _____ _____    ______ ____
ROOT
ATOM      1  O   UNL     1       0.434  -0.933   0.000  0.00  0.00    +0.000 OA
ATOM      2  N   UNL     1      -0.280   0.305   0.000  0.00  0.00    +0.000 N 
ATOM      3  C   UNL     1      -0.280  -0.520   0.000  0.00  0.00    +0.000 C 
ATOM      4  H   UNL     1      -0.723   0.560   0.000  0.00  0.00    +0.000 HD
ENDROOT
BRANCH   2   5
ATOM      5  CA  UNL     1       0.434   0.717   0.000  0.00  0.00    +0.000 C 
BRANCH   5  10
ATOM      6  S   UNL     1      -0.233   2.027   0.000  0.00  0.00    +0.000 S 
ATOM      7  N   UNL     1       1.102   2.027   0.000  0.00  0.00    +0.000 NA
ATOM      8  C   UNL     1       0.022   2.812   0.000  0.00  0.00    +0.000 C 
ATOM      9  CA  UNL     1       0.847   2.812   0.000  0.00  0.00    +0.000 C 
ATOM     10  C   UNL     1       0.434   1.542   0.000  0.00  0.00    +0.000 C 
ATOM     11  C   UNL     1      -0.763   3.067   0.000  0.00  0.00    +0.000 C 
ATOM     12  C   UNL     1       0.022   3.637   0.000  0.00  0.00    +0.000 C 
ATOM     13  H   UNL     1       1.588   1.869   0.000  0.00  0.00    +0.000 HD
BRANCH   9  16
ATOM     14  O   UNL     1       2.152   3.393   0.000  0.00  0.00    +0.000 OA
ATOM     15  OXT UNL     1       0.996   4.233   0.000  0.00  0.00    +0.000 OA
ATOM     16  C   UNL     1       1.332   3.479   0.000  0.00  0.00    +0.000 C 
ENDBRANCH   9  16
ENDBRANCH   5  10
BRANCH   5  18
ATOM     17  O   UNL     1       1.149  -0.520   0.000  0.00  0.00    +0.000 OA
ATOM     18  C   UNL     1       1.149   0.305   0.000  0.00  0.00    +0.000 C 
ENDBRANCH   5  18
ENDBRANCH   2   5
BRANCH   3  19
ATOM     19  CA  UNL     1      -0.995  -0.933   0.000  0.00  0.00    +0.000 C 
BRANCH  19  21
ATOM     20  O   UNL     1      -0.995  -4.233   0.000  0.00  0.00    +0.000 OA
ATOM     21  C   UNL     1      -0.995  -1.758   0.000  0.00  0.00    +0.000 A 
ATOM     22  C   UNL     1      -0.280  -2.170   0.000  0.00  0.00    +0.000 A 
ATOM     23  C   UNL     1      -1.709  -2.170   0.000  0.00  0.00    +0.000 A 
ATOM     24  C   UNL     1      -0.280  -2.995   0.000  0.00  0.00    +0.000 A 
ATOM     25  C   UNL     1      -1.709  -2.995   0.000  0.00  0.00    +0.000 A 
ATOM     26  C   UNL     1      -0.995  -3.408   0.000  0.00  0.00    +0.000 A 
ENDBRANCH  19  21
BRANCH  19  27
ATOM     27  N   UNL     1      -1.709  -0.520   0.000  0.00  0.00    +0.000 NA
ATOM     28  H1  UNL     1      -2.152  -0.776   0.000  0.00  0.00    +0.000 HD
ATOM     29  H2  UNL     1      -1.709  -0.009   0.000  0.00  0.00    +0.000 HD
ENDBRANCH  19  27
ENDBRANCH   3  19
TORSDOF 7
