REMARK  Name = 
REMARK  2 active torsions:
REMARK  status: ('A' for Active; 'I' for Inactive)
REMARK    1  A    between atoms: N9_9  and  C1*_12
REMARK    2  A    between atoms: C4*_14  and  C5*_15
REMARK                            x       y       z     vdW  Elec       q    Type
REMARK                         _______ _______ _______ _____ _____    ______ ____
ROOT
ATOM      1  N1    I A   1      -1.562   1.759   0.000  0.00  0.00    +0.000 NA
ATOM      2  C2    I A   1      -1.562   0.940   0.000  0.00  0.00    +0.000 A 
ATOM      3  N3    I A   1      -0.834   0.516   0.000  0.00  0.00    +0.000 NA
ATOM      4  C4    I A   1      -0.106   0.940   0.000  0.00  0.00    +0.000 A 
ATOM      5  C5    I A   1      -0.106   1.759   0.000  0.00  0.00    +0.000 A 
ATOM      6  C6    I A   1      -0.834   2.184   0.000  0.00  0.00    +0.000 A 
ATOM      7  N7    I A   1       0.682   2.032   0.000  0.00  0.00    +0.000 NA
ATOM      8  C8    I A   1       1.167   1.334   0.000  0.00  0.00    +0.000 A 
ATOM      9  N9    I A   1       0.682   0.667   0.000  0.00  0.00    +0.000 N 
ATOM     10  O6    I A   1      -0.834   3.033   0.000  0.00  0.00    +0.000 OA
ENDROOT
BRANCH   9  13
ATOM     11  C3*   I A   1       1.077  -1.607   0.000  0.00  0.00    +0.000 C 
ATOM     12  C2*   I A   1       1.349  -0.819   0.000  0.00  0.00    +0.000 C 
ATOM     13  C1*   I A   1       0.682  -0.334   0.000  0.00  0.00    +0.000 C 
ATOM     14  O4*   I A   1       0.015  -0.819   0.000  0.00  0.00    +0.000 OA
ATOM     15  C4*   I A   1       0.258  -1.607   0.000  0.00  0.00    +0.000 C 
ATOM     16  O3*   I A   1       1.562  -2.305   0.000  0.00  0.00    +0.000 OA
BRANCH  15  17
ATOM     17  C5*   I A   1      -0.318  -2.153   0.000  0.00  0.00    +0.000 C 
ATOM     18  O5*   I A   1      -0.045  -3.033   0.000  0.00  0.00    +0.000 OA
ENDBRANCH  15  17
ENDBRANCH   9  13
TORSDOF 2
