REMARK  Name = 
REMARK  6 active torsions:
REMARK  status: ('A' for Active; 'I' for Inactive)
REMARK    1  A    between atoms: C_2  and  C_3
REMARK    2  A    between atoms: C_6  and  C_7
REMARK    3  A    between atoms: C_9  and  C_10
REMARK    4  A    between atoms: C_10  and  O_12
REMARK    5  A    between atoms: O_12  and  C_13
REMARK    6  A    between atoms: C_25  and  C_26
REMARK                            x       y       z     vdW  Elec       q    Type
REMARK                         _______ _______ _______ _____ _____    ______ ____
ROOT
ATOM      1  C   UNL     1      -1.042  -0.330   0.000  0.00  0.00    +0.000 C 
ATOM      2  C   UNL     1      -1.001  -1.158   0.000  0.00  0.00    +0.000 C 
ATOM      3  C   UNL     1      -1.633  -1.687   0.000  0.00  0.00    +0.000 C 
ATOM      4  C   UNL     1      -0.193  -1.343   0.000  0.00  0.00    +0.000 C 
ATOM      5  C   UNL     1       0.326  -0.657   0.000  0.00  0.00    +0.000 C 
ATOM      6  C   UNL     1       0.790  -1.411   0.000  0.00  0.00    +0.000 C 
ATOM      7  C   UNL     1       0.291  -2.068   0.000  0.00  0.00    +0.000 C 
ATOM      8  C   UNL     1       1.610  -1.645   0.000  0.00  0.00    +0.000 C 
ATOM      9  C   UNL     1       2.272  -1.120   0.000  0.00  0.00    +0.000 C 
ATOM     10  C   UNL     1       2.243  -0.296   0.000  0.00  0.00    +0.000 C 
ATOM     11  C   UNL     1       1.584   0.251   0.000  0.00  0.00    +0.000 C 
ATOM     12  C   UNL     1       1.275   1.038   0.000  0.00  0.00    +0.000 C 
ATOM     13  C   UNL     1       0.485   1.325   0.000  0.00  0.00    +0.000 C 
ATOM     14  C   UNL     1      -0.217   0.859   0.000  0.00  0.00    +0.000 C 
ATOM     15  O   UNL     1      -0.931   1.271   0.000  0.00  0.00    +0.000 OA
ATOM     16  C   UNL     1      -0.270  -0.010   0.000  0.00  0.00    +0.000 C 
ATOM     17  O   UNL     1      -0.941   0.469   0.000  0.00  0.00    +0.000 OA
ATOM     18  C   UNL     1       0.942  -0.215   0.000  0.00  0.00    +0.000 C 
ATOM     19  O   UNL     1       1.426  -0.884   0.000  0.00  0.00    +0.000 OA
ATOM     20  C   UNL     1       2.972  -0.683   0.000  0.00  0.00    +0.000 C 
ATOM     21  C   UNL     1       3.630  -0.186   0.000  0.00  0.00    +0.000 C 
ATOM     22  C   UNL     1       3.664  -1.132   0.000  0.00  0.00    +0.000 C 
ENDROOT
BRANCH  13  23
ATOM     23  C   UNL     1       0.388   2.145   0.000  0.00  0.00    +0.000 C 
ATOM     24  O   UNL     1      -0.370   2.470   0.000  0.00  0.00    +0.000 OA
ENDBRANCH  13  23
BRANCH   1  25
ATOM     25  O   UNL     1      -1.738   0.112   0.000  0.00  0.00    +0.000 OA
BRANCH  25  26
ATOM     26  C   UNL     1      -2.469  -0.271   0.000  0.00  0.00    +0.000 C 
ATOM     27  O   UNL     1      -2.503  -1.095   0.000  0.00  0.00    +0.000 OA
BRANCH  26  32
ATOM     28  C   UNL     1      -3.933  -0.134   0.000  0.00  0.00    +0.000 A 
ATOM     29  N   UNL     1      -4.459   0.502   0.000  0.00  0.00    +0.000 NA
ATOM     30  O   UNL     1      -4.018   1.199   0.000  0.00  0.00    +0.000 OA
ATOM     31  C   UNL     1      -3.219   0.994   0.000  0.00  0.00    +0.000 A 
ATOM     32  C   UNL     1      -3.166   0.171   0.000  0.00  0.00    +0.000 A 
BRANCH  31  33
ATOM     33  C   UNL     1      -2.583   1.520   0.000  0.00  0.00    +0.000 C 
ATOM     34  C   UNL     1      -1.810   1.234   0.000  0.00  0.00    +0.000 C 
ENDBRANCH  31  33
BRANCH  28  36
ATOM     35  C   UNL     1      -4.932  -1.155   0.000  0.00  0.00    +0.000 C 
ATOM     36  C   UNL     1      -4.138  -0.933   0.000  0.00  0.00    +0.000 C 
ENDBRANCH  28  36
ENDBRANCH  26  32
ENDBRANCH  25  26
ENDBRANCH   1  25
TORSDOF 6
