REMARK  Name = 
REMARK  30 active torsions:
REMARK  status: ('A' for Active; 'I' for Inactive)
REMARK    1  A    between atoms: C_2  and  CA_4
REMARK    2  A    between atoms: C_9  and  CA_11
REMARK    3  A    between atoms: CA_11  and  CB_12
REMARK    4  A    between atoms: CA_11  and  N_19
REMARK    5  A    between atoms: CB_12  and  CG_13
REMARK    6  A    between atoms: CG_13  and  CD_14
REMARK    7  A    between atoms: CD_14  and  NE_15
REMARK    8  A    between atoms: C_20  and  CA_22
REMARK    9  A    between atoms: CA_22  and  CB_23
REMARK   10  A    between atoms: CB_23  and  CG_24
REMARK   11  A    between atoms: CG_24  and  CD_25
REMARK   12  A    between atoms: CD_25  and  NE_26
REMARK   13  A    between atoms: CA_35  and  C_36
REMARK   14  A    between atoms: CA_38  and  N_95
REMARK   15  A    between atoms: CA_38  and  C_96
REMARK   16  A    between atoms: N_39  and  C_40
REMARK   17  A    between atoms: C_40  and  C_41
REMARK   18  A    between atoms: C_40  and  C_47
REMARK   19  A    between atoms: C_41  and  C_42
REMARK   20  A    between atoms: N_49  and  CA_50
REMARK   21  A    between atoms: CA_50  and  CB_51
REMARK   22  A    between atoms: CA_50  and  C_53
REMARK   23  A    between atoms: C_55  and  C_65
REMARK   24  A    between atoms: C_68  and  C_69
REMARK   25  A    between atoms: N_71  and  CA_72
REMARK   26  A    between atoms: CA_72  and  CB_73
REMARK   27  A    between atoms: CA_72  and  C_80
REMARK   28  A    between atoms: CB_73  and  CG_74
REMARK   29  A    between atoms: CG_74  and  CD_75
REMARK   30  A    between atoms: CD_75  and  NE_76
REMARK                            x       y       z     vdW  Elec       q    Type
REMARK                         _______ _______ _______ _____ _____    ______ ____
ROOT
ATOM      1  C   UNK A   6       0.910   0.093   0.000  0.00  0.00    +0.000 C 
ENDROOT
BRANCH   1   2
ATOM      2  N   UNK A   6       0.113   0.307   0.000  0.00  0.00    +0.000 NA
ATOM      3  O   GLY A   5      -1.267  -0.063   0.000  0.00  0.00    +0.000 OA
ATOM      4  C   GLY A   5      -0.470  -0.277   0.000  0.00  0.00    +0.000 C 
BRANCH   4   5
ATOM      5  CA  GLY A   5      -0.257  -1.073   0.000  0.00  0.00    +0.000 C 
BRANCH   5   8
ATOM      6  C   HYP A   4      -0.626  -2.453   0.000  0.00  0.00    +0.000 C 
ATOM      7  O   HYP A   4       0.173  -2.659   0.000  0.00  0.00    +0.000 OA
ATOM      8  N   GLY A   5      -0.840  -1.657   0.000  0.00  0.00    +0.000 NA
BRANCH   6  16
ATOM      9  N   HYP A   4      -1.984  -3.215   0.000  0.00  0.00    +0.000 N 
ATOM     10  C   PRO A   3      -2.642  -2.717   0.000  0.00  0.00    +0.000 C 
ATOM     11  O   PRO A   3      -2.540  -1.899   0.000  0.00  0.00    +0.000 OA
ATOM     12  CD  HYP A   4      -1.931  -4.109   0.000  0.00  0.00    +0.000 C 
ATOM     13  CG  HYP A   4      -1.067  -4.338   0.000  0.00  0.00    +0.000 C 
ATOM     14  OD  HYP A   4      -0.770  -5.108   0.000  0.00  0.00    +0.000 OA
ATOM     15  CB  HYP A   4      -0.581  -3.588   0.000  0.00  0.00    +0.000 C 
ATOM     16  CA  HYP A   4      -1.204  -3.043   0.000  0.00  0.00    +0.000 C 
BRANCH  10  17
ATOM     17  CA  PRO A   3      -3.401  -3.038   0.000  0.00  0.00    +0.000 C 
ATOM     18  CB  PRO A   3      -3.465  -3.863   0.000  0.00  0.00    +0.000 C 
ATOM     19  CG  PRO A   3      -4.357  -3.924   0.000  0.00  0.00    +0.000 C 
ATOM     20  CD  PRO A   3      -4.691  -3.095   0.000  0.00  0.00    +0.000 C 
ATOM     21  N   PRO A   3      -4.012  -2.530   0.000  0.00  0.00    +0.000 N 
ATOM     22  C   ARG A   2      -4.012  -1.705   0.000  0.00  0.00    +0.000 C 
ATOM     23  O   ARG A   2      -3.298  -1.292   0.000  0.00  0.00    +0.000 OA
BRANCH  22  24
ATOM     24  CA  ARG A   2      -4.727  -1.292   0.000  0.00  0.00    +0.000 C 
BRANCH  24  25
ATOM     25  N   ARG A   2      -5.441  -1.705   0.000  0.00  0.00    +0.000 NA
ATOM     26  C   ARG A   1      -6.155  -1.292   0.000  0.00  0.00    +0.000 C 
ATOM     27  O   ARG A   1      -6.870  -1.705   0.000  0.00  0.00    +0.000 OA
BRANCH  26  28
ATOM     28  CA  ARG A   1      -6.155  -0.467   0.000  0.00  0.00    +0.000 C 
ATOM     29  N   ARG A   1      -6.870  -0.055   0.000  0.00  0.00    +0.000 NA
BRANCH  28  30
ATOM     30  CB  ARG A   1      -5.441  -0.055   0.000  0.00  0.00    +0.000 C 
BRANCH  30  31
ATOM     31  CG  ARG A   1      -5.441   0.770   0.000  0.00  0.00    +0.000 C 
BRANCH  31  32
ATOM     32  CD  ARG A   1      -6.155   1.183   0.000  0.00  0.00    +0.000 C 
BRANCH  32  33
ATOM     33  NE  ARG A   1      -6.155   2.007   0.000  0.00  0.00    +0.000 NA
ATOM     34  CZ  ARG A   1      -6.870   2.420   0.000  0.00  0.00    +0.000 C 
ATOM     35  NH1 ARG A   1      -7.584   2.007   0.000  0.00  0.00    +0.000 NA
ATOM     36  NH2 ARG A   1      -6.870   3.245   0.000  0.00  0.00    +0.000 NA
ENDBRANCH  32  33
ENDBRANCH  31  32
ENDBRANCH  30  31
ENDBRANCH  28  30
ENDBRANCH  26  28
ENDBRANCH  24  25
BRANCH  24  37
ATOM     37  CB  ARG A   2      -4.727  -0.467   0.000  0.00  0.00    +0.000 C 
BRANCH  37  38
ATOM     38  CG  ARG A   2      -4.012  -0.055   0.000  0.00  0.00    +0.000 C 
BRANCH  38  39
ATOM     39  CD  ARG A   2      -4.012   0.770   0.000  0.00  0.00    +0.000 C 
BRANCH  39  40
ATOM     40  NE  ARG A   2      -3.298   1.183   0.000  0.00  0.00    +0.000 NA
ATOM     41  CZ  ARG A   2      -3.298   2.007   0.000  0.00  0.00    +0.000 C 
ATOM     42  NH1 ARG A   2      -2.583   2.420   0.000  0.00  0.00    +0.000 NA
ATOM     43  NH2 ARG A   2      -4.012   2.420   0.000  0.00  0.00    +0.000 NA
ENDBRANCH  39  40
ENDBRANCH  38  39
ENDBRANCH  37  38
ENDBRANCH  24  37
ENDBRANCH  22  24
ENDBRANCH  10  17
ENDBRANCH   6  16
ENDBRANCH   5   8
ENDBRANCH   4   5
ENDBRANCH   1   2
BRANCH   1  44
ATOM     44  C   UNK A   6       1.493   0.676   0.000  0.00  0.00    +0.000 C 
ATOM     45  O   UNK A   6       2.290   0.463   0.000  0.00  0.00    +0.000 OA
ATOM     46  N   SER A   7       1.280   1.473   0.000  0.00  0.00    +0.000 NA
BRANCH  46  47
ATOM     47  CA  SER A   7       1.863   2.057   0.000  0.00  0.00    +0.000 C 
BRANCH  47  48
ATOM     48  C   SER A   7       2.660   1.843   0.000  0.00  0.00    +0.000 C 
ATOM     49  N   UNK A   8       3.243   2.426   0.000  0.00  0.00    +0.000 N 
ATOM     50  C   UNK A   8       4.109   2.197   0.000  0.00  0.00    +0.000 C 
ATOM     51  C   UNK A   8       4.745   2.829   0.000  0.00  0.00    +0.000 C 
ATOM     52  C   UNK A   8       4.513   3.705   0.000  0.00  0.00    +0.000 A 
ATOM     53  C   UNK A   8       3.645   3.935   0.000  0.00  0.00    +0.000 A 
ATOM     54  C   UNK A   8       3.012   3.299   0.000  0.00  0.00    +0.000 C 
ATOM     55  C   UNK A   8       3.419   4.801   0.000  0.00  0.00    +0.000 A 
ATOM     56  C   UNK A   8       4.053   5.426   0.000  0.00  0.00    +0.000 A 
ATOM     57  C   UNK A   8       4.925   5.195   0.000  0.00  0.00    +0.000 A 
ATOM     58  C   UNK A   8       5.150   4.324   0.000  0.00  0.00    +0.000 A 
ATOM     59  O   SER A   7       2.873   1.046   0.000  0.00  0.00    +0.000 OA
BRANCH  50  60
ATOM     60  C   UNK A   8       4.322   1.400   0.000  0.00  0.00    +0.000 C 
ATOM     61  O   UNK A   8       3.738   0.817   0.000  0.00  0.00    +0.000 OA
ATOM     62  N   UNK A   9       5.119   1.186   0.000  0.00  0.00    +0.000 N 
ATOM     63  C   UNK A   9       5.441   0.348   0.000  0.00  0.00    +0.000 C 
ATOM     64  C   UNK A   9       6.343   0.348   0.000  0.00  0.00    +0.000 C 
ATOM     65  C   UNK A   9       6.580   1.273   0.000  0.00  0.00    +0.000 C 
ATOM     66  C   UNK A   9       7.372   1.667   0.000  0.00  0.00    +0.000 C 
ATOM     67  C   UNK A   9       7.372   2.559   0.000  0.00  0.00    +0.000 C 
ATOM     68  C   UNK A   9       6.660   3.042   0.000  0.00  0.00    +0.000 C 
ATOM     69  C   UNK A   9       5.823   2.646   0.000  0.00  0.00    +0.000 C 
ATOM     70  C   UNK A   9       5.823   1.754   0.000  0.00  0.00    +0.000 C 
BRANCH  63  71
ATOM     71  C   UNK A   9       5.441  -0.476   0.000  0.00  0.00    +0.000 C 
ATOM     72  O   UNK A   9       4.727  -0.889   0.000  0.00  0.00    +0.000 OA
ATOM     73  N   ARG A  10       6.155  -0.889   0.000  0.00  0.00    +0.000 NA
BRANCH  73  74
ATOM     74  CA  ARG A  10       6.155  -1.714   0.000  0.00  0.00    +0.000 C 
BRANCH  74  75
ATOM     75  C   ARG A  10       6.870  -2.126   0.000  0.00  0.00    +0.000 C 
ATOM     76  O   ARG A  10       6.870  -2.951   0.000  0.00  0.00    +0.000 OA
ATOM     77  OXT ARG A  10       7.584  -1.714   0.000  0.00  0.00    +0.000 OA
ENDBRANCH  74  75
BRANCH  74  78
ATOM     78  CB  ARG A  10       5.441  -2.126   0.000  0.00  0.00    +0.000 C 
BRANCH  78  79
ATOM     79  CG  ARG A  10       5.441  -2.951   0.000  0.00  0.00    +0.000 C 
BRANCH  79  80
ATOM     80  CD  ARG A  10       4.727  -3.364   0.000  0.00  0.00    +0.000 C 
BRANCH  80  81
ATOM     81  NE  ARG A  10       4.727  -4.189   0.000  0.00  0.00    +0.000 NA
ATOM     82  CZ  ARG A  10       4.012  -4.601   0.000  0.00  0.00    +0.000 C 
ATOM     83  NH1 ARG A  10       4.012  -5.426   0.000  0.00  0.00    +0.000 NA
ATOM     84  NH2 ARG A  10       3.298  -4.189   0.000  0.00  0.00    +0.000 NA
ENDBRANCH  80  81
ENDBRANCH  79  80
ENDBRANCH  78  79
ENDBRANCH  74  78
ENDBRANCH  73  74
ENDBRANCH  63  71
ENDBRANCH  50  60
ENDBRANCH  47  48
BRANCH  47  85
ATOM     85  CB  SER A   7       1.650   2.853   0.000  0.00  0.00    +0.000 C 
ATOM     86  OG  SER A   7       2.233   3.437   0.000  0.00  0.00    +0.000 OA
ENDBRANCH  47  85
ENDBRANCH  46  47
ENDBRANCH   1  44
BRANCH   1  87
ATOM     87  C   UNK A   6       1.123  -0.704   0.000  0.00  0.00    +0.000 C 
BRANCH  87  88
ATOM     88  C   UNK A   6       1.920  -0.917   0.000  0.00  0.00    +0.000 A 
ATOM     89  S   UNK A   6       2.564  -0.396   0.000  0.00  0.00    +0.000 S 
ATOM     90  C   UNK A   6       3.257  -0.844   0.000  0.00  0.00    +0.000 A 
ATOM     91  C   UNK A   6       3.041  -1.645   0.000  0.00  0.00    +0.000 A 
ATOM     92  C   UNK A   6       2.218  -1.691   0.000  0.00  0.00    +0.000 A 
ENDBRANCH  87  88
ENDBRANCH   1  87
TORSDOF 30
