REMARK  Name = 
REMARK  3 active torsions:
REMARK  status: ('A' for Active; 'I' for Inactive)
REMARK    1  A    between atoms: C_4  and  C_6
REMARK    2  A    between atoms: C_8  and  O_9
REMARK    3  A    between atoms: O_9  and  C_10
REMARK                            x       y       z     vdW  Elec       q    Type
REMARK                         _______ _______ _______ _____ _____    ______ ____
ROOT
ATOM      1  C   UNL     1       6.925   0.698   0.000  0.00  0.00    +0.000 A 
ATOM      2  C   UNL     1       6.925  -0.127   0.000  0.00  0.00    +0.000 A 
ATOM      3  C   UNL     1       6.210  -0.540   0.000  0.00  0.00    +0.000 A 
ATOM      4  C   UNL     1       5.496  -0.127   0.000  0.00  0.00    +0.000 A 
ATOM      5  N   UNL     1       4.711  -0.382   0.000  0.00  0.00    +0.000 NA
ATOM      6  C   UNL     1       4.226   0.285   0.000  0.00  0.00    +0.000 A 
ATOM      7  C   UNL     1       3.401   0.285   0.000  0.00  0.00    +0.000 C 
ATOM      8  N   UNL     1       4.711   0.953   0.000  0.00  0.00    +0.000 NA
ATOM      9  C   UNL     1       5.496   0.698   0.000  0.00  0.00    +0.000 A 
ATOM     10  C   UNL     1       6.210   1.110   0.000  0.00  0.00    +0.000 A 
ENDROOT
BRANCH   1  14
ATOM     11  C   UNL     1       8.354   2.348   0.000  0.00  0.00    +0.000 C 
ATOM     12  N   UNL     1       7.639   1.935   0.000  0.00  0.00    +0.000 N 
ATOM     13  C   UNL     1       6.925   2.348   0.000  0.00  0.00    +0.000 C 
ATOM     14  C   UNL     1       7.639   1.110   0.000  0.00  0.00    +0.000 C 
ATOM     15  O   UNL     1       8.354   0.698   0.000  0.00  0.00    +0.000 OA
ENDBRANCH   1  14
BRANCH   3  16
ATOM     16  O   UNL     1       6.210  -1.365   0.000  0.00  0.00    +0.000 OA
BRANCH  16  17
ATOM     17  C   UNL     1       6.925  -1.777   0.000  0.00  0.00    +0.000 C 
ATOM     18  C   UNL     1       7.639  -1.365   0.000  0.00  0.00    +0.000 C 
ATOM     19  C   UNL     1       8.354  -1.777   0.000  0.00  0.00    +0.000 C 
ATOM     20  O   UNL     1       8.354  -2.602   0.000  0.00  0.00    +0.000 OA
ATOM     21  C   UNL     1       7.639  -3.015   0.000  0.00  0.00    +0.000 A 
ATOM     22  C   UNL     1       7.639  -3.840   0.000  0.00  0.00    +0.000 A 
ATOM     23  C   UNL     1       6.925  -4.252   0.000  0.00  0.00    +0.000 A 
ATOM     24  F   UNL     1       6.925  -5.077   0.000  0.00  0.00    +0.000 F 
ATOM     25  C   UNL     1       6.210  -3.840   0.000  0.00  0.00    +0.000 A 
ATOM     26  C   UNL     1       6.210  -3.015   0.000  0.00  0.00    +0.000 A 
ATOM     27  F   UNL     1       5.496  -2.602   0.000  0.00  0.00    +0.000 F 
ATOM     28  C   UNL     1       6.925  -2.602   0.000  0.00  0.00    +0.000 A 
ENDBRANCH  16  17
ENDBRANCH   3  16
TORSDOF 3
