REMARK  Name = 
REMARK  2 active torsions:
REMARK  status: ('A' for Active; 'I' for Inactive)
REMARK    1  A    between atoms: N_1  and  C_4
REMARK    2  A    between atoms: C_10  and  C_15
REMARK                            x       y       z     vdW  Elec       q    Type
REMARK                         _______ _______ _______ _____ _____    ______ ____
ROOT
ATOM      1  N   UNL     1       0.562  -0.731   0.000  0.00  0.00    +0.000 N 
ATOM      2  C   UNL     1       0.226  -1.485   0.000  0.00  0.00    +0.000 A 
ATOM      3  N   UNL     1       0.711  -2.152   0.000  0.00  0.00    +0.000 NA
ATOM      4  C   UNL     1       1.382  -0.645   0.000  0.00  0.00    +0.000 A 
ATOM      5  C   UNL     1       1.867  -1.312   0.000  0.00  0.00    +0.000 A 
ATOM      6  C   UNL     1       1.532  -2.066   0.000  0.00  0.00    +0.000 A 
ATOM      7  O   UNL     1      -0.594  -1.571   0.000  0.00  0.00    +0.000 OA
ATOM      8  N   UNL     1       2.016  -2.734   0.000  0.00  0.00    +0.000 NA
ENDROOT
BRANCH   1   9
ATOM      9  C   UNL     1       0.077  -0.064   0.000  0.00  0.00    +0.000 C 
ATOM     10  O   UNL     1       0.332   0.721   0.000  0.00  0.00    +0.000 OA
ATOM     11  O   UNL     1      -1.003   0.721   0.000  0.00  0.00    +0.000 OA
ATOM     12  C   UNL     1      -0.336   1.206   0.000  0.00  0.00    +0.000 C 
ATOM     13  C   UNL     1      -0.748  -0.064   0.000  0.00  0.00    +0.000 C 
BRANCH  12  15
ATOM     14  O   UNL     1      -1.050   2.443   0.000  0.00  0.00    +0.000 OA
ATOM     15  C   UNL     1      -0.336   2.031   0.000  0.00  0.00    +0.000 C 
ENDBRANCH  12  15
ENDBRANCH   1   9
TORSDOF 2
