REMARK  Name = 
REMARK  4 active torsions:
REMARK  status: ('A' for Active; 'I' for Inactive)
REMARK    1  A    between atoms: CA_3  and  C_21
REMARK    2  A    between atoms: CA_7  and  N_10
REMARK    3  A    between atoms: C_11  and  CA_13
REMARK    4  A    between atoms: CA_13  and  C_14
REMARK                            x       y       z     vdW  Elec       q    Type
REMARK                         _______ _______ _______ _____ _____    ______ ____
ROOT
ATOM      1  C   UNL     1       2.560   1.897   0.000  0.00  0.00    +0.000 C 
ATOM      2  C   UNL     1       1.947   1.345   0.000  0.00  0.00    +0.000 C 
ATOM      3  CA  UNL     1       1.462   0.677   0.000  0.00  0.00    +0.000 C 
ATOM      4  N   UNL     1       0.677   0.932   0.000  0.00  0.00    +0.000 N 
ATOM      5  C   UNL     1       0.677   1.757   0.000  0.00  0.00    +0.000 C 
ATOM      6  S   UNL     1       1.462   2.012   0.000  0.00  0.00    +0.000 S 
ATOM      7  CA  UNL     1      -0.148   1.757   0.000  0.00  0.00    +0.000 C 
ATOM      8  C   UNL     1      -0.148   0.932   0.000  0.00  0.00    +0.000 C 
ATOM      9  O   UNL     1      -0.731   0.349   0.000  0.00  0.00    +0.000 OA
ATOM     10  C   UNL     1       2.560   0.793   0.000  0.00  0.00    +0.000 C 
ENDROOT
BRANCH   7  11
ATOM     11  N   UNL     1      -0.731   2.341   0.000  0.00  0.00    +0.000 NA
ATOM     12  C   UNL     1      -1.528   2.127   0.000  0.00  0.00    +0.000 C 
ATOM     13  O   UNL     1      -1.741   1.330   0.000  0.00  0.00    +0.000 OA
BRANCH  12  14
ATOM     14  CA  UNL     1      -2.111   2.711   0.000  0.00  0.00    +0.000 C 
ATOM     15  N   UNL     1      -1.898   3.507   0.000  0.00  0.00    +0.000 NA
BRANCH  14  16
ATOM     16  C   UNL     1      -2.908   2.497   0.000  0.00  0.00    +0.000 C 
ATOM     17  C   UNL     1      -3.122   1.700   0.000  0.00  0.00    +0.000 C 
ATOM     18  C   UNL     1      -3.919   1.486   0.000  0.00  0.00    +0.000 C 
ATOM     19  C   UNL     1      -4.502   2.070   0.000  0.00  0.00    +0.000 C 
ATOM     20  C   UNL     1      -4.288   2.867   0.000  0.00  0.00    +0.000 C 
ATOM     21  C   UNL     1      -3.491   3.080   0.000  0.00  0.00    +0.000 C 
ENDBRANCH  14  16
ENDBRANCH  12  14
ENDBRANCH   7  11
BRANCH   3  22
ATOM     22  C   UNL     1       1.717  -0.107   0.000  0.00  0.00    +0.000 C 
ATOM     23  O   UNL     1       2.524  -0.279   0.000  0.00  0.00    +0.000 OA
ATOM     24  OXT UNL     1       1.165  -0.720   0.000  0.00  0.00    +0.000 OA
ENDBRANCH   3  22
TORSDOF 4
