REMARK  Name = 
REMARK  0 active torsions:
REMARK  status: ('A' for Active; 'I' for Inactive)
REMARK                            x       y       z     vdW  Elec       q    Type
REMARK                         _______ _______ _______ _____ _____    ______ ____
ROOT
ATOM      1  O   UNL     1       5.626   0.679   0.000  0.00  0.00    +0.000 OA
ATOM      2  C   UNL     1       4.912   0.267   0.000  0.00  0.00    +0.000 C 
ATOM      3  C   UNL     1       4.912  -0.558   0.000  0.00  0.00    +0.000 C 
ATOM      4  C   UNL     1       4.197  -0.971   0.000  0.00  0.00    +0.000 C 
ATOM      5  O   UNL     1       4.197  -1.796   0.000  0.00  0.00    +0.000 OA
ATOM      6  C   UNL     1       3.483  -0.558   0.000  0.00  0.00    +0.000 A 
ATOM      7  C   UNL     1       2.768  -0.971   0.000  0.00  0.00    +0.000 A 
ATOM      8  C   UNL     1       2.054  -0.558   0.000  0.00  0.00    +0.000 A 
ATOM      9  C   UNL     1       2.054   0.267   0.000  0.00  0.00    +0.000 A 
ATOM     10  C   UNL     1       2.768   0.679   0.000  0.00  0.00    +0.000 A 
ATOM     11  C   UNL     1       3.483   0.267   0.000  0.00  0.00    +0.000 A 
ATOM     12  C   UNL     1       4.197   0.679   0.000  0.00  0.00    +0.000 C 
ATOM     13  O   UNL     1       4.197   1.504   0.000  0.00  0.00    +0.000 OA
ENDROOT
TORSDOF 0
