REMARK  Name = 
REMARK  3 active torsions:
REMARK  status: ('A' for Active; 'I' for Inactive)
REMARK    1  A    between atoms: C_4  and  S_18
REMARK    2  A    between atoms: C_5  and  S_14
REMARK    3  A    between atoms: C_7  and  C_8
REMARK                            x       y       z     vdW  Elec       q    Type
REMARK                         _______ _______ _______ _____ _____    ______ ____
ROOT
ATOM      1  C   UNL     1       0.715   2.062   0.000  0.00  0.00    +0.000 C 
ATOM      2  C   UNL     1       0.715   1.238   0.000  0.00  0.00    +0.000 A 
ATOM      3  C   UNL     1       1.429   0.825   0.000  0.00  0.00    +0.000 A 
ATOM      4  C   UNL     1       1.429   0.000   0.000  0.00  0.00    +0.000 A 
ATOM      5  C   UNL     1       0.715  -0.412   0.000  0.00  0.00    +0.000 A 
ATOM      6  C   UNL     1       0.000   0.000   0.000  0.00  0.00    +0.000 A 
ATOM      7  C   UNL     1       0.000   0.825   0.000  0.00  0.00    +0.000 A 
ENDROOT
BRANCH   7   8
ATOM      8  C   UNL     1      -0.715   1.238   0.000  0.00  0.00    +0.000 C 
ATOM      9  O   UNL     1      -0.715   2.062   0.000  0.00  0.00    +0.000 OA
ATOM     10  N   UNL     1      -1.429   0.825   0.000  0.00  0.00    +0.000 NA
ATOM     11  C   UNL     1      -2.143   1.238   0.000  0.00  0.00    +0.000 C 
ATOM     12  N   UNL     1      -2.858   0.825   0.000  0.00  0.00    +0.000 NA
ATOM     13  N   UNL     1      -2.143   2.062   0.000  0.00  0.00    +0.000 NA
ENDBRANCH   7   8
BRANCH   5  14
ATOM     14  S   UNL     1       0.715  -1.238   0.000  0.00  0.00    +0.000 S 
ATOM     15  O   UNL     1       0.715  -2.062   0.000  0.00  0.00    +0.000 OA
ATOM     16  O   UNL     1      -0.111  -1.238   0.000  0.00  0.00    +0.000 OA
ATOM     17  C   UNL     1       1.540  -1.238   0.000  0.00  0.00    +0.000 C 
ENDBRANCH   5  14
BRANCH   4  18
ATOM     18  S   UNL     1       2.143  -0.412   0.000  0.00  0.00    +0.000 S 
ATOM     19  O   UNL     1       2.858  -0.825   0.000  0.00  0.00    +0.000 OA
ATOM     20  O   UNL     1       1.972  -1.220   0.000  0.00  0.00    +0.000 OA
ATOM     21  C   UNL     1       2.556   0.302   0.000  0.00  0.00    +0.000 C 
ENDBRANCH   4  18
TORSDOF 3
