REMARK  Name = 
REMARK  2 active torsions:
REMARK  status: ('A' for Active; 'I' for Inactive)
REMARK    1  A    between atoms: CA_1  and  C_7
REMARK    2  A    between atoms: CA_12  and  C_18
REMARK                            x       y       z     vdW  Elec       q    Type
REMARK                         _______ _______ _______ _____ _____    ______ ____
ROOT
ATOM      1  CA  UNL     1      -2.286  -0.452   0.000  0.00  0.00    +0.000 A 
ATOM      2  N   UNL     1      -3.708   0.385   0.000  0.00  0.00    +0.000 NA
ATOM      3  C   UNL     1      -3.708  -0.452   0.000  0.00  0.00    +0.000 A 
ATOM      4  C   UNL     1      -2.286   0.385   0.000  0.00  0.00    +0.000 A 
ATOM      5  N   UNL     1      -2.997  -0.870   0.000  0.00  0.00    +0.000 NA
ATOM      6  C   UNL     1      -2.997   0.803   0.000  0.00  0.00    +0.000 A 
ATOM      7  O   UNL     1      -4.415  -0.870   0.000  0.00  0.00    +0.000 OA
ATOM      8  O   UNL     1      -2.997   1.640   0.000  0.00  0.00    +0.000 OA
ENDROOT
BRANCH   1   9
ATOM      9  C   UNL     1      -1.575  -0.870   0.000  0.00  0.00    +0.000 C 
ATOM     10  O   UNL     1      -0.868  -0.452   0.000  0.00  0.00    +0.000 OA
ATOM     11  OXT UNL     1      -1.575  -1.702   0.000  0.00  0.00    +0.000 OA
ENDBRANCH   1   9
TORSDOF 1
REMARK  Name = 
REMARK  2 active torsions:
REMARK  status: ('A' for Active; 'I' for Inactive)
REMARK    1  A    between atoms: CA_1  and  C_7
REMARK    2  A    between atoms: CA_12  and  C_18
REMARK                            x       y       z     vdW  Elec       q    Type
REMARK                         _______ _______ _______ _____ _____    ______ ____
ROOT
ATOM      1  CA  UNL     1       2.286  -0.389   0.000  0.00  0.00    +0.000 A 
ATOM      2  N   UNL     1       3.708   0.448   0.000  0.00  0.00    +0.000 NA
ATOM      3  C   UNL     1       3.708  -0.389   0.000  0.00  0.00    +0.000 A 
ATOM      4  C   UNL     1       2.286   0.448   0.000  0.00  0.00    +0.000 A 
ATOM      5  N   UNL     1       2.997  -0.807   0.000  0.00  0.00    +0.000 NA
ATOM      6  C   UNL     1       2.997   0.866   0.000  0.00  0.00    +0.000 A 
ATOM      7  O   UNL     1       4.415  -0.807   0.000  0.00  0.00    +0.000 OA
ATOM      8  O   UNL     1       2.997   1.702   0.000  0.00  0.00    +0.000 OA
ENDROOT
BRANCH   1   9
ATOM      9  C   UNL     1       1.575  -0.807   0.000  0.00  0.00    +0.000 C 
ATOM     10  O   UNL     1       0.868  -0.389   0.000  0.00  0.00    +0.000 OA
ATOM     11  OXT UNL     1       1.575  -1.640   0.000  0.00  0.00    +0.000 OA
ENDBRANCH   1   9
TORSDOF 1
REMARK  Name = 
REMARK  2 active torsions:
REMARK  status: ('A' for Active; 'I' for Inactive)
REMARK    1  A    between atoms: CA_1  and  C_7
REMARK    2  A    between atoms: CA_12  and  C_18
REMARK                            x       y       z     vdW  Elec       q    Type
REMARK                         _______ _______ _______ _____ _____    ______ ____
ROOT
ATOM      1 ZN   UNL     1      -0.073   0.699   0.000  0.00  0.00    +0.000 Zn
ENDROOT
TORSDOF 0
