REMARK  Name = 
REMARK  3 active torsions:
REMARK  status: ('A' for Active; 'I' for Inactive)
REMARK    1  A    between atoms: C_1  and  O_2
REMARK    2  A    between atoms: O_2  and  C_3
REMARK    3  A    between atoms: C_8  and  C_18
REMARK                            x       y       z     vdW  Elec       q    Type
REMARK                         _______ _______ _______ _____ _____    ______ ____
ROOT
ATOM      1  C   UNL     1      -0.357   0.825   0.000  0.00  0.00    +0.000 C 
ATOM      2  C   UNL     1      -0.357   0.000   0.000  0.00  0.00    +0.000 C 
ATOM      3  O   UNL     1       0.357  -0.412   0.000  0.00  0.00    +0.000 OA
ATOM      4  O   UNL     1      -1.072   1.237   0.000  0.00  0.00    +0.000 OA
ATOM      5  C   UNL     1      -1.786   0.825   0.000  0.00  0.00    +0.000 C 
ATOM      6  C   UNL     1      -1.072  -0.412   0.000  0.00  0.00    +0.000 C 
ATOM      7  C   UNL     1      -1.786   0.000   0.000  0.00  0.00    +0.000 C 
ATOM      8  O   UNL     1      -1.072  -1.237   0.000  0.00  0.00    +0.000 OA
ATOM      9  O   UNL     1      -2.501  -0.412   0.000  0.00  0.00    +0.000 OA
ENDROOT
BRANCH   5  10
ATOM     10  C   UNL     1      -2.501   1.237   0.000  0.00  0.00    +0.000 C 
ATOM     11  O   UNL     1      -3.215   0.825   0.000  0.00  0.00    +0.000 OA
ENDBRANCH   5  10
BRANCH   1  12
ATOM     12  O   UNL     1       0.357   1.237   0.000  0.00  0.00    +0.000 OA
BRANCH  12  13
ATOM     13  C   UNL     1       1.072   0.825   0.000  0.00  0.00    +0.000 A 
ATOM     14  C   UNL     1       1.072   0.000   0.000  0.00  0.00    +0.000 A 
ATOM     15  C   UNL     1       1.786   1.237   0.000  0.00  0.00    +0.000 A 
ATOM     16  C   UNL     1       1.786  -0.412   0.000  0.00  0.00    +0.000 A 
ATOM     17  C   UNL     1       2.501   0.825   0.000  0.00  0.00    +0.000 A 
ATOM     18  C   UNL     1       2.501   0.000   0.000  0.00  0.00    +0.000 A 
ATOM     19  O   UNL     1       3.215  -0.412   0.000  0.00  0.00    +0.000 OA
ENDBRANCH  12  13
ENDBRANCH   1  12
TORSDOF 3
