REMARK  Name = 
REMARK  2 active torsions:
REMARK  status: ('A' for Active; 'I' for Inactive)
REMARK    1  A    between atoms: N_8  and  C_10
REMARK    2  A    between atoms: C_16  and  C_17
REMARK                            x       y       z     vdW  Elec       q    Type
REMARK                         _______ _______ _______ _____ _____    ______ ____
ROOT
ATOM      1  C   UNL     1       0.715  -0.412   0.000  0.00  0.00    +0.000 A 
ATOM      2  C   UNL     1       1.429   0.000   0.000  0.00  0.00    +0.000 A 
ATOM      3  C   UNL     1       2.143  -0.412   0.000  0.00  0.00    +0.000 A 
ATOM      4  C   UNL     1       2.858   0.000   0.000  0.00  0.00    +0.000 A 
ATOM      5  C   UNL     1       3.572  -0.412   0.000  0.00  0.00    +0.000 A 
ATOM      6  N   UNL     1       3.572  -1.238   0.000  0.00  0.00    +0.000 NA
ATOM      7  C   UNL     1       2.858  -1.650   0.000  0.00  0.00    +0.000 A 
ATOM      8  C   UNL     1       2.143  -1.238   0.000  0.00  0.00    +0.000 A 
ATOM      9  C   UNL     1       1.429  -1.650   0.000  0.00  0.00    +0.000 A 
ATOM     10  C   UNL     1       0.715  -1.238   0.000  0.00  0.00    +0.000 A 
ENDROOT
BRANCH   1  18
ATOM     11  C   UNL     1      -2.143  -0.412   0.000  0.00  0.00    +0.000 C 
ATOM     12  C   UNL     1      -1.429   0.000   0.000  0.00  0.00    +0.000 C 
ATOM     13  C   UNL     1      -1.429   0.825   0.000  0.00  0.00    +0.000 C 
ATOM     14  N   UNL     1      -0.715   1.238   0.000  0.00  0.00    +0.000 NA
ATOM     15  S   UNL     1       0.000   0.825   0.000  0.00  0.00    +0.000 S 
ATOM     16  O   UNL     1       0.282   1.600   0.000  0.00  0.00    +0.000 OA
ATOM     17  O   UNL     1       0.812   0.682   0.000  0.00  0.00    +0.000 OA
ATOM     18  N   UNL     1       0.000   0.000   0.000  0.00  0.00    +0.000 N 
ATOM     19  C   UNL     1      -0.715  -0.412   0.000  0.00  0.00    +0.000 C 
ENDBRANCH   1  18
BRANCH   7  20
ATOM     20  C   UNL     1       2.858  -2.475   0.000  0.00  0.00    +0.000 C 
ATOM     21  N   UNL     1       2.858  -3.300   0.000  0.00  0.00    +0.000 NA
ENDBRANCH   7  20
TORSDOF 2
