REMARK  Name = 
REMARK  4 active torsions:
REMARK  status: ('A' for Active; 'I' for Inactive)
REMARK    1  A    between atoms: C_4  and  C_5
REMARK    2  A    between atoms: C_5  and  C_6
REMARK    3  A    between atoms: C_6  and  C_7
REMARK    4  A    between atoms: C_10  and  C_13
REMARK                            x       y       z     vdW  Elec       q    Type
REMARK                         _______ _______ _______ _____ _____    ______ ____
ROOT
ATOM      1  C   UNL     1       1.429  -4.950   0.000  0.00  0.00    +0.000 C 
ENDROOT
BRANCH   1   2
ATOM      2  C   UNL     1       2.143  -5.362   0.000  0.00  0.00    +0.000 A 
ATOM      3  C   UNL     1       2.858  -4.950   0.000  0.00  0.00    +0.000 A 
ATOM      4  C   UNL     1       3.572  -5.362   0.000  0.00  0.00    +0.000 A 
ATOM      5  C   UNL     1       3.572  -6.188   0.000  0.00  0.00    +0.000 A 
ATOM      6  C   UNL     1       2.858  -6.600   0.000  0.00  0.00    +0.000 A 
ATOM      7  C   UNL     1       2.143  -6.188   0.000  0.00  0.00    +0.000 A 
BRANCH   5   8
ATOM      8  C   UNL     1       4.287  -6.600   0.000  0.00  0.00    +0.000 C 
ATOM      9  F   UNL     1       5.001  -7.013   0.000  0.00  0.00    +0.000 F 
ATOM     10  F   UNL     1       4.699  -5.886   0.000  0.00  0.00    +0.000 F 
ATOM     11  F   UNL     1       3.874  -7.314   0.000  0.00  0.00    +0.000 F 
ENDBRANCH   5   8
ENDBRANCH   1   2
BRANCH   1  12
ATOM     12  C   UNL     1       1.429  -4.125   0.000  0.00  0.00    +0.000 C 
BRANCH  12  16
ATOM     13  O   UNL     1       0.000  -1.650   0.000  0.00  0.00    +0.000 OA
ATOM     14  C   UNL     1       0.000  -2.475   0.000  0.00  0.00    +0.000 A 
ATOM     15  C   UNL     1       0.715  -2.888   0.000  0.00  0.00    +0.000 A 
ATOM     16  C   UNL     1       0.715  -3.712   0.000  0.00  0.00    +0.000 A 
ATOM     17  N   UNL     1       0.000  -4.125   0.000  0.00  0.00    +0.000 NA
ATOM     18  N   UNL     1      -0.715  -3.712   0.000  0.00  0.00    +0.000 NA
ATOM     19  C   UNL     1      -0.715  -2.888   0.000  0.00  0.00    +0.000 A 
ATOM     20  O   UNL     1      -1.429  -2.475   0.000  0.00  0.00    +0.000 OA
ENDBRANCH  12  16
ENDBRANCH   1  12
TORSDOF 4
