REMARK  Name = 
REMARK  2 active torsions:
REMARK  status: ('A' for Active; 'I' for Inactive)
REMARK    1  A    between atoms: PT_3  and  N_8
REMARK    2  A    between atoms: PT_3  and  N_10
REMARK                            x       y       z     vdW  Elec       q    Type
REMARK                         _______ _______ _______ _____ _____    ______ ____
ROOT
ATOM      1 CL   UNL     1       0.982   0.583   0.000  0.00  0.00    +0.000 Cl
ATOM      2 CL   UNL     1       0.982  -0.583   0.000  0.00  0.00    +0.000 Cl
ATOM      3 PT   UNL     1       0.398   0.000   0.000  0.00  0.00    +0.000 Pt
ENDROOT
BRANCH   3   6
ATOM      4  H   UNL     1       0.029   1.380   0.000  0.00  0.00    +0.000 HD
ATOM      5  H   UNL     1      -0.982   0.370   0.000  0.00  0.00    +0.000 HD
ATOM      6  N   UNL     1      -0.185   0.583   0.000  0.00  0.00    +0.000 N 
ATOM      7  H   UNL     1      -0.982   0.797   0.000  0.00  0.00    +0.000 HD
ENDBRANCH   3   6
BRANCH   3  10
ATOM      8  H   UNL     1      -0.982  -0.370   0.000  0.00  0.00    +0.000 HD
ATOM      9  H   UNL     1       0.029  -1.380   0.000  0.00  0.00    +0.000 HD
ATOM     10  N   UNL     1      -0.185  -0.583   0.000  0.00  0.00    +0.000 N 
ATOM     11  H   UNL     1      -0.398  -1.380   0.000  0.00  0.00    +0.000 HD
ENDBRANCH   3  10
TORSDOF 2
