REMARK  Name = 
REMARK  6 active torsions:
REMARK  status: ('A' for Active; 'I' for Inactive)
REMARK    1  A    between atoms: C_6  and  C_8
REMARK    2  A    between atoms: N_12  and  C_13
REMARK    3  A    between atoms: C_13  and  C_14
REMARK    4  A    between atoms: C_17  and  O_20
REMARK    5  A    between atoms: O_20  and  C_21
REMARK    6  A    between atoms: C_24  and  C_28
REMARK                            x       y       z     vdW  Elec       q    Type
REMARK                         _______ _______ _______ _____ _____    ______ ____
ROOT
ATOM      1  C   UNL     1       6.960  -2.204   0.000  0.00  0.00    +0.000 A 
ATOM      2  C   UNL     1       7.744  -1.949   0.000  0.00  0.00    +0.000 A 
ATOM      3  C   UNL     1       8.357  -2.501   0.000  0.00  0.00    +0.000 A 
ATOM      4  C   UNL     1       8.186  -3.308   0.000  0.00  0.00    +0.000 A 
ATOM      5  C   UNL     1       7.401  -3.563   0.000  0.00  0.00    +0.000 A 
ATOM      6  C   UNL     1       6.788  -3.011   0.000  0.00  0.00    +0.000 A 
ENDROOT
BRANCH   1   7
ATOM      7  C   UNL     1       6.347  -1.652   0.000  0.00  0.00    +0.000 C 
BRANCH   7  12
ATOM      8  C   UNL     1       4.895  -1.422   0.000  0.00  0.00    +0.000 C 
ATOM      9  C   UNL     1       4.227  -1.907   0.000  0.00  0.00    +0.000 C 
ATOM     10  C   UNL     1       4.482  -2.692   0.000  0.00  0.00    +0.000 C 
ATOM     11  C   UNL     1       5.307  -2.692   0.000  0.00  0.00    +0.000 C 
ATOM     12  N   UNL     1       5.562  -1.907   0.000  0.00  0.00    +0.000 NA
BRANCH   8  18
ATOM     13  C   UNL     1       3.466   1.053   0.000  0.00  0.00    +0.000 C 
ATOM     14  C   UNL     1       4.180   0.640   0.000  0.00  0.00    +0.000 A 
ATOM     15  C   UNL     1       4.895   1.053   0.000  0.00  0.00    +0.000 A 
ATOM     16  C   UNL     1       5.609   0.640   0.000  0.00  0.00    +0.000 A 
ATOM     17  C   UNL     1       5.609  -0.185   0.000  0.00  0.00    +0.000 A 
ATOM     18  C   UNL     1       4.895  -0.597   0.000  0.00  0.00    +0.000 A 
ATOM     19  C   UNL     1       4.180  -0.185   0.000  0.00  0.00    +0.000 A 
ATOM     20  C   UNL     1       6.324   1.053   0.000  0.00  0.00    +0.000 C 
ENDBRANCH   8  18
ENDBRANCH   7  12
ENDBRANCH   1   7
BRANCH   4  21
ATOM     21  O   UNL     1       8.799  -3.860   0.000  0.00  0.00    +0.000 OA
BRANCH  21  22
ATOM     22  C   UNL     1       8.627  -4.667   0.000  0.00  0.00    +0.000 A 
ATOM     23  C   UNL     1       9.241  -5.219   0.000  0.00  0.00    +0.000 A 
ATOM     24  C   UNL     1       9.069  -6.026   0.000  0.00  0.00    +0.000 A 
ATOM     25  C   UNL     1       8.284  -6.281   0.000  0.00  0.00    +0.000 A 
ATOM     26  C   UNL     1       7.671  -5.729   0.000  0.00  0.00    +0.000 A 
ATOM     27  C   UNL     1       7.843  -4.922   0.000  0.00  0.00    +0.000 A 
ATOM     28  F   UNL     1       7.230  -4.370   0.000  0.00  0.00    +0.000 F 
BRANCH  25  29
ATOM     29  C   UNL     1       8.113  -7.088   0.000  0.00  0.00    +0.000 C 
ATOM     30  O   UNL     1       8.726  -7.640   0.000  0.00  0.00    +0.000 OA
ATOM     31  N   UNL     1       7.328  -7.343   0.000  0.00  0.00    +0.000 NA
ENDBRANCH  25  29
ENDBRANCH  21  22
ENDBRANCH   4  21
TORSDOF 6
