REMARK  Name = 
REMARK  3 active torsions:
REMARK  status: ('A' for Active; 'I' for Inactive)
REMARK    1  A    between atoms: C_3  and  N_16
REMARK    2  A    between atoms: C_6  and  C_7
REMARK    3  A    between atoms: C_8  and  C_9
REMARK                            x       y       z     vdW  Elec       q    Type
REMARK                         _______ _______ _______ _____ _____    ______ ____
ROOT
ATOM      1  C   UNL     1       1.429  -1.650   0.000  0.00  0.00    +0.000 C 
ATOM      2  N   UNL     1       1.429  -2.475   0.000  0.00  0.00    +0.000 N 
ATOM      3  C   UNL     1       2.096  -2.960   0.000  0.00  0.00    +0.000 A 
ATOM      4  C   UNL     1       1.841  -3.744   0.000  0.00  0.00    +0.000 A 
ATOM      5  N   UNL     1       1.016  -3.744   0.000  0.00  0.00    +0.000 NA
ATOM      6  C   UNL     1       0.761  -2.960   0.000  0.00  0.00    +0.000 A 
ENDROOT
BRANCH   3   7
ATOM      7  N   UNL     1       2.881  -2.705   0.000  0.00  0.00    +0.000 N 
ATOM      8  O   UNL     1       3.053  -1.898   0.000  0.00  0.00    +0.000 OA
ATOM      9  O   UNL     1       3.494  -3.257   0.000  0.00  0.00    +0.000 OA
ENDBRANCH   3   7
BRANCH   6  10
ATOM     10  C   UNL     1      -0.023  -2.705   0.000  0.00  0.00    +0.000 C 
ATOM     11  C   UNL     1      -0.636  -3.257   0.000  0.00  0.00    +0.000 C 
BRANCH  11  12
ATOM     12  C   UNL     1      -1.421  -3.002   0.000  0.00  0.00    +0.000 A 
ATOM     13  C   UNL     1      -2.034  -3.554   0.000  0.00  0.00    +0.000 A 
ATOM     14  C   UNL     1      -2.819  -3.299   0.000  0.00  0.00    +0.000 A 
ATOM     15  N   UNL     1      -2.990  -2.492   0.000  0.00  0.00    +0.000 NA
ATOM     16  C   UNL     1      -2.377  -1.940   0.000  0.00  0.00    +0.000 A 
ATOM     17  N   UNL     1      -1.592  -2.195   0.000  0.00  0.00    +0.000 NA
ATOM     18  N   UNL     1      -2.549  -1.133   0.000  0.00  0.00    +0.000 NA
ENDBRANCH  11  12
ENDBRANCH   6  10
TORSDOF 3
