REMARK  Name = 
REMARK  6 active torsions:
REMARK  status: ('A' for Active; 'I' for Inactive)
REMARK    1  A    between atoms: C_2  and  C_3
REMARK    2  A    between atoms: C_11  and  N_12
REMARK    3  A    between atoms: N_12  and  C_13
REMARK    4  A    between atoms: C_13  and  C_14
REMARK    5  A    between atoms: C_26  and  C_27
REMARK    6  A    between atoms: C_27  and  C_28
REMARK                            x       y       z     vdW  Elec       q    Type
REMARK                         _______ _______ _______ _____ _____    ______ ____
ROOT
ATOM      1  C   UNL     1      -0.143  -0.030   0.000  0.00  0.00    +0.000 A 
ATOM      2  C   UNL     1      -0.628  -0.698   0.000  0.00  0.00    +0.000 A 
ATOM      3  N   UNL     1      -0.143  -1.365   0.000  0.00  0.00    +0.000 NA
ATOM      4  N   UNL     1       0.641  -1.110   0.000  0.00  0.00    +0.000 N 
ATOM      5  C   UNL     1       0.641  -0.285   0.000  0.00  0.00    +0.000 A 
ATOM      6  N   UNL     1       1.356   0.127   0.000  0.00  0.00    +0.000 NA
ATOM      7  C   UNL     1       2.070  -0.285   0.000  0.00  0.00    +0.000 A 
ATOM      8  C   UNL     1       2.070  -1.110   0.000  0.00  0.00    +0.000 A 
ATOM      9  C   UNL     1       1.356  -1.523   0.000  0.00  0.00    +0.000 A 
ATOM     10  N   UNL     1       2.784   0.127   0.000  0.00  0.00    +0.000 N 
ATOM     11  C   UNL     1       2.784   0.952   0.000  0.00  0.00    +0.000 C 
ATOM     12  C   UNL     1       3.499   1.365   0.000  0.00  0.00    +0.000 C 
ATOM     13  C   UNL     1       4.213   0.952   0.000  0.00  0.00    +0.000 C 
ATOM     14  C   UNL     1       4.213   0.127   0.000  0.00  0.00    +0.000 C 
ATOM     15  C   UNL     1       3.499  -0.285   0.000  0.00  0.00    +0.000 C 
ENDROOT
BRANCH   1  17
ATOM     16  C   UNL     1       0.154   1.367   0.000  0.00  0.00    +0.000 C 
ATOM     17  C   UNL     1      -0.398   0.754   0.000  0.00  0.00    +0.000 C 
ENDBRANCH   1  17
BRANCH   9  18
ATOM     18  N   UNL     1       1.356  -2.348   0.000  0.00  0.00    +0.000 NA
BRANCH  18  19
ATOM     19  C   UNL     1       0.641  -2.760   0.000  0.00  0.00    +0.000 C 
BRANCH  19  20
ATOM     20  C   UNL     1       0.641  -3.585   0.000  0.00  0.00    +0.000 A 
ATOM     21  C   UNL     1       1.356  -3.998   0.000  0.00  0.00    +0.000 A 
ATOM     22  C   UNL     1       1.356  -4.823   0.000  0.00  0.00    +0.000 A 
ATOM     23  C   UNL     1       0.641  -5.235   0.000  0.00  0.00    +0.000 A 
ATOM     24  N   UNL     1      -0.073  -4.823   0.000  0.00  0.00    +0.000 N 
ATOM     25  C   UNL     1      -0.073  -3.998   0.000  0.00  0.00    +0.000 A 
ATOM     26  O   UNL     1      -0.788  -5.235   0.000  0.00  0.00    +0.000 OA
ENDBRANCH  19  20
ENDBRANCH  18  19
ENDBRANCH   9  18
BRANCH  15  27
ATOM     27  C   UNL     1       3.499  -1.110   0.000  0.00  0.00    +0.000 C 
BRANCH  27  28
ATOM     28  C   UNL     1       2.784  -1.523   0.000  0.00  0.00    +0.000 C 
ATOM     29  O   UNL     1       2.784  -2.348   0.000  0.00  0.00    +0.000 OA
ENDBRANCH  27  28
ENDBRANCH  15  27
TORSDOF 6
