REMARK  Name = 
REMARK  2 active torsions:
REMARK  status: ('A' for Active; 'I' for Inactive)
REMARK    1  A    between atoms: C_2  and  C_4
REMARK    2  A    between atoms: C_4  and  C_6
REMARK                            x       y       z     vdW  Elec       q    Type
REMARK                         _______ _______ _______ _____ _____    ______ ____
ROOT
ATOM      1  C   UNL     1       1.238  -0.715   0.000  0.00  0.00    +0.000 C 
ATOM      2  O   UNL     1       0.825  -1.429   0.000  0.00  0.00    +0.000 OA
ENDROOT
BRANCH   1   4
ATOM      3  O   UNL     1       2.475  -1.429   0.000  0.00  0.00    +0.000 OA
ATOM      4  C   UNL     1       2.062  -0.715   0.000  0.00  0.00    +0.000 C 
ATOM      5  O   UNL     1       2.475   0.000   0.000  0.00  0.00    +0.000 OA
ENDBRANCH   1   4
BRANCH   1   6
ATOM      6  C   UNL     1       0.825   0.000   0.000  0.00  0.00    +0.000 C 
ATOM      7 BR   UNL     1       0.000   0.000   0.000  0.00  0.00    +0.000 Br
ENDBRANCH   1   6
TORSDOF 2
