REMARK  Name = 
REMARK  5 active torsions:
REMARK  status: ('A' for Active; 'I' for Inactive)
REMARK    1  A    between atoms: C_1  and  CA_2
REMARK    2  A    between atoms: C_1  and  C_4
REMARK    3  A    between atoms: CA_2  and  C_3
REMARK    4  A    between atoms: C_4  and  C_5
REMARK    5  A    between atoms: C_5  and  N_6
REMARK                            x       y       z     vdW  Elec       q    Type
REMARK                         _______ _______ _______ _____ _____    ______ ____
ROOT
ATOM      1  C   UNL     1       0.357  -0.206   0.000  0.00  0.00    +0.000 C 
ENDROOT
BRANCH   1   2
ATOM      2  C   UNL     1       1.072   0.206   0.000  0.00  0.00    +0.000 C 
BRANCH   2   3
ATOM      3  CA  UNL     1       1.786  -0.206   0.000  0.00  0.00    +0.000 C 
ATOM      4  N   UNL     1       1.786  -1.031   0.000  0.00  0.00    +0.000 NA
BRANCH   3   5
ATOM      5  C   UNL     1       2.501   0.206   0.000  0.00  0.00    +0.000 C 
ATOM      6  OXT UNL     1       3.215  -0.206   0.000  0.00  0.00    +0.000 OA
ATOM      7  O   UNL     1       2.501   1.031   0.000  0.00  0.00    +0.000 OA
ENDBRANCH   3   5
ENDBRANCH   2   3
ENDBRANCH   1   2
BRANCH   1   8
ATOM      8  C   UNL     1      -0.357   0.206   0.000  0.00  0.00    +0.000 C 
BRANCH   8   9
ATOM      9  N   UNL     1      -1.072  -0.206   0.000  0.00  0.00    +0.000 NA
ATOM     10  C   UNL     1      -1.786   0.206   0.000  0.00  0.00    +0.000 C 
ATOM     11  N   UNL     1      -2.501  -0.206   0.000  0.00  0.00    +0.000 NA
ATOM     12  N   UNL     1      -1.786   1.031   0.000  0.00  0.00    +0.000 NA
ATOM     13  O   UNL     1      -3.215   0.206   0.000  0.00  0.00    +0.000 OA
ENDBRANCH   8   9
ENDBRANCH   1   8
TORSDOF 5
