REMARK  Name = 
REMARK  6 active torsions:
REMARK  status: ('A' for Active; 'I' for Inactive)
REMARK    1  A    between atoms: N_5  and  C_8
REMARK    2  A    between atoms: N_11  and  C_14
REMARK    3  A    between atoms: C_17  and  N_22
REMARK    4  A    between atoms: C_18  and  O_20
REMARK    5  A    between atoms: N_29  and  C_30
REMARK    6  A    between atoms: C_35  and  P_36
REMARK                            x       y       z     vdW  Elec       q    Type
REMARK                         _______ _______ _______ _____ _____    ______ ____
ROOT
ATOM      1  C   UNL     1      -7.859  -8.662   0.000  0.00  0.00    +0.000 A 
ATOM      2  C   UNL     1      -7.145  -9.075   0.000  0.00  0.00    +0.000 A 
ATOM      3  C   UNL     1      -7.145  -9.900   0.000  0.00  0.00    +0.000 A 
ATOM      4  C   UNL     1      -7.859 -10.312   0.000  0.00  0.00    +0.000 A 
ATOM      5  C   UNL     1      -8.574  -9.900   0.000  0.00  0.00    +0.000 A 
ATOM      6  C   UNL     1      -8.574  -9.075   0.000  0.00  0.00    +0.000 A 
ENDROOT
BRANCH   4   7
ATOM      7  N   UNL     1      -7.859 -11.137   0.000  0.00  0.00    +0.000 NA
ATOM      8  C   UNL     1      -8.574 -11.550   0.000  0.00  0.00    +0.000 A 
ATOM      9  N   UNL     1      -9.288 -11.137   0.000  0.00  0.00    +0.000 NA
ATOM     10  C   UNL     1     -10.003 -11.550   0.000  0.00  0.00    +0.000 A 
ATOM     11  C   UNL     1     -10.003 -12.375   0.000  0.00  0.00    +0.000 A 
ATOM     12  C   UNL     1      -9.288 -12.787   0.000  0.00  0.00    +0.000 A 
ATOM     13  N   UNL     1      -8.574 -12.375   0.000  0.00  0.00    +0.000 NA
ATOM     14  N   UNL     1      -9.288 -13.613   0.000  0.00  0.00    +0.000 NA
ATOM     15 CL   UNL     1     -10.717 -12.787   0.000  0.00  0.00    +0.000 Cl
BRANCH  14  16
ATOM     16  C   UNL     1      -8.574 -14.025   0.000  0.00  0.00    +0.000 A 
ATOM     17  C   UNL     1      -7.859 -13.613   0.000  0.00  0.00    +0.000 A 
ATOM     18  C   UNL     1      -7.145 -14.025   0.000  0.00  0.00    +0.000 A 
ATOM     19  C   UNL     1      -7.145 -14.850   0.000  0.00  0.00    +0.000 A 
ATOM     20  C   UNL     1      -7.859 -15.262   0.000  0.00  0.00    +0.000 A 
ATOM     21  C   UNL     1      -8.574 -14.850   0.000  0.00  0.00    +0.000 A 
BRANCH  21  22
ATOM     22  P   UNL     1      -9.288 -15.262   0.000  0.00  0.00    +0.000 P 
ATOM     23  O   UNL     1     -10.003 -15.675   0.000  0.00  0.00    +0.000 OA
ATOM     24  C   UNL     1      -9.701 -14.548   0.000  0.00  0.00    +0.000 C 
ATOM     25  C   UNL     1      -8.876 -15.977   0.000  0.00  0.00    +0.000 C 
ENDBRANCH  21  22
ENDBRANCH  14  16
ENDBRANCH   4   7
BRANCH   1  29
ATOM     26  C   UNL     1      -7.859  -6.188   0.000  0.00  0.00    +0.000 C 
ATOM     27  C   UNL     1      -7.145  -6.600   0.000  0.00  0.00    +0.000 C 
ATOM     28  C   UNL     1      -7.145  -7.425   0.000  0.00  0.00    +0.000 C 
ATOM     29  N   UNL     1      -7.859  -7.838   0.000  0.00  0.00    +0.000 N 
ATOM     30  C   UNL     1      -8.574  -7.425   0.000  0.00  0.00    +0.000 C 
ATOM     31  C   UNL     1      -8.574  -6.600   0.000  0.00  0.00    +0.000 C 
BRANCH  26  36
ATOM     32  C   UNL     1      -7.859  -2.888   0.000  0.00  0.00    +0.000 C 
ATOM     33  N   UNL     1      -7.859  -3.712   0.000  0.00  0.00    +0.000 NA
ATOM     34  C   UNL     1      -7.145  -4.125   0.000  0.00  0.00    +0.000 C 
ATOM     35  C   UNL     1      -7.145  -4.950   0.000  0.00  0.00    +0.000 C 
ATOM     36  N   UNL     1      -7.859  -5.362   0.000  0.00  0.00    +0.000 NA
ATOM     37  C   UNL     1      -8.574  -4.950   0.000  0.00  0.00    +0.000 C 
ATOM     38  C   UNL     1      -8.574  -4.125   0.000  0.00  0.00    +0.000 C 
ENDBRANCH  26  36
ENDBRANCH   1  29
BRANCH   5  39
ATOM     39  O   UNL     1      -9.288 -10.312   0.000  0.00  0.00    +0.000 OA
ATOM     40  C   UNL     1     -10.003  -9.900   0.000  0.00  0.00    +0.000 C 
ENDBRANCH   5  39
TORSDOF 6
