REMARK  Name = 
REMARK  11 active torsions:
REMARK  status: ('A' for Active; 'I' for Inactive)
REMARK    1  A    between atoms: C_1  and  C_2
REMARK    2  A    between atoms: C_1  and  C_3
REMARK    3  A    between atoms: C_1  and  C_4
REMARK    4  A    between atoms: C_2  and  C_6
REMARK    5  A    between atoms: C_3  and  C_7
REMARK    6  A    between atoms: C_4  and  O_8
REMARK    7  A    between atoms: C_6  and  O_10
REMARK    8  A    between atoms: C_7  and  O_12
REMARK    9  A    between atoms: O_8  and  C_14
REMARK   10  A    between atoms: O_10  and  C_15
REMARK   11  A    between atoms: O_12  and  C_16
REMARK                            x       y       z     vdW  Elec       q    Type
REMARK                         _______ _______ _______ _____ _____    ______ ____
ROOT
ATOM      1  C   UNL     1       1.065  -0.428   0.000  0.00  0.00    +0.000 C 
ATOM      2  O   UNL     1       0.879  -1.402   0.000  0.00  0.00    +0.000 OA
ENDROOT
BRANCH   1   3
ATOM      3  C   UNL     1       1.784  -0.838   0.000  0.00  0.00    +0.000 C 
ATOM      4  O   UNL     1       2.500  -0.418   0.000  0.00  0.00    +0.000 OA
BRANCH   3   5
ATOM      5  O   UNL     1       1.788  -1.667   0.000  0.00  0.00    +0.000 OA
BRANCH   5   6
ATOM      6  C   UNL     1       2.507  -2.076   0.000  0.00  0.00    +0.000 C 
ATOM      7  C   UNL     1       2.507  -2.899   0.000  0.00  0.00    +0.000 C 
ENDBRANCH   5   6
ENDBRANCH   3   5
ENDBRANCH   1   3
BRANCH   1   8
ATOM      8  C   UNL     1       1.065   0.404   0.000  0.00  0.00    +0.000 C 
BRANCH   8   9
ATOM      9  C   UNL     1       1.777   0.821   0.000  0.00  0.00    +0.000 C 
ATOM     10  O   UNL     1       2.500   0.408   0.000  0.00  0.00    +0.000 OA
BRANCH   9  11
ATOM     11  O   UNL     1       1.777   1.653   0.000  0.00  0.00    +0.000 OA
BRANCH  11  12
ATOM     12  C   UNL     1       2.496   2.063   0.000  0.00  0.00    +0.000 C 
ATOM     13  C   UNL     1       2.486   2.899   0.000  0.00  0.00    +0.000 C 
ENDBRANCH  11  12
ENDBRANCH   9  11
ENDBRANCH   8   9
ENDBRANCH   1   8
BRANCH   1  14
ATOM     14  C   UNL     1       0.349  -0.838   0.000  0.00  0.00    +0.000 C 
BRANCH  14  15
ATOM     15  C   UNL     1      -0.360  -0.432   0.000  0.00  0.00    +0.000 C 
ATOM     16  O   UNL     1      -0.360   0.397   0.000  0.00  0.00    +0.000 OA
BRANCH  15  17
ATOM     17  O   UNL     1      -1.072  -0.841   0.000  0.00  0.00    +0.000 OA
BRANCH  17  18
ATOM     18  C   UNL     1      -1.791  -0.439   0.000  0.00  0.00    +0.000 C 
ATOM     19  C   UNL     1      -2.507  -0.841   0.000  0.00  0.00    +0.000 C 
ENDBRANCH  17  18
ENDBRANCH  15  17
ENDBRANCH  14  15
ENDBRANCH   1  14
TORSDOF 11
