REMARK  Name = 
REMARK  1 active torsions:
REMARK  status: ('A' for Active; 'I' for Inactive)
REMARK    1  A    between atoms: C_11  and  C_13
REMARK                            x       y       z     vdW  Elec       q    Type
REMARK                         _______ _______ _______ _____ _____    ______ ____
ROOT
ATOM      1  O   UNL     1       0.549   2.198   0.000  0.00  0.00    +0.000 OA
ATOM      2  C   UNL     1       0.060   1.539   0.000  0.00  0.00    +0.000 C 
ATOM      3  N   UNL     1      -0.763   1.539   0.000  0.00  0.00    +0.000 NA
ATOM      4  C   UNL     1      -1.023   0.761   0.000  0.00  0.00    +0.000 C 
ATOM      5  O   UNL     1      -1.801   0.511   0.000  0.00  0.00    +0.000 OA
ATOM      6  C   UNL     1      -0.354   0.272   0.000  0.00  0.00    +0.000 C 
ATOM      7  N   UNL     1       0.314   0.751   0.000  0.00  0.00    +0.000 NA
ATOM      8  C   UNL     1       0.349  -0.152   0.000  0.00  0.00    +0.000 A 
ATOM      9  C   UNL     1       0.349  -0.976   0.000  0.00  0.00    +0.000 A 
ATOM     10  O   UNL     1      -0.364  -1.385   0.000  0.00  0.00    +0.000 OA
ATOM     11  C   UNL     1      -1.073  -0.971   0.000  0.00  0.00    +0.000 C 
ATOM     12  C   UNL     1      -1.073  -0.142   0.000  0.00  0.00    +0.000 C 
ATOM     13  C   UNL     1       1.063   0.262   0.000  0.00  0.00    +0.000 A 
ATOM     14  C   UNL     1       1.781  -0.152   0.000  0.00  0.00    +0.000 A 
ATOM     15  C   UNL     1       1.068  -1.390   0.000  0.00  0.00    +0.000 A 
ATOM     16  C   UNL     1       1.781  -0.976   0.000  0.00  0.00    +0.000 A 
ATOM     17  F   UNL     1       2.495   0.262   0.000  0.00  0.00    +0.000 F 
ENDROOT
BRANCH  11  18
ATOM     18  C   UNL     1      -1.786  -1.380   0.000  0.00  0.00    +0.000 C 
ATOM     19  N   UNL     1      -2.495  -0.971   0.000  0.00  0.00    +0.000 NA
ATOM     20  O   UNL     1      -1.786  -2.198   0.000  0.00  0.00    +0.000 OA
ENDBRANCH  11  18
TORSDOF 1
