REMARK  Name = 
REMARK  5 active torsions:
REMARK  status: ('A' for Active; 'I' for Inactive)
REMARK    1  A    between atoms: C_1  and  S_10
REMARK    2  A    between atoms: C_7  and  C_20
REMARK    3  A    between atoms: S_10  and  C_11
REMARK    4  A    between atoms: C_12  and  C_17
REMARK    5  A    between atoms: C_21  and  C_22
REMARK                            x       y       z     vdW  Elec       q    Type
REMARK                         _______ _______ _______ _____ _____    ______ ____
ROOT
ATOM      1  C   UNL     1      -0.880  -0.963   0.000  0.00  0.00    +0.000 A 
ATOM      2  C   UNL     1      -0.880  -0.138   0.000  0.00  0.00    +0.000 A 
ATOM      3  C   UNL     1      -0.165   0.275   0.000  0.00  0.00    +0.000 A 
ATOM      4  C   UNL     1       0.549  -0.138   0.000  0.00  0.00    +0.000 A 
ATOM      5  C   UNL     1       0.549  -0.963   0.000  0.00  0.00    +0.000 A 
ATOM      6  C   UNL     1      -0.165  -1.375   0.000  0.00  0.00    +0.000 A 
ATOM      7  C   UNL     1       1.334   0.117   0.000  0.00  0.00    +0.000 A 
ATOM      8  N   UNL     1       1.819  -0.550   0.000  0.00  0.00    +0.000 NA
ATOM      9  N   UNL     1       1.334  -1.218   0.000  0.00  0.00    +0.000 NA
ENDROOT
BRANCH   7  10
ATOM     10  C   UNL     1       1.589   0.902   0.000  0.00  0.00    +0.000 C 
ATOM     11  C   UNL     1       2.396   1.073   0.000  0.00  0.00    +0.000 C 
BRANCH  11  12
ATOM     12  C   UNL     1       2.651   1.858   0.000  0.00  0.00    +0.000 A 
ATOM     13  N   UNL     1       3.458   2.030   0.000  0.00  0.00    +0.000 NA
ATOM     14  C   UNL     1       2.099   2.471   0.000  0.00  0.00    +0.000 A 
ATOM     15  C   UNL     1       3.713   2.814   0.000  0.00  0.00    +0.000 A 
ATOM     16  C   UNL     1       2.354   3.256   0.000  0.00  0.00    +0.000 A 
ATOM     17  C   UNL     1       3.161   3.428   0.000  0.00  0.00    +0.000 A 
ENDBRANCH  11  12
ENDBRANCH   7  10
BRANCH   1  18
ATOM     18  S   UNL     1      -1.594  -1.375   0.000  0.00  0.00    +0.000 S 
BRANCH  18  19
ATOM     19  C   UNL     1      -2.299  -0.968   0.000  0.00  0.00    +0.000 A 
ATOM     20  C   UNL     1      -2.998  -1.372   0.000  0.00  0.00    +0.000 A 
ATOM     21  C   UNL     1      -3.713  -0.960   0.000  0.00  0.00    +0.000 A 
ATOM     22  C   UNL     1      -3.713  -0.135   0.000  0.00  0.00    +0.000 A 
ATOM     23  C   UNL     1      -3.013   0.269   0.000  0.00  0.00    +0.000 A 
ATOM     24  C   UNL     1      -2.299  -0.143   0.000  0.00  0.00    +0.000 A 
BRANCH  20  25
ATOM     25  C   UNL     1      -2.998  -2.200   0.000  0.00  0.00    +0.000 C 
ATOM     26  N   UNL     1      -3.702  -2.606   0.000  0.00  0.00    +0.000 NA
ATOM     27  O   UNL     1      -2.273  -2.619   0.000  0.00  0.00    +0.000 OA
ATOM     28  C   UNL     1      -3.702  -3.428   0.000  0.00  0.00    +0.000 C 
ENDBRANCH  20  25
ENDBRANCH  18  19
ENDBRANCH   1  18
TORSDOF 5
