REMARK  Name = 
REMARK  10 active torsions:
REMARK  status: ('A' for Active; 'I' for Inactive)
REMARK    1  A    between atoms: C_2  and  N_3
REMARK    2  A    between atoms: N_3  and  C_4
REMARK    3  A    between atoms: C_4  and  C_5
REMARK    4  A    between atoms: C_5  and  S_6
REMARK    5  A    between atoms: S_6  and  N_9
REMARK    6  A    between atoms: N_9  and  C_10
REMARK    7  A    between atoms: C_10  and  C_11
REMARK    8  A    between atoms: C_11  and  C_29
REMARK    9  A    between atoms: C_17  and  C_19
REMARK   10  A    between atoms: C_23  and  C_25
REMARK                            x       y       z     vdW  Elec       q    Type
REMARK                         _______ _______ _______ _____ _____    ______ ____
ROOT
ATOM      1  C   UNL     1       1.184  -1.057   0.000  0.00  0.00    +0.000 C 
ATOM      2  N   UNL     1       1.851  -1.542   0.000  0.00  0.00    +0.000 N 
ATOM      3  N   UNL     1       1.597  -2.327   0.000  0.00  0.00    +0.000 NA
ATOM      4  C   UNL     1       0.772  -2.327   0.000  0.00  0.00    +0.000 C 
ATOM      5  S   UNL     1       0.517  -1.542   0.000  0.00  0.00    +0.000 S 
ATOM      6  N   UNL     1       0.287  -2.994   0.000  0.00  0.00    +0.000 NA
ATOM      7  C   UNL     1       0.622  -3.748   0.000  0.00  0.00    +0.000 C 
ATOM      8  O   UNL     1       0.137  -4.415   0.000  0.00  0.00    +0.000 OA
ATOM      9  C   UNL     1       2.636  -1.287   0.000  0.00  0.00    +0.000 C 
ATOM     10  O   UNL     1       3.049  -0.573   0.000  0.00  0.00    +0.000 OA
ENDROOT
BRANCH   1  11
ATOM     11  C   UNL     1       1.736  -0.444   0.000  0.00  0.00    +0.000 A 
ATOM     12  C   UNL     1       1.481   0.341   0.000  0.00  0.00    +0.000 A 
ATOM     13  C   UNL     1       2.033   0.954   0.000  0.00  0.00    +0.000 A 
ATOM     14  C   UNL     1       2.840   0.782   0.000  0.00  0.00    +0.000 A 
ATOM     15  C   UNL     1       3.095  -0.003   0.000  0.00  0.00    +0.000 A 
ATOM     16  C   UNL     1       2.543  -0.616   0.000  0.00  0.00    +0.000 A 
ENDBRANCH   1  11
BRANCH   9  17
ATOM     17  C   UNL     1       3.249  -1.839   0.000  0.00  0.00    +0.000 C 
ATOM     18  C   UNL     1       2.697  -2.452   0.000  0.00  0.00    +0.000 C 
ATOM     19  C   UNL     1       3.801  -1.226   0.000  0.00  0.00    +0.000 C 
ATOM     20  C   UNL     1       3.862  -2.391   0.000  0.00  0.00    +0.000 C 
ENDBRANCH   9  17
BRANCH   7  21
ATOM     21  C   UNL     1       1.443  -3.834   0.000  0.00  0.00    +0.000 C 
ATOM     22  C   UNL     1       2.263  -3.920   0.000  0.00  0.00    +0.000 C 
ATOM     23  C   UNL     1       1.356  -4.655   0.000  0.00  0.00    +0.000 C 
ATOM     24  C   UNL     1       1.529  -3.014   0.000  0.00  0.00    +0.000 C 
ENDBRANCH   7  21
BRANCH   1  25
ATOM     25  C   UNL     1       0.632  -0.444   0.000  0.00  0.00    +0.000 C 
BRANCH  25  26
ATOM     26  N   UNL     1      -0.175  -0.616   0.000  0.00  0.00    +0.000 NA
BRANCH  26  27
ATOM     27  S   UNL     1      -0.727  -0.003   0.000  0.00  0.00    +0.000 S 
ATOM     28  O   UNL     1      -1.340  -0.555   0.000  0.00  0.00    +0.000 OA
ATOM     29  O   UNL     1      -0.114   0.549   0.000  0.00  0.00    +0.000 OA
BRANCH  27  30
ATOM     30  C   UNL     1      -1.279   0.611   0.000  0.00  0.00    +0.000 C 
BRANCH  30  31
ATOM     31  C   UNL     1      -2.086   0.439   0.000  0.00  0.00    +0.000 C 
BRANCH  31  32
ATOM     32  N   UNL     1      -2.638   1.052   0.000  0.00  0.00    +0.000 NA
BRANCH  32  34
ATOM     33  C   UNL     1      -3.997   1.494   0.000  0.00  0.00    +0.000 C 
ATOM     34  C   UNL     1      -3.445   0.881   0.000  0.00  0.00    +0.000 C 
ENDBRANCH  32  34
ENDBRANCH  31  32
ENDBRANCH  30  31
ENDBRANCH  27  30
ENDBRANCH  26  27
ENDBRANCH  25  26
ENDBRANCH   1  25
TORSDOF 10
