REMARK  Name = 
REMARK  1 active torsions:
REMARK  status: ('A' for Active; 'I' for Inactive)
REMARK    1  A    between atoms: C_9  and  S_17
REMARK                            x       y       z     vdW  Elec       q    Type
REMARK                         _______ _______ _______ _____ _____    ______ ____
ROOT
ATOM      1  C   UNL     1       2.858   0.825   0.000  0.00  0.00    +0.000 C 
ATOM      2  C   UNL     1      -0.715   1.238   0.000  0.00  0.00    +0.000 C 
ATOM      3  C   UNL     1       0.000   0.825   0.000  0.00  0.00    +0.000 C 
ATOM      4  C   UNL     1      -0.715   2.062   0.000  0.00  0.00    +0.000 C 
ATOM      5  C   UNL     1       1.429   0.825   0.000  0.00  0.00    +0.000 A 
ATOM      6  C   UNL     1       1.429   2.475   0.000  0.00  0.00    +0.000 A 
ATOM      7  C   UNL     1       2.143   1.238   0.000  0.00  0.00    +0.000 A 
ATOM      8  C   UNL     1       0.715   1.238   0.000  0.00  0.00    +0.000 A 
ATOM      9  C   UNL     1       2.143   2.062   0.000  0.00  0.00    +0.000 A 
ATOM     10  C   UNL     1       0.715   2.062   0.000  0.00  0.00    +0.000 A 
ATOM     11  O   UNL     1      -0.387   3.203   0.000  0.00  0.00    +0.000 OA
ATOM     12  O   UNL     1       0.387   3.203   0.000  0.00  0.00    +0.000 OA
ATOM     13  S   UNL     1       0.000   2.475   0.000  0.00  0.00    +0.000 S 
ENDROOT
BRANCH   9  17
ATOM     14  N   UNL     1       3.572   2.888   0.000  0.00  0.00    +0.000 NA
ATOM     15  O   UNL     1       3.270   1.760   0.000  0.00  0.00    +0.000 OA
ATOM     16  O   UNL     1       2.445   3.189   0.000  0.00  0.00    +0.000 OA
ATOM     17  S   UNL     1       2.858   2.475   0.000  0.00  0.00    +0.000 S 
ENDBRANCH   9  17
TORSDOF 1
