REMARK  Name = 
REMARK  6 active torsions:
REMARK  status: ('A' for Active; 'I' for Inactive)
REMARK    1  A    between atoms: C_2  and  S_3
REMARK    2  A    between atoms: S_3  and  N_6
REMARK    3  A    between atoms: N_9  and  C_12
REMARK    4  A    between atoms: C_15  and  N_16
REMARK    5  A    between atoms: C_20  and  C_21
REMARK    6  A    between atoms: N_25  and  C_26
REMARK                            x       y       z     vdW  Elec       q    Type
REMARK                         _______ _______ _______ _____ _____    ______ ____
ROOT
ATOM      1  C   UNL     1       0.412  -0.587   0.000  0.00  0.00    +0.000 A 
ATOM      2  C   UNL     1      -0.302  -0.174   0.000  0.00  0.00    +0.000 A 
ATOM      3  C   UNL     1      -0.302   0.651   0.000  0.00  0.00    +0.000 A 
ATOM      4  C   UNL     1       0.412   1.063   0.000  0.00  0.00    +0.000 A 
ATOM      5  C   UNL     1       1.127   0.651   0.000  0.00  0.00    +0.000 A 
ATOM      6  C   UNL     1       1.127  -0.174   0.000  0.00  0.00    +0.000 A 
ENDROOT
BRANCH   4   7
ATOM      7  N   UNL     1       0.412   1.888   0.000  0.00  0.00    +0.000 NA
ATOM      8  C   UNL     1       1.127   2.301   0.000  0.00  0.00    +0.000 A 
ATOM      9  N   UNL     1       1.127   3.126   0.000  0.00  0.00    +0.000 NA
ATOM     10  C   UNL     1       1.841   3.538   0.000  0.00  0.00    +0.000 A 
ATOM     11  C   UNL     1       2.556   3.126   0.000  0.00  0.00    +0.000 A 
ATOM     12  C   UNL     1       2.556   2.301   0.000  0.00  0.00    +0.000 A 
ATOM     13  N   UNL     1       3.270   1.888   0.000  0.00  0.00    +0.000 NA
ATOM     14  N   UNL     1       1.841   1.888   0.000  0.00  0.00    +0.000 NA
BRANCH  13  15
ATOM     15  C   UNL     1       3.270   1.063   0.000  0.00  0.00    +0.000 C 
ATOM     16  C   UNL     1       3.683   0.349   0.000  0.00  0.00    +0.000 C 
ATOM     17  C   UNL     1       2.858   0.349   0.000  0.00  0.00    +0.000 C 
ENDBRANCH  13  15
BRANCH  11  18
ATOM     18  C   UNL     1       3.270   3.538   0.000  0.00  0.00    +0.000 C 
ATOM     19  N   UNL     1       3.270   4.363   0.000  0.00  0.00    +0.000 NA
ATOM     20  O   UNL     1       3.985   3.126   0.000  0.00  0.00    +0.000 OA
ENDBRANCH  11  18
ENDBRANCH   4   7
BRANCH   1  24
ATOM     21  N   UNL     1       0.412  -3.062   0.000  0.00  0.00    +0.000 NA
ATOM     22  C   UNL     1      -0.302  -2.649   0.000  0.00  0.00    +0.000 C 
ATOM     23  C   UNL     1      -0.302  -1.824   0.000  0.00  0.00    +0.000 C 
ATOM     24  N   UNL     1       0.412  -1.412   0.000  0.00  0.00    +0.000 N 
ATOM     25  C   UNL     1       1.127  -1.824   0.000  0.00  0.00    +0.000 C 
ATOM     26  C   UNL     1       1.127  -2.649   0.000  0.00  0.00    +0.000 C 
BRANCH  21  27
ATOM     27  S   UNL     1       0.412  -3.887   0.000  0.00  0.00    +0.000 S 
ATOM     28  O   UNL     1       1.238  -3.887   0.000  0.00  0.00    +0.000 OA
ATOM     29  O   UNL     1      -0.412  -3.887   0.000  0.00  0.00    +0.000 OA
BRANCH  27  31
ATOM     30  C   UNL     1       1.127  -5.124   0.000  0.00  0.00    +0.000 C 
ATOM     31  C   UNL     1       0.412  -4.712   0.000  0.00  0.00    +0.000 C 
ENDBRANCH  27  31
ENDBRANCH  21  27
ENDBRANCH   1  24
TORSDOF 6
