REMARK  Name = 
REMARK  4 active torsions:
REMARK  status: ('A' for Active; 'I' for Inactive)
REMARK    1  A    between atoms: C_1  and  C_4
REMARK    2  A    between atoms: C_5  and  N_12
REMARK    3  A    between atoms: C_7  and  C_13
REMARK    4  A    between atoms: C_13  and  N_16
REMARK                            x       y       z     vdW  Elec       q    Type
REMARK                         _______ _______ _______ _____ _____    ______ ____
ROOT
ATOM      1  C   UNL     1       1.072   1.238   0.000  0.00  0.00    +0.000 A 
ATOM      2  C   UNL     1       0.357   1.650   0.000  0.00  0.00    +0.000 A 
ATOM      3  C   UNL     1       1.072   0.412   0.000  0.00  0.00    +0.000 A 
ATOM      4  C   UNL     1      -0.357   1.237   0.000  0.00  0.00    +0.000 A 
ATOM      5  I   UNL     1       0.357   2.475   0.000  0.00  0.00    +0.000 I 
ATOM      6  C   UNL     1       0.357   0.000   0.000  0.00  0.00    +0.000 A 
ATOM      7  I   UNL     1       1.786   0.000   0.000  0.00  0.00    +0.000 I 
ATOM      8  C   UNL     1      -0.357   0.412   0.000  0.00  0.00    +0.000 A 
ATOM      9  I   UNL     1      -1.072  -0.000   0.000  0.00  0.00    +0.000 I 
ENDROOT
BRANCH   4  10
ATOM     10  N   UNL     1      -1.072   1.650   0.000  0.00  0.00    +0.000 NA
ATOM     11  C   UNL     1      -1.786   1.237   0.000  0.00  0.00    +0.000 C 
ATOM     12  O   UNL     1      -1.786   0.412   0.000  0.00  0.00    +0.000 OA
ATOM     13  C   UNL     1      -2.501   1.650   0.000  0.00  0.00    +0.000 C 
ENDBRANCH   4  10
BRANCH   1  14
ATOM     14  C   UNL     1       1.786   1.650   0.000  0.00  0.00    +0.000 C 
ATOM     15  O   UNL     1       1.786   2.475   0.000  0.00  0.00    +0.000 OA
ATOM     16  O   UNL     1       2.501   1.238   0.000  0.00  0.00    +0.000 OA
ENDBRANCH   1  14
BRANCH   6  17
ATOM     17  C   UNL     1       0.357  -0.825   0.000  0.00  0.00    +0.000 C 
BRANCH  17  18
ATOM     18  N   UNL     1      -0.357  -1.238   0.000  0.00  0.00    +0.000 NA
ATOM     19  C   UNL     1      -0.357  -2.063   0.000  0.00  0.00    +0.000 C 
ATOM     20  O   UNL     1      -1.071  -2.475   0.000  0.00  0.00    +0.000 OA
ATOM     21  C   UNL     1       0.358  -2.475   0.000  0.00  0.00    +0.000 C 
ENDBRANCH  17  18
ENDBRANCH   6  17
TORSDOF 4
