REMARK  Name = 
REMARK  19 active torsions:
REMARK  status: ('A' for Active; 'I' for Inactive)
REMARK    1  A    between atoms: C_2  and  C_4
REMARK    2  A    between atoms: N_6  and  C_7
REMARK    3  A    between atoms: C_7  and  C_8
REMARK    4  A    between atoms: C_7  and  C_14
REMARK    5  A    between atoms: C_8  and  C_9
REMARK    6  A    between atoms: N_16  and  C_17
REMARK    7  A    between atoms: C_17  and  C_18
REMARK    8  A    between atoms: C_17  and  C_29
REMARK    9  A    between atoms: C_18  and  C_19
REMARK   10  A    between atoms: N_31  and  C_32
REMARK   11  A    between atoms: C_32  and  C_33
REMARK   12  A    between atoms: C_32  and  C_40
REMARK   13  A    between atoms: C_33  and  C_34
REMARK   14  A    between atoms: N_42  and  C_43
REMARK   15  A    between atoms: C_43  and  C_44
REMARK   16  A    between atoms: C_43  and  C_49
REMARK   17  A    between atoms: C_44  and  C_45
REMARK   18  A    between atoms: C_45  and  C_46
REMARK   19  A    between atoms: C_46  and  C_47
REMARK                            x       y       z     vdW  Elec       q    Type
REMARK                         _______ _______ _______ _____ _____    ______ ____
ROOT
ATOM      1  C   UNL     1       7.289  -4.656   0.000  0.00  0.00    +0.000 C 
ENDROOT
BRANCH   1   4
ATOM      2  C   UNL     1       5.873  -4.845   0.000  0.00  0.00    +0.000 C 
ATOM      3  O   UNL     1       5.982  -5.663   0.000  0.00  0.00    +0.000 OA
ATOM      4  N   UNL     1       6.527  -4.342   0.000  0.00  0.00    +0.000 NA
BRANCH   2   5
ATOM      5  C   UNL     1       5.110  -4.530   0.000  0.00  0.00    +0.000 C 
BRANCH   5   8
ATOM      6  C   UNL     1       3.694  -4.719   0.000  0.00  0.00    +0.000 C 
ATOM      7  O   UNL     1       3.585  -3.901   0.000  0.00  0.00    +0.000 OA
ATOM      8  N   UNL     1       4.457  -5.034   0.000  0.00  0.00    +0.000 NA
BRANCH   6  10
ATOM      9  C   UNL     1       2.386  -5.726   0.000  0.00  0.00    +0.000 C 
ATOM     10  C   UNL     1       3.040  -5.222   0.000  0.00  0.00    +0.000 C 
ATOM     11  C   UNL     1       3.543  -5.876   0.000  0.00  0.00    +0.000 C 
ATOM     12  N   UNL     1       2.537  -4.569   0.000  0.00  0.00    +0.000 NA
ENDBRANCH   6  10
ENDBRANCH   5   8
BRANCH   5  13
ATOM     13  C   UNL     1       5.001  -3.712   0.000  0.00  0.00    +0.000 C 
BRANCH  13  14
ATOM     14  C   UNL     1       5.655  -3.209   0.000  0.00  0.00    +0.000 A 
ATOM     15  C   UNL     1       5.632  -2.385   0.000  0.00  0.00    +0.000 A 
ATOM     16  N   UNL     1       6.409  -2.108   0.000  0.00  0.00    +0.000 NA
ATOM     17  C   UNL     1       6.913  -2.762   0.000  0.00  0.00    +0.000 A 
ATOM     18  N   UNL     1       6.446  -3.442   0.000  0.00  0.00    +0.000 NA
ENDBRANCH  13  14
ENDBRANCH   5  13
ENDBRANCH   2   5
ENDBRANCH   1   4
BRANCH   1  19
ATOM     19  C   UNL     1       7.943  -4.153   0.000  0.00  0.00    +0.000 C 
ATOM     20  O   UNL     1       7.834  -3.335   0.000  0.00  0.00    +0.000 OA
ATOM     21  N   UNL     1       8.706  -4.467   0.000  0.00  0.00    +0.000 NA
BRANCH  21  22
ATOM     22  C   UNL     1       9.360  -3.964   0.000  0.00  0.00    +0.000 C 
BRANCH  22  23
ATOM     23  C   UNL     1      10.122  -4.279   0.000  0.00  0.00    +0.000 C 
ATOM     24  O   UNL     1      10.231  -5.096   0.000  0.00  0.00    +0.000 OA
ATOM     25  N   UNL     1      10.776  -3.775   0.000  0.00  0.00    +0.000 NA
BRANCH  25  26
ATOM     26  C   UNL     1      11.539  -4.090   0.000  0.00  0.00    +0.000 C 
BRANCH  26  27
ATOM     27  C   UNL     1      11.648  -4.908   0.000  0.00  0.00    +0.000 C 
ATOM     28  O   UNL     1      12.410  -5.222   0.000  0.00  0.00    +0.000 OA
ATOM     29  N   UNL     1      10.994  -5.411   0.000  0.00  0.00    +0.000 NA
ENDBRANCH  26  27
BRANCH  26  30
ATOM     30  C   UNL     1      12.192  -3.587   0.000  0.00  0.00    +0.000 C 
BRANCH  30  31
ATOM     31  C   UNL     1      12.955  -3.901   0.000  0.00  0.00    +0.000 C 
BRANCH  31  32
ATOM     32  C   UNL     1      13.609  -3.398   0.000  0.00  0.00    +0.000 C 
BRANCH  32  33
ATOM     33  C   UNL     1      14.371  -3.712   0.000  0.00  0.00    +0.000 C 
ATOM     34  N   UNL     1      15.025  -3.209   0.000  0.00  0.00    +0.000 NA
ENDBRANCH  32  33
ENDBRANCH  31  32
ENDBRANCH  30  31
ENDBRANCH  26  30
ENDBRANCH  25  26
ENDBRANCH  22  23
BRANCH  22  35
ATOM     35  C   UNL     1       9.251  -3.146   0.000  0.00  0.00    +0.000 C 
BRANCH  35  36
ATOM     36  C   UNL     1       9.904  -2.643   0.000  0.00  0.00    +0.000 A 
ATOM     37  C   UNL     1       9.795  -1.825   0.000  0.00  0.00    +0.000 A 
ATOM     38  C   UNL     1      10.449  -1.322   0.000  0.00  0.00    +0.000 A 
ATOM     39  C   UNL     1      11.212  -1.637   0.000  0.00  0.00    +0.000 A 
ATOM     40  C   UNL     1      11.321  -2.454   0.000  0.00  0.00    +0.000 A 
ATOM     41  C   UNL     1      10.667  -2.958   0.000  0.00  0.00    +0.000 A 
ENDBRANCH  35  36
ENDBRANCH  22  35
ENDBRANCH  21  22
ENDBRANCH   1  19
BRANCH   1  42
ATOM     42  C   UNL     1       7.398  -5.474   0.000  0.00  0.00    +0.000 C 
BRANCH  42  43
ATOM     43  C   UNL     1       8.161  -5.788   0.000  0.00  0.00    +0.000 A 
ATOM     44  C   UNL     1       8.815  -5.285   0.000  0.00  0.00    +0.000 A 
ATOM     45  C   UNL     1       9.577  -5.600   0.000  0.00  0.00    +0.000 A 
ATOM     46  C   UNL     1       9.686  -6.417   0.000  0.00  0.00    +0.000 A 
ATOM     47  C   UNL     1      10.449  -6.732   0.000  0.00  0.00    +0.000 A 
ATOM     48  C   UNL     1      10.558  -7.550   0.000  0.00  0.00    +0.000 A 
ATOM     49  C   UNL     1       9.904  -8.053   0.000  0.00  0.00    +0.000 A 
ATOM     50  C   UNL     1       9.142  -7.739   0.000  0.00  0.00    +0.000 A 
ATOM     51  C   UNL     1       9.033  -6.921   0.000  0.00  0.00    +0.000 A 
ATOM     52  C   UNL     1       8.270  -6.606   0.000  0.00  0.00    +0.000 A 
ENDBRANCH  42  43
ENDBRANCH   1  42
TORSDOF 19
