REMARK  Name = 
REMARK  11 active torsions:
REMARK  status: ('A' for Active; 'I' for Inactive)
REMARK    1  A    between atoms: C_2  and  O_3
REMARK    2  A    between atoms: O_3  and  C_4
REMARK    3  A    between atoms: C_4  and  C_5
REMARK    4  A    between atoms: C_4  and  C_29
REMARK    5  A    between atoms: C_5  and  C_6
REMARK    6  A    between atoms: C_9  and  O_12
REMARK    7  A    between atoms: O_12  and  C_13
REMARK    8  A    between atoms: C_13  and  C_14
REMARK    9  A    between atoms: C_14  and  N_15
REMARK   10  A    between atoms: C_19  and  C_20
REMARK   11  A    between atoms: C_23  and  S_26
REMARK                            x       y       z     vdW  Elec       q    Type
REMARK                         _______ _______ _______ _____ _____    ______ ____
ROOT
ATOM      1  C   UNL     1       2.203  -2.560   0.000  0.00  0.00    +0.000 C 
ENDROOT
BRANCH   1   2
ATOM      2  C   UNL     1       1.488  -2.147   0.000  0.00  0.00    +0.000 C 
BRANCH   2   3
ATOM      3  N   UNL     1       0.774  -2.560   0.000  0.00  0.00    +0.000 N 
ATOM      4  C   UNL     1       0.687  -3.380   0.000  0.00  0.00    +0.000 A 
ATOM      5  C   UNL     1      -0.120  -3.552   0.000  0.00  0.00    +0.000 A 
ATOM      6  C   UNL     1      -0.532  -2.837   0.000  0.00  0.00    +0.000 A 
ATOM      7  C   UNL     1       0.020  -2.224   0.000  0.00  0.00    +0.000 A 
ATOM      8  C   UNL     1       1.300  -3.932   0.000  0.00  0.00    +0.000 C 
BRANCH   7   9
ATOM      9  C   UNL     1      -0.152  -1.417   0.000  0.00  0.00    +0.000 A 
ATOM     10  C   UNL     1      -0.936  -1.162   0.000  0.00  0.00    +0.000 A 
ATOM     11  C   UNL     1      -1.108  -0.355   0.000  0.00  0.00    +0.000 A 
ATOM     12  C   UNL     1      -0.495   0.197   0.000  0.00  0.00    +0.000 A 
ATOM     13  C   UNL     1       0.290  -0.058   0.000  0.00  0.00    +0.000 A 
ATOM     14  C   UNL     1       0.462  -0.865   0.000  0.00  0.00    +0.000 A 
BRANCH  12  15
ATOM     15  S   UNL     1      -0.666   1.004   0.000  0.00  0.00    +0.000 S 
ATOM     16  C   UNL     1      -1.451   1.259   0.000  0.00  0.00    +0.000 C 
ENDBRANCH  12  15
ENDBRANCH   7   9
ENDBRANCH   2   3
ENDBRANCH   1   2
BRANCH   1  17
ATOM     17  O   UNL     1       2.917  -2.147   0.000  0.00  0.00    +0.000 OA
BRANCH  17  21
ATOM     18  C   UNL     1       5.061  -3.385   0.000  0.00  0.00    +0.000 A 
ATOM     19  C   UNL     1       4.346  -3.797   0.000  0.00  0.00    +0.000 A 
ATOM     20  C   UNL     1       3.631  -3.385   0.000  0.00  0.00    +0.000 A 
ATOM     21  C   UNL     1       3.631  -2.560   0.000  0.00  0.00    +0.000 A 
ATOM     22  C   UNL     1       4.346  -2.147   0.000  0.00  0.00    +0.000 A 
ATOM     23  C   UNL     1       5.061  -2.560   0.000  0.00  0.00    +0.000 A 
BRANCH  18  24
ATOM     24  C   UNL     1       5.775  -3.797   0.000  0.00  0.00    +0.000 C 
BRANCH  24  25
ATOM     25  C   UNL     1       5.775  -4.622   0.000  0.00  0.00    +0.000 C 
BRANCH  25  26
ATOM     26  C   UNL     1       6.489  -5.035   0.000  0.00  0.00    +0.000 C 
ATOM     27  O   UNL     1       7.204  -4.622   0.000  0.00  0.00    +0.000 OA
ATOM     28  O   UNL     1       6.489  -5.860   0.000  0.00  0.00    +0.000 OA
ENDBRANCH  25  26
BRANCH  25  29
ATOM     29  O   UNL     1       5.061  -5.035   0.000  0.00  0.00    +0.000 OA
BRANCH  29  31
ATOM     30  C   UNL     1       4.346  -6.272   0.000  0.00  0.00    +0.000 C 
ATOM     31  C   UNL     1       5.061  -5.860   0.000  0.00  0.00    +0.000 C 
ENDBRANCH  29  31
ENDBRANCH  25  29
ENDBRANCH  24  25
ENDBRANCH  18  24
ENDBRANCH  17  21
ENDBRANCH   1  17
TORSDOF 11
