REMARK  Name = 
REMARK  2 active torsions:
REMARK  status: ('A' for Active; 'I' for Inactive)
REMARK    1  A    between atoms: C_1  and  P_2
REMARK    2  A    between atoms: C_1  and  P_3
REMARK                            x       y       z     vdW  Elec       q    Type
REMARK                         _______ _______ _______ _____ _____    ______ ____
ROOT
ATOM      1  C   UNL     1      -0.262   0.412   0.000  0.00  0.00    +0.000 C 
ATOM      2  O   UNL     1      -0.258   1.238   0.000  0.00  0.00    +0.000 OA
ATOM      3  C   UNL     1       0.562   0.412   0.000  0.00  0.00    +0.000 C 
ENDROOT
BRANCH   1   4
ATOM      4  P   UNL     1      -1.088   0.412   0.000  0.00  0.00    +0.000 P 
ATOM      5  O   UNL     1      -1.508   1.125   0.000  0.00  0.00    +0.000 OA
ATOM      6  O   UNL     1      -1.508  -0.300   0.000  0.00  0.00    +0.000 OA
ATOM      7  O   UNL     1      -1.913   0.412   0.000  0.00  0.00    +0.000 OA
ENDBRANCH   1   4
BRANCH   1   8
ATOM      8  P   UNL     1      -0.271  -0.412   0.000  0.00  0.00    +0.000 P 
ATOM      9  O   UNL     1      -0.983  -0.825   0.000  0.00  0.00    +0.000 OA
ATOM     10  O   UNL     1      -0.271  -1.238   0.000  0.00  0.00    +0.000 OA
ATOM     11  O   UNL     1       0.442  -0.825   0.000  0.00  0.00    +0.000 OA
ENDBRANCH   1   8
TORSDOF 2
REMARK  Name = 
REMARK  2 active torsions:
REMARK  status: ('A' for Active; 'I' for Inactive)
REMARK    1  A    between atoms: C_1  and  P_2
REMARK    2  A    between atoms: C_1  and  P_3
REMARK                            x       y       z     vdW  Elec       q    Type
REMARK                         _______ _______ _______ _____ _____    ______ ____
ROOT
ATOM      1 TC   UNL     1       1.913   0.312   0.000  0.00  0.00    +0.000 Tc
ENDROOT
TORSDOF 0
