REMARK  Name = 
REMARK  3 active torsions:
REMARK  status: ('A' for Active; 'I' for Inactive)
REMARK    1  A    between atoms: C_3  and  O_24
REMARK    2  A    between atoms: O_24  and  C_26
REMARK    3  A    between atoms: C_26  and  C_27
REMARK                            x       y       z     vdW  Elec       q    Type
REMARK                         _______ _______ _______ _____ _____    ______ ____
ROOT
ATOM      1  C   UNL     1       2.293  -0.847   0.000  0.00  0.00    +0.000 C 
ATOM      2  C   UNL     1       0.794  -1.829   0.000  0.00  0.00    +0.000 C 
ATOM      3  C   UNL     1       2.293   0.488   0.000  0.00  0.00    +0.000 C 
ATOM      4  C   UNL     1       0.794   0.646   0.000  0.00  0.00    +0.000 C 
ATOM      5  C   UNL     1       2.778  -0.179   0.000  0.00  0.00    +0.000 C 
ATOM      6  C   UNL     1      -0.635  -1.004   0.000  0.00  0.00    +0.000 C 
ATOM      7  C   UNL     1       0.080   0.233   0.000  0.00  0.00    +0.000 C 
ATOM      8  C   UNL     1       0.080  -2.242   0.000  0.00  0.00    +0.000 C 
ATOM      9  C   UNL     1      -0.635  -1.829   0.000  0.00  0.00    +0.000 C 
ATOM     10  C   UNL     1      -1.349  -0.592   0.000  0.00  0.00    +0.000 C 
ATOM     11  C   UNL     1      -1.349  -2.242   0.000  0.00  0.00    +0.000 C 
ATOM     12  C   UNL     1      -2.064  -1.004   0.000  0.00  0.00    +0.000 C 
ATOM     13  C   UNL     1       0.794  -1.004   0.000  0.00  0.00    +0.000 C 
ATOM     14  C   UNL     1       0.080  -0.592   0.000  0.00  0.00    +0.000 C 
ATOM     15  C   UNL     1       1.509   0.233   0.000  0.00  0.00    +0.000 C 
ATOM     16  C   UNL     1       1.509   1.058   0.000  0.00  0.00    +0.000 C 
ATOM     17  C   UNL     1       1.509  -0.592   0.000  0.00  0.00    +0.000 C 
ATOM     18  O   UNL     1      -2.778  -2.242   0.000  0.00  0.00    +0.000 OA
ATOM     19  C   UNL     1      -2.064  -1.829   0.000  0.00  0.00    +0.000 C 
ATOM     20  C   UNL     1      -0.635  -0.179   0.000  0.00  0.00    +0.000 C 
ATOM     21  C   UNL     1      -2.778  -0.592   0.000  0.00  0.00    +0.000 C 
ENDROOT
BRANCH   3  22
ATOM     22  O   UNL     1       2.465   1.295   0.000  0.00  0.00    +0.000 OA
BRANCH  22  23
ATOM     23  C   UNL     1       1.852   1.847   0.000  0.00  0.00    +0.000 C 
ATOM     24  O   UNL     1       2.023   2.654   0.000  0.00  0.00    +0.000 OA
BRANCH  23  25
ATOM     25  C   UNL     1       1.067   1.592   0.000  0.00  0.00    +0.000 C 
ATOM     26  C   UNL     1       0.454   2.144   0.000  0.00  0.00    +0.000 C 
ENDBRANCH  23  25
ENDBRANCH  22  23
ENDBRANCH   3  22
TORSDOF 3
