REMARK  Name = 
REMARK  1 active torsions:
REMARK  status: ('A' for Active; 'I' for Inactive)
REMARK    1  A    between atoms: C_21  and  N_23
REMARK                            x       y       z     vdW  Elec       q    Type
REMARK                         _______ _______ _______ _____ _____    ______ ____
ROOT
ATOM      1  C   UNL     1       6.170   1.754   0.000  0.00  0.00    +0.000 A 
ATOM      2  C   UNL     1       3.850   5.772   0.000  0.00  0.00    +0.000 A 
ATOM      3  C   UNL     1       5.381   1.511   0.000  0.00  0.00    +0.000 A 
ATOM      4  C   UNL     1       3.245   5.211   0.000  0.00  0.00    +0.000 A 
ATOM      5  C   UNL     1       6.353   2.558   0.000  0.00  0.00    +0.000 A 
ATOM      6  C   UNL     1       4.638   5.529   0.000  0.00  0.00    +0.000 A 
ATOM      7  C   UNL     1       4.776   2.072   0.000  0.00  0.00    +0.000 A 
ATOM      8  C   UNL     1       3.428   4.407   0.000  0.00  0.00    +0.000 A 
ATOM      9  C   UNL     1       6.050   3.888   0.000  0.00  0.00    +0.000 C 
ATOM     10  C   UNL     1       5.637   4.602   0.000  0.00  0.00    +0.000 C 
ATOM     11  C   UNL     1       5.748   3.119   0.000  0.00  0.00    +0.000 A 
ATOM     12  C   UNL     1       4.822   4.725   0.000  0.00  0.00    +0.000 A 
ATOM     13  C   UNL     1       4.960   2.876   0.000  0.00  0.00    +0.000 A 
ATOM     14  C   UNL     1       4.217   4.164   0.000  0.00  0.00    +0.000 A 
ATOM     15  N   UNL     1       4.278   3.341   0.000  0.00  0.00    +0.000 N 
ENDROOT
BRANCH  15  22
ATOM     16  C   UNL     1       2.135   2.929   0.000  0.00  0.00    +0.000 C 
ATOM     17  C   UNL     1       2.987   2.791   0.000  0.00  0.00    +0.000 C 
ATOM     18  C   UNL     1       2.135   2.104   0.000  0.00  0.00    +0.000 C 
ATOM     19  C   UNL     1       2.987   2.241   0.000  0.00  0.00    +0.000 C 
ATOM     20  C   UNL     1       3.564   2.104   0.000  0.00  0.00    +0.000 C 
ATOM     21  C   UNL     1       2.849   3.341   0.000  0.00  0.00    +0.000 C 
ATOM     22  C   UNL     1       3.564   2.929   0.000  0.00  0.00    +0.000 C 
ATOM     23  N   UNL     1       2.849   1.691   0.000  0.00  0.00    +0.000 NA
ENDBRANCH  15  22
TORSDOF 1
