REMARK  Name = 
REMARK  3 active torsions:
REMARK  status: ('A' for Active; 'I' for Inactive)
REMARK    1  A    between atoms: C_9  and  C_10
REMARK    2  A    between atoms: C_25  and  C_28
REMARK    3  A    between atoms: C_28  and  C_29
REMARK                            x       y       z     vdW  Elec       q    Type
REMARK                         _______ _______ _______ _____ _____    ______ ____
ROOT
ATOM      1  C   UNL     1      -2.752   4.123   0.000  0.00  0.00    +0.000 A 
ATOM      2  N   UNL     1      -2.037   4.536   0.000  0.00  0.00    +0.000 NA
ATOM      3  N   UNL     1      -1.325   4.124   0.000  0.00  0.00    +0.000 N 
ATOM      4  C   UNL     1      -1.325   3.299   0.000  0.00  0.00    +0.000 A 
ATOM      5  C   UNL     1      -2.035   2.887   0.000  0.00  0.00    +0.000 A 
ATOM      6  N   UNL     1      -2.752   3.295   0.000  0.00  0.00    +0.000 NA
ATOM      7  C   UNL     1      -0.540   4.379   0.000  0.00  0.00    +0.000 A 
ATOM      8  C   UNL     1      -0.540   3.044   0.000  0.00  0.00    +0.000 A 
ATOM      9  C   UNL     1      -0.055   3.711   0.000  0.00  0.00    +0.000 A 
ATOM     10  N   UNL     1      -2.035   2.062   0.000  0.00  0.00    +0.000 N 
ATOM     11  C   UNL     1      -1.321   1.649   0.000  0.00  0.00    +0.000 C 
ATOM     12  C   UNL     1      -1.321   0.824   0.000  0.00  0.00    +0.000 C 
ATOM     13  N   UNL     1      -2.035   0.412   0.000  0.00  0.00    +0.000 N 
ATOM     14  C   UNL     1      -2.750   0.824   0.000  0.00  0.00    +0.000 C 
ATOM     15  C   UNL     1      -2.750   1.649   0.000  0.00  0.00    +0.000 C 
ATOM     16  C   UNL     1      -2.035  -0.413   0.000  0.00  0.00    +0.000 A 
ATOM     17  N   UNL     1      -1.321  -0.826   0.000  0.00  0.00    +0.000 NA
ATOM     18  C   UNL     1      -1.322  -1.648   0.000  0.00  0.00    +0.000 A 
ATOM     19  C   UNL     1      -2.037  -2.061   0.000  0.00  0.00    +0.000 A 
ATOM     20  C   UNL     1      -2.748  -1.652   0.000  0.00  0.00    +0.000 A 
ATOM     21  N   UNL     1      -2.753  -0.827   0.000  0.00  0.00    +0.000 NA
ENDROOT
BRANCH   9  22
ATOM     22  C   UNL     1       0.769   3.711   0.000  0.00  0.00    +0.000 A 
ATOM     23  C   UNL     1       1.254   3.044   0.000  0.00  0.00    +0.000 A 
ATOM     24  N   UNL     1       2.038   3.299   0.000  0.00  0.00    +0.000 N 
ATOM     25  N   UNL     1       2.038   4.124   0.000  0.00  0.00    +0.000 NA
ATOM     26  C   UNL     1       1.254   4.378   0.000  0.00  0.00    +0.000 A 
ATOM     27  C   UNL     1       2.753   2.886   0.000  0.00  0.00    +0.000 C 
ENDBRANCH   9  22
BRANCH  19  28
ATOM     28  C   UNL     1      -2.037  -2.886   0.000  0.00  0.00    +0.000 C 
ATOM     29  N   UNL     1      -2.751  -3.298   0.000  0.00  0.00    +0.000 NA
ATOM     30  C   UNL     1      -2.649  -2.334   0.000  0.00  0.00    +0.000 C 
BRANCH  28  31
ATOM     31  C   UNL     1      -1.322  -3.298   0.000  0.00  0.00    +0.000 A 
ATOM     32  C   UNL     1      -0.607  -2.886   0.000  0.00  0.00    +0.000 A 
ATOM     33  C   UNL     1       0.104  -3.298   0.000  0.00  0.00    +0.000 A 
ATOM     34  C   UNL     1       0.104  -4.123   0.000  0.00  0.00    +0.000 A 
ATOM     35  C   UNL     1      -0.606  -4.535   0.000  0.00  0.00    +0.000 A 
ATOM     36  C   UNL     1      -1.322  -4.127   0.000  0.00  0.00    +0.000 A 
ATOM     37  F   UNL     1       0.819  -4.536   0.000  0.00  0.00    +0.000 F 
ENDBRANCH  28  31
ENDBRANCH  19  28
TORSDOF 3
