REMARK  Name = 
REMARK  10 active torsions:
REMARK  status: ('A' for Active; 'I' for Inactive)
REMARK    1  A    between atoms: N_5  and  C_17
REMARK    2  A    between atoms: N_6  and  C_20
REMARK    3  A    between atoms: N_9  and  C_22
REMARK    4  A    between atoms: N_10  and  C_25
REMARK    5  A    between atoms: C_11  and  C_17
REMARK    6  A    between atoms: C_17  and  C_18
REMARK    7  A    between atoms: C_20  and  C_21
REMARK    8  A    between atoms: C_22  and  C_23
REMARK    9  A    between atoms: C_25  and  C_26
REMARK   10  A    between atoms: C_26  and  C_27
REMARK                            x       y       z     vdW  Elec       q    Type
REMARK                         _______ _______ _______ _____ _____    ______ ____
ROOT
ATOM      1  O   UNL     1       0.517  -2.475   0.000  0.00  0.00    +0.000 OA
ATOM      2  N   UNL     1      -0.197  -1.238   0.000  0.00  0.00    +0.000 N 
ATOM      3  C   UNL     1      -0.197  -2.062   0.000  0.00  0.00    +0.000 C 
ATOM      4  H   UNL     1      -0.640  -0.982   0.000  0.00  0.00    +0.000 HD
ENDROOT
BRANCH   3   5
ATOM      5  C   UNL     1      -0.912  -2.475   0.000  0.00  0.00    +0.000 C 
BRANCH   5   6
ATOM      6  N   UNL     1      -1.626  -2.062   0.000  0.00  0.00    +0.000 NA
ATOM      7  N   UNL     1      -2.864  -2.777   0.000  0.00  0.00    +0.000 N 
ATOM      8  N   UNL     1      -2.864  -1.348   0.000  0.00  0.00    +0.000 N 
ATOM      9  C   UNL     1      -2.451  -2.062   0.000  0.00  0.00    +0.000 C 
ATOM     10  H   UNL     1      -2.608  -3.220   0.000  0.00  0.00    +0.000 HD
ATOM     11  H   UNL     1      -3.375  -2.777   0.000  0.00  0.00    +0.000 HD
ATOM     12  H   UNL     1      -2.608  -0.905   0.000  0.00  0.00    +0.000 HD
ATOM     13  H   UNL     1      -3.375  -1.348   0.000  0.00  0.00    +0.000 HD
ENDBRANCH   5   6
BRANCH   5  14
ATOM     14  C   UNL     1      -0.912  -3.300   0.000  0.00  0.00    +0.000 C 
ATOM     15  C   UNL     1      -1.626  -3.712   0.000  0.00  0.00    +0.000 C 
ATOM     16  C   UNL     1      -0.197  -3.712   0.000  0.00  0.00    +0.000 C 
ATOM     17  C   UNL     1      -1.626  -4.537   0.000  0.00  0.00    +0.000 C 
ATOM     18  C   UNL     1      -0.197  -4.537   0.000  0.00  0.00    +0.000 C 
ATOM     19  C   UNL     1      -0.912  -4.950   0.000  0.00  0.00    +0.000 C 
ENDBRANCH   5  14
ENDBRANCH   3   5
BRANCH   2  20
ATOM     20  C   UNL     1       0.517  -0.825   0.000  0.00  0.00    +0.000 C 
BRANCH  20  23
ATOM     21  O   UNL     1      -0.197   0.412   0.000  0.00  0.00    +0.000 OA
ATOM     22  N   UNL     1       1.232   0.412   0.000  0.00  0.00    +0.000 N 
ATOM     23  C   UNL     1       0.517   0.000   0.000  0.00  0.00    +0.000 C 
ATOM     24  H   UNL     1       1.675   0.157   0.000  0.00  0.00    +0.000 HD
BRANCH  22  25
ATOM     25  C   UNL     1       1.232   1.238   0.000  0.00  0.00    +0.000 C 
ATOM     26  C   UNL     1       0.517   1.650   0.000  0.00  0.00    +0.000 C 
BRANCH  25  29
ATOM     27  O   UNL     1       2.661   1.238   0.000  0.00  0.00    +0.000 OA
ATOM     28  N   UNL     1       1.946   2.475   0.000  0.00  0.00    +0.000 N 
ATOM     29  C   UNL     1       1.946   1.650   0.000  0.00  0.00    +0.000 C 
ATOM     30  H   UNL     1       1.503   2.731   0.000  0.00  0.00    +0.000 HD
BRANCH  28  31
ATOM     31  C   UNL     1       2.661   2.888   0.000  0.00  0.00    +0.000 C 
BRANCH  31  32
ATOM     32  C   UNL     1       2.661   3.712   0.000  0.00  0.00    +0.000 C 
BRANCH  32  34
ATOM     33  S   UNL     1       3.375   4.950   0.000  0.00  0.00    +0.000 S 
ATOM     34  C   UNL     1       3.375   4.125   0.000  0.00  0.00    +0.000 C 
ENDBRANCH  32  34
ENDBRANCH  31  32
ENDBRANCH  28  31
ENDBRANCH  25  29
ENDBRANCH  22  25
ENDBRANCH  20  23
ENDBRANCH   2  20
TORSDOF 10
