REMARK  Name = 
REMARK  23 active torsions:
REMARK  status: ('A' for Active; 'I' for Inactive)
REMARK    1  A    between atoms: C_1  and  C_5
REMARK    2  A    between atoms: C_4  and  C_5
REMARK    3  A    between atoms: C_4  and  O_15
REMARK    4  A    between atoms: C_12  and  O_13
REMARK    5  A    between atoms: O_15  and  C_26
REMARK    6  A    between atoms: C_17  and  C_18
REMARK    7  A    between atoms: C_26  and  C_27
REMARK    8  A    between atoms: C_27  and  N_28
REMARK    9  A    between atoms: N_31  and  C_34
REMARK   10  A    between atoms: C_34  and  C_35
REMARK   11  A    between atoms: C_35  and  C_36
REMARK   12  A    between atoms: C_36  and  O_37
REMARK   13  A    between atoms: O_37  and  C_38
REMARK   14  A    between atoms: C_38  and  C_39
REMARK   15  A    between atoms: C_39  and  C_40
REMARK   16  A    between atoms: C_40  and  C_41
REMARK   17  A    between atoms: C_41  and  C_42
REMARK   18  A    between atoms: C_41  and  N_47
REMARK   19  A    between atoms: N_43  and  C_44
REMARK   20  A    between atoms: N_43  and  C_57
REMARK   21  A    between atoms: C_44  and  C_45
REMARK   22  A    between atoms: C_48  and  C_49
REMARK   23  A    between atoms: C_57  and  C_58
REMARK                            x       y       z     vdW  Elec       q    Type
REMARK                         _______ _______ _______ _____ _____    ______ ____
ROOT
ATOM      1  N   UNL     1      -2.952   0.939   0.000  0.00  0.00    +0.000 NA
ATOM      2  C   UNL     1      -2.237   0.527   0.000  0.00  0.00    +0.000 C 
ATOM      3  C   UNL     1      -1.523   0.939   0.000  0.00  0.00    +0.000 C 
ATOM      4  N   UNL     1      -1.523   1.764   0.000  0.00  0.00    +0.000 NA
ATOM      5  C   UNL     1      -2.237   2.177   0.000  0.00  0.00    +0.000 C 
ATOM      6  C   UNL     1      -2.952   1.764   0.000  0.00  0.00    +0.000 C 
ENDROOT
BRANCH   4   7
ATOM      7  C   UNL     1      -0.808   2.177   0.000  0.00  0.00    +0.000 C 
BRANCH   7   8
ATOM      8  C   UNL     1      -0.808   3.002   0.000  0.00  0.00    +0.000 C 
BRANCH   8   9
ATOM      9  C   UNL     1      -0.094   3.414   0.000  0.00  0.00    +0.000 C 
BRANCH   9  10
ATOM     10  O   UNL     1      -0.094   4.239   0.000  0.00  0.00    +0.000 OA
BRANCH  10  11
ATOM     11  C   UNL     1       0.620   4.652   0.000  0.00  0.00    +0.000 C 
ATOM     12  O   UNL     1       0.620   5.477   0.000  0.00  0.00    +0.000 OA
BRANCH  11  13
ATOM     13  C   UNL     1       1.335   4.239   0.000  0.00  0.00    +0.000 C 
BRANCH  13  14
ATOM     14  C   UNL     1       2.049   4.652   0.000  0.00  0.00    +0.000 C 
BRANCH  14  15
ATOM     15  C   UNL     1       2.764   4.239   0.000  0.00  0.00    +0.000 C 
BRANCH  15  16
ATOM     16  N   UNL     1       2.764   3.414   0.000  0.00  0.00    +0.000 NA
ATOM     17  C   UNL     1       2.049   3.002   0.000  0.00  0.00    +0.000 C 
ATOM     18  O   UNL     1       1.335   3.414   0.000  0.00  0.00    +0.000 OA
BRANCH  17  19
ATOM     19  C   UNL     1       2.049   2.177   0.000  0.00  0.00    +0.000 A 
ATOM     20  C   UNL     1       1.335   1.764   0.000  0.00  0.00    +0.000 A 
ATOM     21  C   UNL     1       1.335   0.939   0.000  0.00  0.00    +0.000 A 
ATOM     22  C   UNL     1       2.049   0.527   0.000  0.00  0.00    +0.000 A 
ATOM     23  C   UNL     1       2.764   0.939   0.000  0.00  0.00    +0.000 A 
ATOM     24  C   UNL     1       2.764   1.764   0.000  0.00  0.00    +0.000 A 
ENDBRANCH  17  19
ENDBRANCH  15  16
BRANCH  15  25
ATOM     25  C   UNL     1       3.478   4.652   0.000  0.00  0.00    +0.000 C 
ATOM     26  N   UNL     1       4.193   4.239   0.000  0.00  0.00    +0.000 N 
ATOM     27  O   UNL     1       3.478   5.477   0.000  0.00  0.00    +0.000 OA
BRANCH  26  28
ATOM     28  C   UNL     1       4.907   4.652   0.000  0.00  0.00    +0.000 C 
BRANCH  28  29
ATOM     29  C   UNL     1       5.622   4.239   0.000  0.00  0.00    +0.000 C 
ATOM     30  C   UNL     1       5.620   3.413   0.000  0.00  0.00    +0.000 C 
ENDBRANCH  28  29
ENDBRANCH  26  28
BRANCH  26  31
ATOM     31  C   UNL     1       4.193   3.414   0.000  0.00  0.00    +0.000 C 
BRANCH  31  32
ATOM     32  C   UNL     1       4.907   3.002   0.000  0.00  0.00    +0.000 C 
ATOM     33  C   UNL     1       4.907   2.177   0.000  0.00  0.00    +0.000 C 
ENDBRANCH  31  32
ENDBRANCH  26  31
ENDBRANCH  15  25
ENDBRANCH  14  15
ENDBRANCH  13  14
ENDBRANCH  11  13
ENDBRANCH  10  11
ENDBRANCH   9  10
ENDBRANCH   8   9
ENDBRANCH   7   8
ENDBRANCH   4   7
BRANCH   1  34
ATOM     34  C   UNL     1      -3.666   0.527   0.000  0.00  0.00    +0.000 C 
BRANCH  34  35
ATOM     35  C   UNL     1      -3.666  -0.298   0.000  0.00  0.00    +0.000 C 
BRANCH  35  36
ATOM     36  O   UNL     1      -2.951  -0.704   0.000  0.00  0.00    +0.000 OA
BRANCH  36  37
ATOM     37  C   UNL     1      -2.951  -1.528   0.000  0.00  0.00    +0.000 C 
ATOM     38  O   UNL     1      -3.665  -1.941   0.000  0.00  0.00    +0.000 OA
BRANCH  37  39
ATOM     39  C   UNL     1      -2.236  -1.941   0.000  0.00  0.00    +0.000 C 
BRANCH  39  40
ATOM     40  C   UNL     1      -2.236  -2.766   0.000  0.00  0.00    +0.000 A 
ATOM     41  C   UNL     1      -1.569  -3.251   0.000  0.00  0.00    +0.000 A 
ATOM     42  C   UNL     1      -0.784  -2.996   0.000  0.00  0.00    +0.000 C 
ATOM     43  C   UNL     1      -2.649  -4.035   0.000  0.00  0.00    +0.000 A 
ATOM     44  C   UNL     1      -2.904  -3.251   0.000  0.00  0.00    +0.000 A 
ATOM     45  N   UNL     1      -1.824  -4.035   0.000  0.00  0.00    +0.000 N 
ATOM     46  C   UNL     1      -3.201  -4.649   0.000  0.00  0.00    +0.000 A 
ATOM     47  C   UNL     1      -3.711  -3.079   0.000  0.00  0.00    +0.000 A 
ATOM     48  C   UNL     1      -4.008  -4.477   0.000  0.00  0.00    +0.000 A 
ATOM     49  C   UNL     1      -4.263  -3.693   0.000  0.00  0.00    +0.000 A 
ATOM     50  C   UNL     1      -1.412  -4.735   0.000  0.00  0.00    +0.000 C 
ATOM     51  O   UNL     1      -1.834  -5.444   0.000  0.00  0.00    +0.000 OA
BRANCH  50  52
ATOM     52  C   UNL     1      -0.588  -4.746   0.000  0.00  0.00    +0.000 A 
ATOM     53  C   UNL     1      -0.185  -5.466   0.000  0.00  0.00    +0.000 A 
ATOM     54  C   UNL     1       0.640  -5.477   0.000  0.00  0.00    +0.000 A 
ATOM     55  C   UNL     1       1.062  -4.768   0.000  0.00  0.00    +0.000 A 
ATOM     56  C   UNL     1       0.659  -4.048   0.000  0.00  0.00    +0.000 A 
ATOM     57  C   UNL     1      -0.166  -4.037   0.000  0.00  0.00    +0.000 A 
ATOM     58 CL   UNL     1       1.887  -4.779   0.000  0.00  0.00    +0.000 Cl
ENDBRANCH  50  52
BRANCH  49  59
ATOM     59  O   UNL     1      -5.070  -3.521   0.000  0.00  0.00    +0.000 OA
ATOM     60  C   UNL     1      -5.622  -4.134   0.000  0.00  0.00    +0.000 C 
ENDBRANCH  49  59
ENDBRANCH  39  40
ENDBRANCH  37  39
ENDBRANCH  36  37
ENDBRANCH  35  36
ENDBRANCH  34  35
ENDBRANCH   1  34
TORSDOF 23
