REMARK  Name = 
REMARK  2 active torsions:
REMARK  status: ('A' for Active; 'I' for Inactive)
REMARK    1  A    between atoms: C_6  and  C_7
REMARK    2  A    between atoms: C_11  and  C_15
REMARK                            x       y       z     vdW  Elec       q    Type
REMARK                         _______ _______ _______ _____ _____    ______ ____
ROOT
ATOM      1  N   UNL     1      -1.200  -1.172   0.000  0.00  0.00    +0.000 NA
ATOM      2  N   UNL     1      -1.752  -0.559   0.000  0.00  0.00    +0.000 NA
ATOM      3  C   UNL     1      -0.446  -0.836   0.000  0.00  0.00    +0.000 A 
ATOM      4  C   UNL     1      -1.339   0.156   0.000  0.00  0.00    +0.000 A 
ATOM      5  C   UNL     1      -0.532  -0.016   0.000  0.00  0.00    +0.000 A 
ENDROOT
BRANCH   3   8
ATOM      6  O   UNL     1       2.478  -0.997   0.000  0.00  0.00    +0.000 OA
ATOM      7  O   UNL     1       2.478  -2.325   0.000  0.00  0.00    +0.000 OA
ATOM      8  C   UNL     1       0.268  -1.249   0.000  0.00  0.00    +0.000 A 
ATOM      9  C   UNL     1       1.697  -1.249   0.000  0.00  0.00    +0.000 A 
ATOM     10  C   UNL     1       0.983  -0.836   0.000  0.00  0.00    +0.000 A 
ATOM     11  C   UNL     1       1.697  -2.074   0.000  0.00  0.00    +0.000 A 
ATOM     12  C   UNL     1       0.268  -2.074   0.000  0.00  0.00    +0.000 A 
ATOM     13  C   UNL     1       0.983  -2.486   0.000  0.00  0.00    +0.000 A 
ATOM     14  C   UNL     1       2.959  -1.661   0.000  0.00  0.00    +0.000 C 
ENDBRANCH   3   8
BRANCH   4  16
ATOM     15 BR   UNL     1      -1.040   2.998   0.000  0.00  0.00    +0.000 Br
ATOM     16  C   UNL     1      -1.675   0.909   0.000  0.00  0.00    +0.000 A 
ATOM     17  C   UNL     1      -1.190   1.577   0.000  0.00  0.00    +0.000 A 
ATOM     18  C   UNL     1      -2.495   0.996   0.000  0.00  0.00    +0.000 A 
ATOM     19  C   UNL     1      -1.526   2.330   0.000  0.00  0.00    +0.000 A 
ATOM     20  C   UNL     1      -2.831   1.749   0.000  0.00  0.00    +0.000 A 
ATOM     21  C   UNL     1      -2.346   2.417   0.000  0.00  0.00    +0.000 A 
ENDBRANCH   4  16
TORSDOF 2
