REMARK  Name = 
REMARK  5 active torsions:
REMARK  status: ('A' for Active; 'I' for Inactive)
REMARK    1  A    between atoms: C_11  and  C_12
REMARK    2  A    between atoms: C_11  and  N_26
REMARK    3  A    between atoms: C_13  and  N_21
REMARK    4  A    between atoms: C_16  and  N_24
REMARK    5  A    between atoms: C_17  and  C_18
REMARK                            x       y       z     vdW  Elec       q    Type
REMARK                         _______ _______ _______ _____ _____    ______ ____
ROOT
ATOM      1  C   UNL     1       1.796   1.657   0.000  0.00  0.00    +0.000 A 
ATOM      2  C   UNL     1       1.081   2.069   0.000  0.00  0.00    +0.000 A 
ATOM      3  C   UNL     1       1.081   0.419   0.000  0.00  0.00    +0.000 A 
ATOM      4  C   UNL     1       1.796   0.832   0.000  0.00  0.00    +0.000 A 
ATOM      5  C   UNL     1       0.367   1.657   0.000  0.00  0.00    +0.000 A 
ATOM      6  C   UNL     1       0.367   0.832   0.000  0.00  0.00    +0.000 A 
ATOM      7  C   UNL     1      -0.903   1.244   0.000  0.00  0.00    +0.000 A 
ATOM      8  N   UNL     1      -0.418   1.912   0.000  0.00  0.00    +0.000 NA
ATOM      9  N   UNL     1      -0.418   0.577   0.000  0.00  0.00    +0.000 NA
ENDROOT
BRANCH   7  12
ATOM     10  C   UNL     1      -2.997   0.832   0.000  0.00  0.00    +0.000 A 
ATOM     11  C   UNL     1      -2.213   0.577   0.000  0.00  0.00    +0.000 A 
ATOM     12  C   UNL     1      -1.728   1.244   0.000  0.00  0.00    +0.000 A 
ATOM     13  N   UNL     1      -2.997   1.657   0.000  0.00  0.00    +0.000 NA
ATOM     14  N   UNL     1      -2.213   1.912   0.000  0.00  0.00    +0.000 NA
BRANCH  11  17
ATOM     15  C   UNL     1      -2.510  -0.821   0.000  0.00  0.00    +0.000 C 
ATOM     16  N   UNL     1      -3.317  -0.649   0.000  0.00  0.00    +0.000 NA
ATOM     17  N   UNL     1      -1.958  -0.208   0.000  0.00  0.00    +0.000 NA
ATOM     18  O   UNL     1      -2.255  -1.605   0.000  0.00  0.00    +0.000 OA
BRANCH  16  21
ATOM     19  C   UNL     1      -4.654  -1.517   0.000  0.00  0.00    +0.000 C 
ATOM     20  C   UNL     1      -4.040  -2.069   0.000  0.00  0.00    +0.000 C 
ATOM     21  C   UNL     1      -3.869  -1.262   0.000  0.00  0.00    +0.000 C 
ENDBRANCH  16  21
ENDBRANCH  11  17
ENDBRANCH   7  12
BRANCH   4  22
ATOM     22  C   UNL     1       2.510   0.419   0.000  0.00  0.00    +0.000 C 
BRANCH  22  27
ATOM     23  C   UNL     1       3.939   0.419   0.000  0.00  0.00    +0.000 C 
ATOM     24  C   UNL     1       3.224   1.657   0.000  0.00  0.00    +0.000 C 
ATOM     25  C   UNL     1       4.654   0.832   0.000  0.00  0.00    +0.000 C 
ATOM     26  C   UNL     1       3.939   2.069   0.000  0.00  0.00    +0.000 C 
ATOM     27  N   UNL     1       3.224   0.832   0.000  0.00  0.00    +0.000 NA
ATOM     28  O   UNL     1       4.654   1.657   0.000  0.00  0.00    +0.000 OA
ENDBRANCH  22  27
ENDBRANCH   4  22
TORSDOF 5
