REMARK  Name = 
REMARK  6 active torsions:
REMARK  status: ('A' for Active; 'I' for Inactive)
REMARK    1  A    between atoms: C_4  and  C_6
REMARK    2  A    between atoms: C_9  and  C_10
REMARK    3  A    between atoms: C_10  and  N_11
REMARK    4  A    between atoms: N_14  and  C_17
REMARK    5  A    between atoms: N_25  and  C_26
REMARK    6  A    between atoms: C_26  and  C_27
REMARK                            x       y       z     vdW  Elec       q    Type
REMARK                         _______ _______ _______ _____ _____    ______ ____
ROOT
ATOM      1  C   UNL     1       1.737  -0.619   0.000  0.00  0.00    +0.000 A 
ATOM      2  C   UNL     1       1.742  -1.445   0.000  0.00  0.00    +0.000 A 
ATOM      3  N   UNL     1       0.957  -1.704   0.000  0.00  0.00    +0.000 NA
ATOM      4  C   UNL     1       0.469  -1.036   0.000  0.00  0.00    +0.000 A 
ATOM      5  C   UNL     1       0.953  -0.369   0.000  0.00  0.00    +0.000 A 
ATOM      6  N   UNL     1       2.455  -1.858   0.000  0.00  0.00    +0.000 NA
ATOM      7  C   UNL     1       3.172  -1.445   0.000  0.00  0.00    +0.000 A 
ATOM      8  N   UNL     1       3.172  -0.615   0.000  0.00  0.00    +0.000 NA
ATOM      9  C   UNL     1       2.455  -0.202   0.000  0.00  0.00    +0.000 A 
ATOM     10  N   UNL     1       2.451   0.619   0.000  0.00  0.00    +0.000 NA
ENDROOT
BRANCH   4  11
ATOM     11  C   UNL     1      -0.357  -1.032   0.000  0.00  0.00    +0.000 A 
ATOM     12  C   UNL     1      -0.774  -1.742   0.000  0.00  0.00    +0.000 A 
ATOM     13  C   UNL     1      -1.600  -1.737   0.000  0.00  0.00    +0.000 A 
ATOM     14  C   UNL     1      -2.013  -1.011   0.000  0.00  0.00    +0.000 A 
ATOM     15  C   UNL     1      -1.591  -0.298   0.000  0.00  0.00    +0.000 A 
ATOM     16  C   UNL     1      -0.765  -0.306   0.000  0.00  0.00    +0.000 A 
BRANCH  14  17
ATOM     17  C   UNL     1      -2.834  -1.007   0.000  0.00  0.00    +0.000 C 
BRANCH  17  18
ATOM     18  N   UNL     1      -3.243  -0.294   0.000  0.00  0.00    +0.000 NA
ATOM     19  C   UNL     1      -2.830   0.419   0.000  0.00  0.00    +0.000 C 
ATOM     20  C   UNL     1      -3.235   1.128   0.000  0.00  0.00    +0.000 C 
ATOM     21  N   UNL     1      -4.057   1.137   0.000  0.00  0.00    +0.000 NA
ATOM     22  C   UNL     1      -4.474   0.428   0.000  0.00  0.00    +0.000 C 
ATOM     23  C   UNL     1      -4.065  -0.290   0.000  0.00  0.00    +0.000 C 
BRANCH  21  24
ATOM     24  C   UNL     1      -4.470   1.850   0.000  0.00  0.00    +0.000 C 
ATOM     25  C   UNL     1      -5.295   1.850   0.000  0.00  0.00    +0.000 C 
ENDBRANCH  21  24
ENDBRANCH  17  18
ENDBRANCH  14  17
ENDBRANCH   4  11
BRANCH  10  26
ATOM     26  C   UNL     1       3.160   1.032   0.000  0.00  0.00    +0.000 C 
ATOM     27  C   UNL     1       3.156   1.858   0.000  0.00  0.00    +0.000 C 
BRANCH  26  28
ATOM     28  C   UNL     1       3.873   0.624   0.000  0.00  0.00    +0.000 A 
ATOM     29  C   UNL     1       3.869  -0.198   0.000  0.00  0.00    +0.000 A 
ATOM     30  C   UNL     1       4.582  -0.607   0.000  0.00  0.00    +0.000 A 
ATOM     31  C   UNL     1       5.295  -0.194   0.000  0.00  0.00    +0.000 A 
ATOM     32  C   UNL     1       5.291   0.632   0.000  0.00  0.00    +0.000 A 
ATOM     33  C   UNL     1       4.578   1.037   0.000  0.00  0.00    +0.000 A 
ENDBRANCH  26  28
ENDBRANCH  10  26
TORSDOF 6
