REMARK  Name = 
REMARK  4 active torsions:
REMARK  status: ('A' for Active; 'I' for Inactive)
REMARK    1  A    between atoms: C_2  and  N_3
REMARK    2  A    between atoms: N_6  and  C_7
REMARK    3  A    between atoms: C_10  and  C_13
REMARK    4  A    between atoms: N_28  and  C_30
REMARK                            x       y       z     vdW  Elec       q    Type
REMARK                         _______ _______ _______ _____ _____    ______ ____
ROOT
ATOM      1  C   UNL     1      -0.715  -1.238   0.000  0.00  0.00    +0.000 A 
ATOM      2  N   UNL     1       0.000  -1.650   0.000  0.00  0.00    +0.000 NA
ATOM      3  C   UNL     1       0.715  -1.238   0.000  0.00  0.00    +0.000 A 
ATOM      4  C   UNL     1       0.715  -0.412   0.000  0.00  0.00    +0.000 A 
ATOM      5  C   UNL     1       0.000   0.000   0.000  0.00  0.00    +0.000 A 
ATOM      6  N   UNL     1      -0.715  -0.412   0.000  0.00  0.00    +0.000 NA
ATOM      7  N   UNL     1       0.000   0.825   0.000  0.00  0.00    +0.000 N 
ATOM      8  C   UNL     1      -0.715   1.238   0.000  0.00  0.00    +0.000 C 
ATOM      9  C   UNL     1      -0.715   2.062   0.000  0.00  0.00    +0.000 C 
ATOM     10  O   UNL     1       0.000   2.475   0.000  0.00  0.00    +0.000 OA
ATOM     11  C   UNL     1       0.715   2.062   0.000  0.00  0.00    +0.000 C 
ATOM     12  C   UNL     1       0.715   1.238   0.000  0.00  0.00    +0.000 C 
ATOM     13  C   UNL     1       1.429   0.825   0.000  0.00  0.00    +0.000 C 
ATOM     14  C   UNL     1       1.429   0.000   0.000  0.00  0.00    +0.000 C 
ATOM     15  C   UNL     1       2.143  -0.412   0.000  0.00  0.00    +0.000 C 
ATOM     16  N   UNL     1       2.143  -1.238   0.000  0.00  0.00    +0.000 NA
ATOM     17  C   UNL     1       1.429  -1.650   0.000  0.00  0.00    +0.000 C 
ENDROOT
BRANCH   1  21
ATOM     18  C   UNL     1      -2.858  -2.475   0.000  0.00  0.00    +0.000 A 
ATOM     19  C   UNL     1      -2.858  -1.650   0.000  0.00  0.00    +0.000 A 
ATOM     20  C   UNL     1      -2.143  -1.238   0.000  0.00  0.00    +0.000 A 
ATOM     21  C   UNL     1      -1.429  -1.650   0.000  0.00  0.00    +0.000 A 
ATOM     22  C   UNL     1      -1.429  -2.475   0.000  0.00  0.00    +0.000 A 
ATOM     23  C   UNL     1      -2.143  -2.888   0.000  0.00  0.00    +0.000 A 
BRANCH  18  27
ATOM     24  N   UNL     1      -4.287  -4.125   0.000  0.00  0.00    +0.000 NA
ATOM     25  C   UNL     1      -3.572  -3.712   0.000  0.00  0.00    +0.000 C 
ATOM     26  O   UNL     1      -2.858  -4.125   0.000  0.00  0.00    +0.000 OA
ATOM     27  N   UNL     1      -3.572  -2.888   0.000  0.00  0.00    +0.000 NA
BRANCH  24  29
ATOM     28  C   UNL     1      -5.001  -5.362   0.000  0.00  0.00    +0.000 C 
ATOM     29  C   UNL     1      -4.287  -4.950   0.000  0.00  0.00    +0.000 C 
ENDBRANCH  24  29
ENDBRANCH  18  27
ENDBRANCH   1  21
BRANCH  16  30
ATOM     30  C   UNL     1       2.858  -1.650   0.000  0.00  0.00    +0.000 C 
ATOM     31  C   UNL     1       3.655  -1.437   0.000  0.00  0.00    +0.000 C 
ATOM     32  O   UNL     1       3.868  -2.233   0.000  0.00  0.00    +0.000 OA
ATOM     33  C   UNL     1       3.071  -2.447   0.000  0.00  0.00    +0.000 C 
ENDBRANCH  16  30
TORSDOF 4
