REMARK  Name = 
REMARK  11 active torsions:
REMARK  status: ('A' for Active; 'I' for Inactive)
REMARK    1  A    between atoms: C_2  and  C_3
REMARK    2  A    between atoms: C_3  and  C_4
REMARK    3  A    between atoms: C_4  and  C_5
REMARK    4  A    between atoms: C_5  and  C_6
REMARK    5  A    between atoms: C_6  and  C_7
REMARK    6  A    between atoms: C_7  and  C_8
REMARK    7  A    between atoms: C_8  and  C_9
REMARK    8  A    between atoms: C_9  and  C_10
REMARK    9  A    between atoms: C_10  and  C_11
REMARK   10  A    between atoms: C_11  and  C_12
REMARK   11  A    between atoms: C_12  and  N_13
REMARK                            x       y       z     vdW  Elec       q    Type
REMARK                         _______ _______ _______ _____ _____    ______ ____
ROOT
ATOM      1  C   UNL     1       8.283  -8.146   0.000  0.00  0.00    +0.000 C 
ENDROOT
BRANCH   1   2
ATOM      2  C   UNL     1       7.569  -8.559   0.000  0.00  0.00    +0.000 C 
BRANCH   2   3
ATOM      3  C   UNL     1       6.854  -8.146   0.000  0.00  0.00    +0.000 C 
BRANCH   3   4
ATOM      4  C   UNL     1       6.140  -8.559   0.000  0.00  0.00    +0.000 C 
BRANCH   4   5
ATOM      5  C   UNL     1       5.425  -8.146   0.000  0.00  0.00    +0.000 C 
BRANCH   5   6
ATOM      6  C   UNL     1       4.711  -8.559   0.000  0.00  0.00    +0.000 C 
BRANCH   6   7
ATOM      7  C   UNL     1       3.996  -8.146   0.000  0.00  0.00    +0.000 C 
BRANCH   7   8
ATOM      8  C   UNL     1       3.282  -8.559   0.000  0.00  0.00    +0.000 C 
BRANCH   8  10
ATOM      9  C   UNL     1       1.853  -8.559   0.000  0.00  0.00    +0.000 C 
ATOM     10  C   UNL     1       2.567  -8.146   0.000  0.00  0.00    +0.000 C 
ENDBRANCH   8  10
ENDBRANCH   7   8
ENDBRANCH   6   7
ENDBRANCH   5   6
ENDBRANCH   4   5
ENDBRANCH   3   4
ENDBRANCH   2   3
ENDBRANCH   1   2
BRANCH   1  11
ATOM     11  C   UNL     1       8.998  -8.559   0.000  0.00  0.00    +0.000 C 
BRANCH  11  12
ATOM     12  C   UNL     1       9.712  -8.146   0.000  0.00  0.00    +0.000 C 
BRANCH  12  13
ATOM     13  N   UNL     1      10.427  -8.559   0.000  0.00  0.00    +0.000 N 
ATOM     14  C   UNL     1      11.108  -8.094   0.000  0.00  0.00    +0.000 C 
ATOM     15  C   UNL     1      11.896  -8.337   0.000  0.00  0.00    +0.000 C 
ATOM     16  C   UNL     1      12.198  -9.105   0.000  0.00  0.00    +0.000 C 
ATOM     17  C   UNL     1      11.786  -9.819   0.000  0.00  0.00    +0.000 C 
ATOM     18  C   UNL     1      10.970  -9.942   0.000  0.00  0.00    +0.000 C 
ATOM     19  C   UNL     1      10.365  -9.381   0.000  0.00  0.00    +0.000 C 
ATOM     20  O   UNL     1       9.597  -9.683   0.000  0.00  0.00    +0.000 OA
ENDBRANCH  12  13
ENDBRANCH  11  12
ENDBRANCH   1  11
TORSDOF 11
