REMARK  Name = 
REMARK  7 active torsions:
REMARK  status: ('A' for Active; 'I' for Inactive)
REMARK    1  A    between atoms: C_3  and  C_5
REMARK    2  A    between atoms: C_8  and  N_11
REMARK    3  A    between atoms: C_15  and  C_32
REMARK    4  A    between atoms: N_18  and  C_19
REMARK    5  A    between atoms: C_19  and  C_20
REMARK    6  A    between atoms: C_21  and  N_26
REMARK    7  A    between atoms: N_26  and  S_28
REMARK                            x       y       z     vdW  Elec       q    Type
REMARK                         _______ _______ _______ _____ _____    ______ ____
ROOT
ATOM      1  N   UNL     1       0.000  -7.425   0.000  0.00  0.00    +0.000 NA
ATOM      2  C   UNL     1      -0.715  -7.838   0.000  0.00  0.00    +0.000 A 
ATOM      3  N   UNL     1      -1.429  -7.425   0.000  0.00  0.00    +0.000 NA
ATOM      4  C   UNL     1      -2.143  -7.838   0.000  0.00  0.00    +0.000 A 
ATOM      5  C   UNL     1      -2.143  -8.662   0.000  0.00  0.00    +0.000 A 
ATOM      6  C   UNL     1      -1.429  -9.075   0.000  0.00  0.00    +0.000 A 
ATOM      7  N   UNL     1      -0.715  -8.662   0.000  0.00  0.00    +0.000 NA
ATOM      8  N   UNL     1      -1.429  -9.900   0.000  0.00  0.00    +0.000 NA
ENDROOT
BRANCH   1  12
ATOM      9  C   UNL     1       0.000  -4.950   0.000  0.00  0.00    +0.000 A 
ATOM     10  C   UNL     1       0.715  -5.362   0.000  0.00  0.00    +0.000 A 
ATOM     11  C   UNL     1       0.715  -6.188   0.000  0.00  0.00    +0.000 A 
ATOM     12  C   UNL     1       0.000  -6.600   0.000  0.00  0.00    +0.000 A 
ATOM     13  C   UNL     1      -0.715  -6.188   0.000  0.00  0.00    +0.000 A 
ATOM     14  C   UNL     1      -0.715  -5.362   0.000  0.00  0.00    +0.000 A 
BRANCH   9  17
ATOM     15  C   UNL     1      -0.715  -2.888   0.000  0.00  0.00    +0.000 C 
ATOM     16  N   UNL     1      -0.715  -3.712   0.000  0.00  0.00    +0.000 NA
ATOM     17  C   UNL     1       0.000  -4.125   0.000  0.00  0.00    +0.000 C 
ATOM     18  O   UNL     1       0.715  -3.712   0.000  0.00  0.00    +0.000 OA
ENDBRANCH   9  17
ENDBRANCH   1  12
BRANCH   5  19
ATOM     19  C   UNL     1      -2.858  -9.075   0.000  0.00  0.00    +0.000 C 
ATOM     20  F   UNL     1      -3.572  -9.488   0.000  0.00  0.00    +0.000 F 
ATOM     21  F   UNL     1      -2.445  -9.790   0.000  0.00  0.00    +0.000 F 
ATOM     22  F   UNL     1      -3.270  -8.361   0.000  0.00  0.00    +0.000 F 
ENDBRANCH   5  19
BRANCH   8  23
ATOM     23  C   UNL     1      -0.715 -10.312   0.000  0.00  0.00    +0.000 C 
BRANCH  23  24
ATOM     24  C   UNL     1      -0.715 -11.137   0.000  0.00  0.00    +0.000 A 
ATOM     25  C   UNL     1       0.000 -11.550   0.000  0.00  0.00    +0.000 A 
ATOM     26  N   UNL     1       0.000 -12.375   0.000  0.00  0.00    +0.000 NA
ATOM     27  C   UNL     1      -0.715 -12.787   0.000  0.00  0.00    +0.000 A 
ATOM     28  C   UNL     1      -1.429 -12.375   0.000  0.00  0.00    +0.000 A 
ATOM     29  N   UNL     1      -1.429 -11.550   0.000  0.00  0.00    +0.000 NA
BRANCH  25  30
ATOM     30  N   UNL     1       0.715 -11.137   0.000  0.00  0.00    +0.000 N 
ATOM     31  C   UNL     1       1.429 -11.550   0.000  0.00  0.00    +0.000 C 
BRANCH  30  32
ATOM     32  S   UNL     1       0.715 -10.312   0.000  0.00  0.00    +0.000 S 
ATOM     33  O   UNL     1       0.715  -9.488   0.000  0.00  0.00    +0.000 OA
ATOM     34  O   UNL     1       1.540 -10.312   0.000  0.00  0.00    +0.000 OA
ATOM     35  C   UNL     1      -0.111 -10.312   0.000  0.00  0.00    +0.000 C 
ENDBRANCH  30  32
ENDBRANCH  25  30
ENDBRANCH  23  24
ENDBRANCH   8  23
TORSDOF 7
