REMARK  Name = 
REMARK  4 active torsions:
REMARK  status: ('A' for Active; 'I' for Inactive)
REMARK    1  A    between atoms: C_1  and  C_4
REMARK    2  A    between atoms: C_1  and  O_19
REMARK    3  A    between atoms: C_10  and  N_15
REMARK    4  A    between atoms: O_19  and  P_21
REMARK                            x       y       z     vdW  Elec       q    Type
REMARK                         _______ _______ _______ _____ _____    ______ ____
ROOT
ATOM      1  C   UNL     1      -0.248  -1.440   0.000  0.00  0.00    +0.000 C 
ATOM      2  C   UNL     1       0.536  -1.695   0.000  0.00  0.00    +0.000 C 
ATOM      3  C   UNL     1       1.021  -1.028   0.000  0.00  0.00    +0.000 C 
ATOM      4  C   UNL     1       0.536  -0.360   0.000  0.00  0.00    +0.000 C 
ATOM      5  O   UNL     1       0.791  -2.480   0.000  0.00  0.00    +0.000 OA
ATOM      6  O   UNL     1       1.846  -1.028   0.000  0.00  0.00    +0.000 OA
ATOM      7  O   UNL     1      -0.248  -0.615   0.000  0.00  0.00    +0.000 OA
ENDROOT
BRANCH   4  17
ATOM      8  C   UNL     1       3.005   0.679   0.000  0.00  0.00    +0.000 A 
ATOM      9  C   UNL     1       0.306   1.092   0.000  0.00  0.00    +0.000 A 
ATOM     10  C   UNL     1       1.576   1.504   0.000  0.00  0.00    +0.000 A 
ATOM     11  C   UNL     1       2.290   1.917   0.000  0.00  0.00    +0.000 A 
ATOM     12  C   UNL     1       1.576   0.679   0.000  0.00  0.00    +0.000 A 
ATOM     13  N   UNL     1       2.290   2.742   0.000  0.00  0.00    +0.000 NA
ATOM     14  N   UNL     1       3.005   1.504   0.000  0.00  0.00    +0.000 NA
ATOM     15  N   UNL     1       2.290   0.267   0.000  0.00  0.00    +0.000 NA
ATOM     16  N   UNL     1       0.791   1.759   0.000  0.00  0.00    +0.000 NA
ATOM     17  N   UNL     1       0.791   0.424   0.000  0.00  0.00    +0.000 N 
ENDBRANCH   4  17
BRANCH   1  18
ATOM     18  C   UNL     1      -0.916  -1.925   0.000  0.00  0.00    +0.000 C 
BRANCH  18  19
ATOM     19  O   UNL     1      -1.670  -1.589   0.000  0.00  0.00    +0.000 OA
BRANCH  19  21
ATOM     20  O   UNL     1      -3.005  -2.559   0.000  0.00  0.00    +0.000 OA
ATOM     21  P   UNL     1      -2.337  -2.074   0.000  0.00  0.00    +0.000 P 
ATOM     22  S   UNL     1      -2.822  -1.407   0.000  0.00  0.00    +0.000 S 
ATOM     23  S   UNL     1      -1.852  -2.742   0.000  0.00  0.00    +0.000 S 
ENDBRANCH  19  21
ENDBRANCH  18  19
ENDBRANCH   1  18
TORSDOF 4
