REMARK  Name = 
REMARK  3 active torsions:
REMARK  status: ('A' for Active; 'I' for Inactive)
REMARK    1  A    between atoms: C_11  and  O_20
REMARK    2  A    between atoms: C_12  and  O_20
REMARK    3  A    between atoms: C_14  and  S_21
REMARK                            x       y       z     vdW  Elec       q    Type
REMARK                         _______ _______ _______ _____ _____    ______ ____
ROOT
ATOM      1  C   UNL     1       1.356   0.698   0.000  0.00  0.00    +0.000 A 
ATOM      2  C   UNL     1       1.356   2.348   0.000  0.00  0.00    +0.000 A 
ATOM      3  C   UNL     1       2.070   1.110   0.000  0.00  0.00    +0.000 A 
ATOM      4  C   UNL     1       0.641   1.110   0.000  0.00  0.00    +0.000 A 
ATOM      5  C   UNL     1       0.641   1.935   0.000  0.00  0.00    +0.000 A 
ATOM      6  C   UNL     1       2.070   1.935   0.000  0.00  0.00    +0.000 A 
ATOM      7  C   UNL     1      -0.628   1.523   0.000  0.00  0.00    +0.000 A 
ATOM      8 CL   UNL     1       2.784   0.698   0.000  0.00  0.00    +0.000 Cl
ATOM      9  N   UNL     1      -0.143   0.856   0.000  0.00  0.00    +0.000 NA
ATOM     10  N   UNL     1      -0.143   2.190   0.000  0.00  0.00    +0.000 NA
ENDROOT
BRANCH   7  12
ATOM     11  C   UNL     1      -1.866   0.808   0.000  0.00  0.00    +0.000 C 
ATOM     12  S   UNL     1      -1.453   1.523   0.000  0.00  0.00    +0.000 S 
ENDBRANCH   7  12
BRANCH   6  13
ATOM     13  O   UNL     1       2.784   2.348   0.000  0.00  0.00    +0.000 OA
BRANCH  13  18
ATOM     14  C   UNL     1       3.499   4.410   0.000  0.00  0.00    +0.000 A 
ATOM     15  C   UNL     1       2.784   4.823   0.000  0.00  0.00    +0.000 A 
ATOM     16  C   UNL     1       3.499   3.585   0.000  0.00  0.00    +0.000 A 
ATOM     17  C   UNL     1       2.070   4.410   0.000  0.00  0.00    +0.000 A 
ATOM     18  C   UNL     1       2.784   3.173   0.000  0.00  0.00    +0.000 A 
ATOM     19  C   UNL     1       2.070   3.585   0.000  0.00  0.00    +0.000 A 
ATOM     20 CL   UNL     1       1.356   4.823   0.000  0.00  0.00    +0.000 Cl
ATOM     21 CL   UNL     1       1.356   3.173   0.000  0.00  0.00    +0.000 Cl
ENDBRANCH  13  18
ENDBRANCH   6  13
TORSDOF 3
