REMARK  Name = 
REMARK  4 active torsions:
REMARK  status: ('A' for Active; 'I' for Inactive)
REMARK    1  A    between atoms: C_10  and  C_13
REMARK    2  A    between atoms: C_10  and  N_14
REMARK    3  A    between atoms: C_11  and  C_13
REMARK    4  A    between atoms: C_12  and  N_15
REMARK                            x       y       z     vdW  Elec       q    Type
REMARK                         _______ _______ _______ _____ _____    ______ ____
ROOT
ATOM      1  C   UNL     1       2.143   2.062   0.000  0.00  0.00    +0.000 C 
ATOM      2  C   UNL     1       3.572   2.062   0.000  0.00  0.00    +0.000 C 
ATOM      3  C   UNL     1       2.143   1.238   0.000  0.00  0.00    +0.000 C 
ATOM      4  C   UNL     1       3.572   1.238   0.000  0.00  0.00    +0.000 C 
ATOM      5  N   UNL     1       2.858   2.475   0.000  0.00  0.00    +0.000 NA
ATOM      6  N   UNL     1       2.858   0.825   0.000  0.00  0.00    +0.000 N 
ENDROOT
BRANCH   6  12
ATOM      7  C   UNL     1       2.858  -1.650   0.000  0.00  0.00    +0.000 A 
ATOM      8  C   UNL     1       3.572  -1.238   0.000  0.00  0.00    +0.000 A 
ATOM      9  C   UNL     1       2.143  -1.238   0.000  0.00  0.00    +0.000 A 
ATOM     10  C   UNL     1       3.572  -0.412   0.000  0.00  0.00    +0.000 A 
ATOM     11  C   UNL     1       2.143  -0.412   0.000  0.00  0.00    +0.000 A 
ATOM     12  C   UNL     1       2.858   0.000   0.000  0.00  0.00    +0.000 A 
ENDBRANCH   6  12
BRANCH   5  13
ATOM     13  C   UNL     1       2.858   3.300   0.000  0.00  0.00    +0.000 C 
BRANCH  13  14
ATOM     14  C   UNL     1       2.143   3.712   0.000  0.00  0.00    +0.000 C 
ATOM     15  O   UNL     1       1.429   3.300   0.000  0.00  0.00    +0.000 OA
BRANCH  14  16
ATOM     16  C   UNL     1       2.143   4.537   0.000  0.00  0.00    +0.000 C 
ATOM     17  O   UNL     1       1.429   4.950   0.000  0.00  0.00    +0.000 OA
ENDBRANCH  14  16
ENDBRANCH  13  14
ENDBRANCH   5  13
TORSDOF 4
