REMARK  Name = 
REMARK  7 active torsions:
REMARK  status: ('A' for Active; 'I' for Inactive)
REMARK    1  A    between atoms: N_2  and  C_4
REMARK    2  A    between atoms: C_4  and  C_5
REMARK    3  A    between atoms: C_5  and  C_6
REMARK    4  A    between atoms: C_5  and  C_22
REMARK    5  A    between atoms: C_9  and  O_10
REMARK    6  A    between atoms: O_10  and  C_11
REMARK    7  A    between atoms: C_11  and  C_13
REMARK                            x       y       z     vdW  Elec       q    Type
REMARK                         _______ _______ _______ _____ _____    ______ ____
ROOT
ATOM      1  C   UNL     1       0.749  -1.770   0.000  0.00  0.00    +0.000 A 
ATOM      2  C   UNL     1       1.463  -2.183   0.000  0.00  0.00    +0.000 A 
ATOM      3  C   UNL     1       1.463  -3.007   0.000  0.00  0.00    +0.000 A 
ATOM      4  C   UNL     1       0.749  -3.420   0.000  0.00  0.00    +0.000 A 
ATOM      5  C   UNL     1       0.034  -3.007   0.000  0.00  0.00    +0.000 A 
ATOM      6  C   UNL     1       0.034  -2.183   0.000  0.00  0.00    +0.000 A 
ENDROOT
BRANCH   1   7
ATOM      7  C   UNL     1       0.749  -0.945   0.000  0.00  0.00    +0.000 C 
BRANCH   7   8
ATOM      8  C   UNL     1       1.463  -0.532   0.000  0.00  0.00    +0.000 C 
ATOM      9  O   UNL     1       1.745  -1.308   0.000  0.00  0.00    +0.000 OA
ATOM     10  C   UNL     1       0.933   0.100   0.000  0.00  0.00    +0.000 C 
ATOM     11  C   UNL     1       1.215   0.875   0.000  0.00  0.00    +0.000 C 
ATOM     12  C   UNL     1       2.027   1.018   0.000  0.00  0.00    +0.000 C 
ATOM     13  C   UNL     1       2.558   0.386   0.000  0.00  0.00    +0.000 C 
ATOM     14  C   UNL     1       2.275  -0.389   0.000  0.00  0.00    +0.000 C 
ENDBRANCH   7   8
BRANCH   7  15
ATOM     15  C   UNL     1       0.034  -0.532   0.000  0.00  0.00    +0.000 C 
BRANCH  15  17
ATOM     16  C   UNL     1      -0.680   0.705   0.000  0.00  0.00    +0.000 C 
ATOM     17  N   UNL     1       0.034   0.292   0.000  0.00  0.00    +0.000 NA
ATOM     18  C   UNL     1       0.749   0.705   0.000  0.00  0.00    +0.000 C 
ENDBRANCH  15  17
ENDBRANCH   7  15
ENDBRANCH   1   7
BRANCH   4  19
ATOM     19  O   UNL     1       0.749  -4.245   0.000  0.00  0.00    +0.000 OA
BRANCH  19  20
ATOM     20  C   UNL     1       0.034  -4.657   0.000  0.00  0.00    +0.000 C 
ATOM     21  O   UNL     1      -0.680  -4.245   0.000  0.00  0.00    +0.000 OA
BRANCH  20  22
ATOM     22  C   UNL     1       0.034  -5.482   0.000  0.00  0.00    +0.000 A 
ATOM     23  C   UNL     1       0.749  -5.895   0.000  0.00  0.00    +0.000 A 
ATOM     24  C   UNL     1       0.749  -6.720   0.000  0.00  0.00    +0.000 A 
ATOM     25  C   UNL     1       0.034  -7.133   0.000  0.00  0.00    +0.000 A 
ATOM     26  C   UNL     1       0.034  -7.957   0.000  0.00  0.00    +0.000 C 
ATOM     27  C   UNL     1      -0.680  -6.720   0.000  0.00  0.00    +0.000 A 
ATOM     28  C   UNL     1      -0.680  -5.895   0.000  0.00  0.00    +0.000 A 
ENDBRANCH  20  22
ENDBRANCH  19  20
ENDBRANCH   4  19
TORSDOF 7
