REMARK  Name = 
REMARK  7 active torsions:
REMARK  status: ('A' for Active; 'I' for Inactive)
REMARK    1  A    between atoms: C_1  and  C_4
REMARK    2  A    between atoms: C_2  and  O_6
REMARK    3  A    between atoms: C_7  and  S_12
REMARK    4  A    between atoms: N_8  and  C_13
REMARK    5  A    between atoms: S_12  and  C_14
REMARK    6  A    between atoms: C_13  and  C_17
REMARK    7  A    between atoms: N_19  and  C_22
REMARK                            x       y       z     vdW  Elec       q    Type
REMARK                         _______ _______ _______ _____ _____    ______ ____
ROOT
ATOM      1  C   UNL     1      -0.498   0.332   0.000  0.00  0.00    +0.000 A 
ATOM      2  C   UNL     1      -0.498  -0.492   0.000  0.00  0.00    +0.000 A 
ATOM      3  C   UNL     1      -1.212   0.745   0.000  0.00  0.00    +0.000 A 
ATOM      4  C   UNL     1      -1.212  -0.905   0.000  0.00  0.00    +0.000 A 
ATOM      5  C   UNL     1      -1.927   0.332   0.000  0.00  0.00    +0.000 A 
ATOM      6  C   UNL     1      -1.927  -0.492   0.000  0.00  0.00    +0.000 A 
ENDROOT
BRANCH   1   7
ATOM      7  C   UNL     1       0.217   0.745   0.000  0.00  0.00    +0.000 C 
ATOM      8  N   UNL     1       0.931   0.332   0.000  0.00  0.00    +0.000 NA
ATOM      9  O   UNL     1       0.217   1.570   0.000  0.00  0.00    +0.000 OA
BRANCH   8  10
ATOM     10  C   UNL     1       1.646   0.745   0.000  0.00  0.00    +0.000 C 
BRANCH  10  11
ATOM     11  C   UNL     1       2.360   0.332   0.000  0.00  0.00    +0.000 C 
ATOM     12  N   UNL     1       3.114   0.668   0.000  0.00  0.00    +0.000 NA
ATOM     13  C   UNL     1       2.446  -0.488   0.000  0.00  0.00    +0.000 C 
ATOM     14  C   UNL     1       3.666   0.055   0.000  0.00  0.00    +0.000 C 
ATOM     15  C   UNL     1       3.253  -0.659   0.000  0.00  0.00    +0.000 C 
BRANCH  12  16
ATOM     16  C   UNL     1       3.285   1.475   0.000  0.00  0.00    +0.000 C 
ATOM     17  C   UNL     1       4.070   1.730   0.000  0.00  0.00    +0.000 C 
ENDBRANCH  12  16
ENDBRANCH  10  11
ENDBRANCH   8  10
ENDBRANCH   1   7
BRANCH   5  18
ATOM     18  S   UNL     1      -2.641   0.745   0.000  0.00  0.00    +0.000 S 
ATOM     19  O   UNL     1      -3.054   0.030   0.000  0.00  0.00    +0.000 OA
ATOM     20  O   UNL     1      -2.228   1.459   0.000  0.00  0.00    +0.000 OA
BRANCH  18  21
ATOM     21  C   UNL     1      -3.356   1.157   0.000  0.00  0.00    +0.000 C 
ATOM     22  C   UNL     1      -4.070   0.745   0.000  0.00  0.00    +0.000 C 
ENDBRANCH  18  21
ENDBRANCH   5  18
BRANCH   2  23
ATOM     23  O   UNL     1       0.217  -0.905   0.000  0.00  0.00    +0.000 OA
ATOM     24  C   UNL     1       0.217  -1.730   0.000  0.00  0.00    +0.000 C 
ENDBRANCH   2  23
TORSDOF 7
