REMARK  Name = 
REMARK  0 active torsions:
REMARK  status: ('A' for Active; 'I' for Inactive)
REMARK                            x       y       z     vdW  Elec       q    Type
REMARK                         _______ _______ _______ _____ _____    ______ ____
ROOT
ATOM      1  C   UNL     1       0.299   0.820   0.000  0.00  0.00    +0.000 C 
ATOM      2  C   UNL     1       0.299  -0.005   0.000  0.00  0.00    +0.000 C 
ATOM      3  C   UNL     1      -0.367   1.282   0.000  0.00  0.00    +0.000 A 
ATOM      4  C   UNL     1       0.962   1.282   0.000  0.00  0.00    +0.000 C 
ATOM      5  N   UNL     1      -0.367  -0.467   0.000  0.00  0.00    +0.000 NA
ATOM      6  C   UNL     1       0.962  -0.467   0.000  0.00  0.00    +0.000 C 
ATOM      7  C   UNL     1      -0.111   2.097   0.000  0.00  0.00    +0.000 A 
ATOM      8  C   UNL     1      -1.187   1.123   0.000  0.00  0.00    +0.000 A 
ATOM      9  N   UNL     1       0.706   2.097   0.000  0.00  0.00    +0.000 NA
ATOM     10  O   UNL     1       1.738   1.000   0.000  0.00  0.00    +0.000 OA
ATOM     11  C   UNL     1      -0.111  -1.272   0.000  0.00  0.00    +0.000 A 
ATOM     12  C   UNL     1       0.706  -1.272   0.000  0.00  0.00    +0.000 A 
ATOM     13  O   UNL     1       1.738  -0.180   0.000  0.00  0.00    +0.000 OA
ATOM     14  C   UNL     1      -0.678   2.703   0.000  0.00  0.00    +0.000 A 
ATOM     15  C   UNL     1      -1.738   1.736   0.000  0.00  0.00    +0.000 A 
ATOM     16  C   UNL     1      -0.542  -1.992   0.000  0.00  0.00    +0.000 A 
ATOM     17  C   UNL     1       1.114  -1.992   0.000  0.00  0.00    +0.000 A 
ATOM     18  C   UNL     1      -1.490   2.522   0.000  0.00  0.00    +0.000 A 
ATOM     19  C   UNL     1      -0.116  -2.703   0.000  0.00  0.00    +0.000 A 
ATOM     20  C   UNL     1       0.706  -2.703   0.000  0.00  0.00    +0.000 A 
ENDROOT
TORSDOF 0
