REMARK  Name = 
REMARK  4 active torsions:
REMARK  status: ('A' for Active; 'I' for Inactive)
REMARK    1  A    between atoms: O_2  and  C_3
REMARK    2  A    between atoms: C_5  and  C_12
REMARK    3  A    between atoms: C_7  and  O_8
REMARK    4  A    between atoms: C_23  and  C_24
REMARK                            x       y       z     vdW  Elec       q    Type
REMARK                         _______ _______ _______ _____ _____    ______ ____
ROOT
ATOM      1  C   UNL     1      -0.715  -0.412   0.000  0.00  0.00    +0.000 C 
ATOM      2  C   UNL     1      -0.715  -1.238   0.000  0.00  0.00    +0.000 C 
ATOM      3  O   UNL     1       0.000  -1.650   0.000  0.00  0.00    +0.000 OA
ATOM      4  C   UNL     1       0.715  -1.238   0.000  0.00  0.00    +0.000 A 
ATOM      5  C   UNL     1       0.715  -0.412   0.000  0.00  0.00    +0.000 A 
ATOM      6  C   UNL     1       1.429   0.000   0.000  0.00  0.00    +0.000 A 
ATOM      7  C   UNL     1       2.143  -0.412   0.000  0.00  0.00    +0.000 A 
ATOM      8  C   UNL     1       2.143  -1.238   0.000  0.00  0.00    +0.000 A 
ATOM      9  O   UNL     1       2.858  -1.650   0.000  0.00  0.00    +0.000 OA
ATOM     10  C   UNL     1       1.429  -1.650   0.000  0.00  0.00    +0.000 A 
ATOM     11  C   UNL     1       1.429  -2.475   0.000  0.00  0.00    +0.000 C 
ATOM     12  C   UNL     1       0.000   0.000   0.000  0.00  0.00    +0.000 C 
ENDROOT
BRANCH   1  15
ATOM     13  C   UNL     1      -2.143   1.238   0.000  0.00  0.00    +0.000 A 
ATOM     14  C   UNL     1      -1.429   0.825   0.000  0.00  0.00    +0.000 A 
ATOM     15  C   UNL     1      -1.429   0.000   0.000  0.00  0.00    +0.000 A 
ATOM     16  C   UNL     1      -2.143  -0.412   0.000  0.00  0.00    +0.000 A 
ATOM     17  C   UNL     1      -2.858   0.000   0.000  0.00  0.00    +0.000 A 
ATOM     18  C   UNL     1      -2.858   0.825   0.000  0.00  0.00    +0.000 A 
ATOM     19  O   UNL     1      -3.572   1.238   0.000  0.00  0.00    +0.000 OA
BRANCH  13  21
ATOM     20  C   UNL     1      -2.858   2.475   0.000  0.00  0.00    +0.000 C 
ATOM     21  O   UNL     1      -2.143   2.062   0.000  0.00  0.00    +0.000 OA
ENDBRANCH  13  21
BRANCH  17  22
ATOM     22  O   UNL     1      -3.572  -0.412   0.000  0.00  0.00    +0.000 OA
ATOM     23  C   UNL     1      -4.287   0.000   0.000  0.00  0.00    +0.000 C 
ENDBRANCH  17  22
ENDBRANCH   1  15
BRANCH  12  24
ATOM     24  C   UNL     1       0.000   0.825   0.000  0.00  0.00    +0.000 A 
ATOM     25  C   UNL     1      -0.715   1.238   0.000  0.00  0.00    +0.000 A 
ATOM     26  C   UNL     1      -0.715   2.062   0.000  0.00  0.00    +0.000 A 
ATOM     27  C   UNL     1       0.000   2.475   0.000  0.00  0.00    +0.000 A 
ATOM     28  O   UNL     1       0.000   3.300   0.000  0.00  0.00    +0.000 OA
ATOM     29  C   UNL     1       0.715   2.062   0.000  0.00  0.00    +0.000 A 
ATOM     30  C   UNL     1       0.715   1.238   0.000  0.00  0.00    +0.000 A 
ENDBRANCH  12  24
TORSDOF 4
