REMARK  Name = 
REMARK  6 active torsions:
REMARK  status: ('A' for Active; 'I' for Inactive)
REMARK    1  A    between atoms: C_2  and  C_4
REMARK    2  A    between atoms: C_2  and  O_7
REMARK    3  A    between atoms: O_7  and  C_8
REMARK    4  A    between atoms: C_8  and  C_9
REMARK    5  A    between atoms: N_16  and  C_18
REMARK    6  A    between atoms: C_18  and  C_19
REMARK                            x       y       z     vdW  Elec       q    Type
REMARK                         _______ _______ _______ _____ _____    ______ ____
ROOT
ATOM      1  C   UNL     1       1.139  -0.030   0.000  0.00  0.00    +0.000 A 
ATOM      2  C   UNL     1       1.923  -0.285   0.000  0.00  0.00    +0.000 A 
ATOM      3  C   UNL     1       2.638   0.127   0.000  0.00  0.00    +0.000 A 
ATOM      4  C   UNL     1       3.352  -0.285   0.000  0.00  0.00    +0.000 A 
ATOM      5  C   UNL     1       3.352  -1.110   0.000  0.00  0.00    +0.000 A 
ATOM      6  C   UNL     1       2.638  -1.523   0.000  0.00  0.00    +0.000 A 
ATOM      7  C   UNL     1       1.923  -1.110   0.000  0.00  0.00    +0.000 A 
ATOM      8  N   UNL     1       1.139  -1.365   0.000  0.00  0.00    +0.000 N 
ATOM      9  N   UNL     1       0.654  -0.698   0.000  0.00  0.00    +0.000 NA
ENDROOT
BRANCH   8  10
ATOM     10  C   UNL     1       0.884  -2.150   0.000  0.00  0.00    +0.000 C 
BRANCH  10  11
ATOM     11  C   UNL     1       0.077  -2.321   0.000  0.00  0.00    +0.000 A 
ATOM     12  C   UNL     1      -0.178  -3.106   0.000  0.00  0.00    +0.000 A 
ATOM     13  C   UNL     1      -0.985  -3.278   0.000  0.00  0.00    +0.000 A 
ATOM     14  C   UNL     1      -1.537  -2.665   0.000  0.00  0.00    +0.000 A 
ATOM     15  C   UNL     1      -1.282  -1.880   0.000  0.00  0.00    +0.000 A 
ATOM     16  C   UNL     1      -0.475  -1.708   0.000  0.00  0.00    +0.000 A 
ENDBRANCH  10  11
ENDBRANCH   8  10
BRANCH   1  17
ATOM     17  C   UNL     1       0.884   0.754   0.000  0.00  0.00    +0.000 C 
BRANCH  17  18
ATOM     18  O   UNL     1       1.436   1.367   0.000  0.00  0.00    +0.000 OA
BRANCH  18  20
ATOM     19  C   UNL     1       0.396   1.897   0.000  0.00  0.00    +0.000 C 
ATOM     20  C   UNL     1       1.181   2.152   0.000  0.00  0.00    +0.000 C 
ATOM     21  C   UNL     1       1.966   2.407   0.000  0.00  0.00    +0.000 C 
BRANCH  20  22
ATOM     22  C   UNL     1       0.926   2.937   0.000  0.00  0.00    +0.000 C 
ATOM     23  O   UNL     1       1.478   3.550   0.000  0.00  0.00    +0.000 OA
ATOM     24  O   UNL     1       0.119   3.108   0.000  0.00  0.00    +0.000 OA
ENDBRANCH  20  22
ENDBRANCH  18  20
ENDBRANCH  17  18
ENDBRANCH   1  17
TORSDOF 6
