REMARK  Name = 
REMARK  13 active torsions:
REMARK  status: ('A' for Active; 'I' for Inactive)
REMARK    1  A    between atoms: N_7  and  C_10
REMARK    2  A    between atoms: N_7  and  CA_11
REMARK    3  A    between atoms: N_8  and  C_18
REMARK    4  A    between atoms: C_10  and  C_13
REMARK    5  A    between atoms: C_10  and  C_15
REMARK    6  A    between atoms: CA_11  and  C_12
REMARK    7  A    between atoms: CA_11  and  C_17
REMARK    8  A    between atoms: C_12  and  C_14
REMARK    9  A    between atoms: C_13  and  C_16
REMARK   10  A    between atoms: C_14  and  C_19
REMARK   11  A    between atoms: C_18  and  C_20
REMARK   12  A    between atoms: C_18  and  C_25
REMARK   13  A    between atoms: C_20  and  C_31
REMARK                            x       y       z     vdW  Elec       q    Type
REMARK                         _______ _______ _______ _____ _____    ______ ____
ROOT
ATOM      1  C   UNL     1       0.357   0.206   0.000  0.00  0.00    +0.000 C 
ENDROOT
BRANCH   1   4
ATOM      2  O   UNL     1       1.072  -1.031   0.000  0.00  0.00    +0.000 OA
ATOM      3  N   UNL     1       1.786   0.206   0.000  0.00  0.00    +0.000 N 
ATOM      4  C   UNL     1       1.072  -0.206   0.000  0.00  0.00    +0.000 C 
ATOM      5  H   UNL     1       1.786   0.718   0.000  0.00  0.00    +0.000 HD
BRANCH   3   6
ATOM      6  C   UNL     1       2.501  -0.206   0.000  0.00  0.00    +0.000 C 
BRANCH   6   9
ATOM      7  O   UNL     1       3.929  -0.206   0.000  0.00  0.00    +0.000 OA
ATOM      8  N   UNL     1       3.215   1.031   0.000  0.00  0.00    +0.000 N 
ATOM      9  C   UNL     1       3.215   0.206   0.000  0.00  0.00    +0.000 C 
ATOM     10  H   UNL     1       2.772   1.287   0.000  0.00  0.00    +0.000 HD
ATOM     11  H   UNL     1       3.658   1.287   0.000  0.00  0.00    +0.000 HD
ENDBRANCH   6   9
BRANCH   6  12
ATOM     12  C   UNL     1       2.501  -1.031   0.000  0.00  0.00    +0.000 C 
BRANCH  12  15
ATOM     13  O   UNL     1       3.215  -2.269   0.000  0.00  0.00    +0.000 OA
ATOM     14  O   UNL     1       3.929  -1.031   0.000  0.00  0.00    +0.000 OA
ATOM     15  C   UNL     1       3.215  -1.444   0.000  0.00  0.00    +0.000 C 
ENDBRANCH  12  15
ENDBRANCH   6  12
ENDBRANCH   3   6
ENDBRANCH   1   4
BRANCH   1  16
ATOM     16  N   UNL     1       0.357   1.031   0.000  0.00  0.00    +0.000 NA
ATOM     17  H   UNL     1       0.800   1.287   0.000  0.00  0.00    +0.000 HD
BRANCH  16  18
ATOM     18  CA  UNL     1      -0.357   1.444   0.000  0.00  0.00    +0.000 C 
BRANCH  18  21
ATOM     19  O   UNL     1      -1.072   2.681   0.000  0.00  0.00    +0.000 OA
ATOM     20  OXT UNL     1       0.357   2.681   0.000  0.00  0.00    +0.000 OA
ATOM     21  C   UNL     1      -0.357   2.269   0.000  0.00  0.00    +0.000 C 
ENDBRANCH  18  21
BRANCH  18  22
ATOM     22  C   UNL     1      -1.072   1.031   0.000  0.00  0.00    +0.000 C 
BRANCH  22  23
ATOM     23  C   UNL     1      -1.786   1.444   0.000  0.00  0.00    +0.000 C 
BRANCH  23  24
ATOM     24  C   UNL     1      -2.501   1.031   0.000  0.00  0.00    +0.000 A 
ATOM     25  C   UNL     1      -2.501   0.206   0.000  0.00  0.00    +0.000 A 
ATOM     26  C   UNL     1      -3.215   1.444   0.000  0.00  0.00    +0.000 A 
ATOM     27  C   UNL     1      -3.215  -0.206   0.000  0.00  0.00    +0.000 A 
ATOM     28  C   UNL     1      -3.929   1.031   0.000  0.00  0.00    +0.000 A 
ATOM     29  C   UNL     1      -3.929   0.206   0.000  0.00  0.00    +0.000 A 
ENDBRANCH  23  24
ENDBRANCH  22  23
ENDBRANCH  18  22
ENDBRANCH  16  18
ENDBRANCH   1  16
BRANCH   1  30
ATOM     30  C   UNL     1      -0.357  -0.206   0.000  0.00  0.00    +0.000 C 
BRANCH  30  31
ATOM     31  C   UNL     1      -0.357  -1.031   0.000  0.00  0.00    +0.000 A 
ATOM     32  C   UNL     1       0.357  -1.444   0.000  0.00  0.00    +0.000 A 
ATOM     33  C   UNL     1      -1.072  -1.444   0.000  0.00  0.00    +0.000 A 
ATOM     34  C   UNL     1       0.357  -2.269   0.000  0.00  0.00    +0.000 A 
ATOM     35  C   UNL     1      -1.072  -2.269   0.000  0.00  0.00    +0.000 A 
ATOM     36  C   UNL     1      -0.357  -2.681   0.000  0.00  0.00    +0.000 A 
ENDBRANCH  30  31
ENDBRANCH   1  30
TORSDOF 13
