REMARK  Name = 
REMARK  7 active torsions:
REMARK  status: ('A' for Active; 'I' for Inactive)
REMARK    1  A    between atoms: O_2  and  C_3
REMARK    2  A    between atoms: C_3  and  C_4
REMARK    3  A    between atoms: C_4  and  O_5
REMARK    4  A    between atoms: O_5  and  C_6
REMARK    5  A    between atoms: N_12  and  C_13
REMARK    6  A    between atoms: C_13  and  C_15
REMARK    7  A    between atoms: C_21  and  C_25
REMARK                            x       y       z     vdW  Elec       q    Type
REMARK                         _______ _______ _______ _____ _____    ______ ____
ROOT
ATOM      1  C   UNL     1       2.994   1.926   0.000  0.00  0.00    +0.000 C 
ATOM      2  C   UNL     1       3.546   2.539   0.000  0.00  0.00    +0.000 C 
ENDROOT
BRANCH   1   9
ATOM      3  C   UNL     1      -0.531   1.215   0.000  0.00  0.00    +0.000 A 
ATOM      4  C   UNL     1       0.276   1.043   0.000  0.00  0.00    +0.000 A 
ATOM      5  C   UNL     1       0.828   1.656   0.000  0.00  0.00    +0.000 A 
ATOM      6  C   UNL     1       0.573   2.441   0.000  0.00  0.00    +0.000 A 
ATOM      7  C   UNL     1       1.125   3.054   0.000  0.00  0.00    +0.000 A 
ATOM      8  C   UNL     1       1.932   2.882   0.000  0.00  0.00    +0.000 A 
ATOM      9  N   UNL     1       2.187   2.098   0.000  0.00  0.00    +0.000 N 
ATOM     10  C   UNL     1       1.635   1.485   0.000  0.00  0.00    +0.000 A 
ATOM     11  O   UNL     1       1.890   0.700   0.000  0.00  0.00    +0.000 OA
ATOM     12  N   UNL     1      -0.234   2.612   0.000  0.00  0.00    +0.000 NA
ATOM     13  C   UNL     1      -0.786   1.999   0.000  0.00  0.00    +0.000 A 
BRANCH   3  14
ATOM     14  O   UNL     1      -1.083   0.602   0.000  0.00  0.00    +0.000 OA
BRANCH  14  15
ATOM     15  C   UNL     1      -1.890   0.773   0.000  0.00  0.00    +0.000 C 
BRANCH  15  16
ATOM     16  C   UNL     1      -2.442   0.160   0.000  0.00  0.00    +0.000 C 
BRANCH  16  18
ATOM     17  C   UNL     1      -3.801  -0.282   0.000  0.00  0.00    +0.000 C 
ATOM     18  O   UNL     1      -3.249   0.331   0.000  0.00  0.00    +0.000 OA
ENDBRANCH  16  18
ENDBRANCH  15  16
ENDBRANCH  14  15
ENDBRANCH   3  14
ENDBRANCH   1   9
BRANCH   1  19
ATOM     19  C   UNL     1       3.249   1.141   0.000  0.00  0.00    +0.000 A 
ATOM     20  N   UNL     1       2.764   0.474   0.000  0.00  0.00    +0.000 NA
ATOM     21  N   UNL     1       3.249  -0.193   0.000  0.00  0.00    +0.000 NA
ATOM     22  C   UNL     1       4.033   0.062   0.000  0.00  0.00    +0.000 A 
ATOM     23  N   UNL     1       4.033   0.887   0.000  0.00  0.00    +0.000 N 
ATOM     24  C   UNL     1       4.748   1.299   0.000  0.00  0.00    +0.000 A 
ATOM     25  C   UNL     1       5.462   0.887   0.000  0.00  0.00    +0.000 A 
ATOM     26  C   UNL     1       5.462   0.062   0.000  0.00  0.00    +0.000 A 
ATOM     27  C   UNL     1       4.748  -0.351   0.000  0.00  0.00    +0.000 A 
ATOM     28  F   UNL     1       4.748  -1.176   0.000  0.00  0.00    +0.000 F 
BRANCH  25  29
ATOM     29  C   UNL     1       6.177   1.299   0.000  0.00  0.00    +0.000 A 
ATOM     30  C   UNL     1       6.263   2.120   0.000  0.00  0.00    +0.000 A 
ATOM     31  N   UNL     1       7.070   2.291   0.000  0.00  0.00    +0.000 N 
ATOM     32  C   UNL     1       7.406   3.045   0.000  0.00  0.00    +0.000 C 
ATOM     33  N   UNL     1       7.482   1.577   0.000  0.00  0.00    +0.000 NA
ATOM     34  C   UNL     1       6.931   0.964   0.000  0.00  0.00    +0.000 A 
ENDBRANCH  25  29
ENDBRANCH   1  19
TORSDOF 7
