REMARK  Name = 
REMARK  5 active torsions:
REMARK  status: ('A' for Active; 'I' for Inactive)
REMARK    1  A    between atoms: C_2  and  C_5
REMARK    2  A    between atoms: C_8  and  N_11
REMARK    3  A    between atoms: C_17  and  C_19
REMARK    4  A    between atoms: C_19  and  N_20
REMARK    5  A    between atoms: C_26  and  C_29
REMARK                            x       y       z     vdW  Elec       q    Type
REMARK                         _______ _______ _______ _____ _____    ______ ____
ROOT
ATOM      1  N   UNL     1      -1.013   1.440   0.000  0.00  0.00    +0.000 N 
ATOM      2  C   UNL     1      -1.240   2.233   0.000  0.00  0.00    +0.000 C 
ATOM      3  C   UNL     1      -0.556   2.694   0.000  0.00  0.00    +0.000 C 
ATOM      4  C   UNL     1      -1.256   3.132   0.000  0.00  0.00    +0.000 C 
ATOM      5  C   UNL     1      -1.227   3.956   0.000  0.00  0.00    +0.000 C 
ATOM      6  C   UNL     1      -0.498   4.343   0.000  0.00  0.00    +0.000 C 
ATOM      7  C   UNL     1       0.201   3.906   0.000  0.00  0.00    +0.000 C 
ATOM      8  C   UNL     1       0.510   4.671   0.000  0.00  0.00    +0.000 C 
ATOM      9  C   UNL     1       0.172   3.082   0.000  0.00  0.00    +0.000 C 
ATOM     10  O   UNL     1       0.094   2.187   0.000  0.00  0.00    +0.000 OA
ATOM     11  C   UNL     1      -0.188   1.411   0.000  0.00  0.00    +0.000 C 
ATOM     12  O   UNL     1       0.273   0.727   0.000  0.00  0.00    +0.000 OA
ENDROOT
BRANCH   1  16
ATOM     13  C   UNL     1      -2.536  -0.510   0.000  0.00  0.00    +0.000 A 
ATOM     14  N   UNL     1      -2.845   0.255   0.000  0.00  0.00    +0.000 NA
ATOM     15  C   UNL     1      -2.338   0.905   0.000  0.00  0.00    +0.000 A 
ATOM     16  C   UNL     1      -1.521   0.790   0.000  0.00  0.00    +0.000 A 
ATOM     17  N   UNL     1      -1.212   0.025   0.000  0.00  0.00    +0.000 NA
ATOM     18  C   UNL     1      -1.720  -0.625   0.000  0.00  0.00    +0.000 A 
BRANCH  13  20
ATOM     19  C   UNL     1      -3.552  -1.810   0.000  0.00  0.00    +0.000 C 
ATOM     20  C   UNL     1      -3.044  -1.160   0.000  0.00  0.00    +0.000 C 
ATOM     21  C   UNL     1      -2.394  -1.668   0.000  0.00  0.00    +0.000 C 
ATOM     22  O   UNL     1      -3.695  -0.652   0.000  0.00  0.00    +0.000 OA
ENDBRANCH  13  20
ENDBRANCH   1  16
BRANCH   7  23
ATOM     23  C   UNL     1       1.008   3.735   0.000  0.00  0.00    +0.000 C 
BRANCH  23  24
ATOM     24  N   UNL     1       1.263   2.950   0.000  0.00  0.00    +0.000 N 
ATOM     25  C   UNL     1       0.778   2.283   0.000  0.00  0.00    +0.000 A 
ATOM     26  N   UNL     1       1.263   1.615   0.000  0.00  0.00    +0.000 NA
ATOM     27  C   UNL     1       2.048   1.870   0.000  0.00  0.00    +0.000 A 
ATOM     28  C   UNL     1       2.048   2.695   0.000  0.00  0.00    +0.000 A 
ATOM     29  C   UNL     1       2.762   3.108   0.000  0.00  0.00    +0.000 A 
ATOM     30  C   UNL     1       3.477   2.695   0.000  0.00  0.00    +0.000 A 
ATOM     31  C   UNL     1       3.477   1.870   0.000  0.00  0.00    +0.000 A 
ATOM     32  C   UNL     1       2.762   1.458   0.000  0.00  0.00    +0.000 A 
BRANCH  30  33
ATOM     33  C   UNL     1       4.191   3.108   0.000  0.00  0.00    +0.000 C 
ATOM     34  N   UNL     1       4.905   3.520   0.000  0.00  0.00    +0.000 NA
ENDBRANCH  30  33
ENDBRANCH  23  24
ENDBRANCH   7  23
TORSDOF 5
