REMARK  Name = 
REMARK  12 active torsions:
REMARK  status: ('A' for Active; 'I' for Inactive)
REMARK    1  A    between atoms: C_2  and  C_3
REMARK    2  A    between atoms: C_3  and  C_4
REMARK    3  A    between atoms: C_4  and  C_5
REMARK    4  A    between atoms: C_5  and  C_6
REMARK    5  A    between atoms: C_6  and  C_7
REMARK    6  A    between atoms: C_7  and  C_8
REMARK    7  A    between atoms: C_8  and  N_9
REMARK    8  A    between atoms: N_9  and  C_10
REMARK    9  A    between atoms: C_10  and  C_12
REMARK   10  A    between atoms: C_12  and  C_13
REMARK   11  A    between atoms: C_16  and  S_19
REMARK   12  A    between atoms: S_19  and  C_20
REMARK                            x       y       z     vdW  Elec       q    Type
REMARK                         _______ _______ _______ _____ _____    ______ ____
ROOT
ATOM      1  C   UNL     1       9.288  -6.188   0.000  0.00  0.00    +0.000 C 
ATOM      2  O   UNL     1       9.288  -5.362   0.000  0.00  0.00    +0.000 OA
ENDROOT
BRANCH   1   3
ATOM      3  C   UNL     1      10.003  -6.600   0.000  0.00  0.00    +0.000 A 
ATOM      4  C   UNL     1      10.717  -6.188   0.000  0.00  0.00    +0.000 A 
ATOM      5  C   UNL     1      11.431  -6.600   0.000  0.00  0.00    +0.000 A 
ATOM      6  C   UNL     1      11.431  -7.425   0.000  0.00  0.00    +0.000 A 
ATOM      7  C   UNL     1      10.717  -7.838   0.000  0.00  0.00    +0.000 A 
ATOM      8  C   UNL     1      10.003  -7.425   0.000  0.00  0.00    +0.000 A 
BRANCH   6   9
ATOM      9  S   UNL     1      12.146  -7.838   0.000  0.00  0.00    +0.000 S 
BRANCH   9  10
ATOM     10  C   UNL     1      12.146  -8.662   0.000  0.00  0.00    +0.000 C 
ATOM     11  C   UNL     1      12.861  -9.075   0.000  0.00  0.00    +0.000 C 
ATOM     12  C   UNL     1      11.431  -9.075   0.000  0.00  0.00    +0.000 C 
ENDBRANCH   9  10
ENDBRANCH   6   9
ENDBRANCH   1   3
BRANCH   1  13
ATOM     13  C   UNL     1       8.574  -6.600   0.000  0.00  0.00    +0.000 C 
ATOM     14  C   UNL     1       8.574  -7.425   0.000  0.00  0.00    +0.000 C 
BRANCH  13  15
ATOM     15  N   UNL     1       7.859  -6.188   0.000  0.00  0.00    +0.000 NA
BRANCH  15  16
ATOM     16  C   UNL     1       7.145  -6.600   0.000  0.00  0.00    +0.000 C 
BRANCH  16  17
ATOM     17  C   UNL     1       6.430  -6.188   0.000  0.00  0.00    +0.000 C 
BRANCH  17  18
ATOM     18  C   UNL     1       5.716  -6.600   0.000  0.00  0.00    +0.000 C 
BRANCH  18  19
ATOM     19  C   UNL     1       5.001  -6.188   0.000  0.00  0.00    +0.000 C 
BRANCH  19  20
ATOM     20  C   UNL     1       4.287  -6.600   0.000  0.00  0.00    +0.000 C 
BRANCH  20  21
ATOM     21  C   UNL     1       3.572  -6.188   0.000  0.00  0.00    +0.000 C 
BRANCH  21  23
ATOM     22  C   UNL     1       2.143  -6.188   0.000  0.00  0.00    +0.000 C 
ATOM     23  C   UNL     1       2.858  -6.600   0.000  0.00  0.00    +0.000 C 
ENDBRANCH  21  23
ENDBRANCH  20  21
ENDBRANCH  19  20
ENDBRANCH  18  19
ENDBRANCH  17  18
ENDBRANCH  16  17
ENDBRANCH  15  16
ENDBRANCH  13  15
ENDBRANCH   1  13
TORSDOF 12
