REMARK  Name = 
REMARK  1 active torsions:
REMARK  status: ('A' for Active; 'I' for Inactive)
REMARK    1  A    between atoms: C_1  and  C_4
REMARK                            x       y       z     vdW  Elec       q    Type
REMARK                         _______ _______ _______ _____ _____    ______ ____
ROOT
ATOM      1  C   UNL     1      -0.193  -0.205   0.000  0.00  0.00    +0.000 C 
ATOM      2  O   UNL     1       0.521   0.210   0.000  0.00  0.00    +0.000 OA
ATOM      3  O   UNL     1      -0.193  -1.030   0.000  0.00  0.00    +0.000 OA
ENDROOT
BRANCH   1   4
ATOM      4  C   UNL     1      -0.902   0.205   0.000  0.00  0.00    +0.000 C 
ATOM      5  O   UNL     1      -0.907   1.030   0.000  0.00  0.00    +0.000 OA
ATOM      6  C   UNL     1      -1.616  -0.210   0.000  0.00  0.00    +0.000 C 
ENDBRANCH   1   4
TORSDOF 1
REMARK  Name = 
REMARK  1 active torsions:
REMARK  status: ('A' for Active; 'I' for Inactive)
REMARK    1  A    between atoms: C_1  and  C_4
REMARK                            x       y       z     vdW  Elec       q    Type
REMARK                         _______ _______ _______ _____ _____    ______ ____
ROOT
ATOM      1  K   UNL     1       1.616   0.094   0.000  0.00  0.00    +0.000 K 
ENDROOT
TORSDOF 0
