REMARK  Name = 
REMARK  32 active torsions:
REMARK  status: ('A' for Active; 'I' for Inactive)
REMARK    1  A    between atoms: CG_1  and  CB_41
REMARK    2  A    between atoms: CA_8  and  C_33
REMARK    3  A    between atoms: C_15  and  C_18
REMARK    4  A    between atoms: C_18  and  C_19
REMARK    5  A    between atoms: C_19  and  N_20
REMARK    6  A    between atoms: C_19  and  C_42
REMARK    7  A    between atoms: C_21  and  C_22
REMARK    8  A    between atoms: C_22  and  N_23
REMARK    9  A    between atoms: C_22  and  C_40
REMARK   10  A    between atoms: C_24  and  CA_25
REMARK   11  A    between atoms: CA_25  and  N_26
REMARK   12  A    between atoms: CA_25  and  C_43
REMARK   13  A    between atoms: C_27  and  CA_28
REMARK   14  A    between atoms: CA_28  and  N_29
REMARK   15  A    between atoms: CA_28  and  CB_41
REMARK   16  A    between atoms: C_30  and  CA_31
REMARK   17  A    between atoms: CA_31  and  N_32
REMARK   18  A    between atoms: CA_31  and  CB_44
REMARK   19  A    between atoms: C_40  and  C_55
REMARK   20  A    between atoms: CB_44  and  CG_90
REMARK   21  A    between atoms: N_46  and  C_47
REMARK   22  A    between atoms: C_47  and  C_48
REMARK   23  A    between atoms: C_47  and  C_52
REMARK   24  A    between atoms: C_48  and  C_49
REMARK   25  A    between atoms: N_54  and  C_73
REMARK   26  A    between atoms: C_71  and  C_78
REMARK   27  A    between atoms: C_73  and  C_74
REMARK   28  A    between atoms: C_73  and  C_76
REMARK   29  A    between atoms: C_76  and  C_77
REMARK   30  A    between atoms: C_77  and  C_83
REMARK   31  A    between atoms: N_80  and  C_81
REMARK   32  A    between atoms: C_83  and  N_84
REMARK                            x       y       z     vdW  Elec       q    Type
REMARK                         _______ _______ _______ _____ _____    ______ ____
ROOT
ATOM      1  C   UNL     1      -2.077  -2.534   0.000  0.00  0.00    +0.000 C 
ENDROOT
BRANCH   1   2
ATOM      2  N   UNL     1      -1.369  -2.124   0.000  0.00  0.00    +0.000 NA
ATOM      3  C   UNL     1      -0.657  -2.530   0.000  0.00  0.00    +0.000 C 
ATOM      4  O   UNL     1      -0.657  -3.351   0.000  0.00  0.00    +0.000 OA
BRANCH   3   5
ATOM      5  CA  UNL     1       0.051  -2.120   0.000  0.00  0.00    +0.000 C 
BRANCH   5   6
ATOM      6  N   ACE A   4       0.759  -2.526   0.000  0.00  0.00    +0.000 NA
ATOM      7  C   UNL     1       1.467  -2.116   0.000  0.00  0.00    +0.000 C 
ATOM      8  O   UNL     1       1.467  -1.294   0.000  0.00  0.00    +0.000 OA
BRANCH   7   9
ATOM      9  CA  UNL     1       2.179  -2.522   0.000  0.00  0.00    +0.000 C 
BRANCH   9  10
ATOM     10  N   UNL     1       2.887  -2.111   0.000  0.00  0.00    +0.000 NA
ATOM     11  C   UNL     1       3.595  -2.518   0.000  0.00  0.00    +0.000 C 
ATOM     12  O   UNL     1       3.595  -3.339   0.000  0.00  0.00    +0.000 OA
BRANCH  11  13
ATOM     13  CA  UNL     1       4.307  -2.107   0.000  0.00  0.00    +0.000 C 
BRANCH  13  14
ATOM     14  N   UNL     1       5.015  -2.514   0.000  0.00  0.00    +0.000 NA
ATOM     15  C   UNL     1       5.723  -2.103   0.000  0.00  0.00    +0.000 C 
ATOM     16  O   UNL     1       5.723  -1.282   0.000  0.00  0.00    +0.000 OA
BRANCH  15  21
ATOM     17  CB  UNL     1       6.685  -3.289   0.000  0.00  0.00    +0.000 C 
ATOM     18  CG  UNL     1       7.506  -3.289   0.000  0.00  0.00    +0.000 C 
ATOM     19  CD  UNL     1       7.760  -2.509   0.000  0.00  0.00    +0.000 C 
ATOM     20  N   UNL     1       7.096  -2.024   0.000  0.00  0.00    +0.000 NA
ATOM     21  CA  UNL     1       6.431  -2.509   0.000  0.00  0.00    +0.000 C 
ATOM     22  OE1 UNL     1       8.471  -2.095   0.000  0.00  0.00    +0.000 OA
ENDBRANCH  15  21
ENDBRANCH  13  14
BRANCH  13  23
ATOM     23  CB  UNL     1       4.307  -1.286   0.000  0.00  0.00    +0.000 C 
BRANCH  23  24
ATOM     24  CG  UNL     1       4.723  -0.566   0.000  0.00  0.00    +0.000 A 
ATOM     25  ND1 UNL     1       5.543  -0.696   0.000  0.00  0.00    +0.000 NA
ATOM     26  CE1 UNL     1       5.921   0.044   0.000  0.00  0.00    +0.000 A 
ATOM     27  NE2 UNL     1       5.333   0.631   0.000  0.00  0.00    +0.000 NA
ATOM     28  CD2 UNL     1       4.593   0.254   0.000  0.00  0.00    +0.000 A 
ENDBRANCH  23  24
ENDBRANCH  13  23
ENDBRANCH  11  13
ENDBRANCH   9  10
BRANCH   9  29
ATOM     29  CB  UNL     1       2.179  -3.343   0.000  0.00  0.00    +0.000 C 
BRANCH  29  30
ATOM     30  CG  UNL     1       2.760  -3.931   0.000  0.00  0.00    +0.000 A 
ATOM     31  CD1 UNL     1       2.760  -4.757   0.000  0.00  0.00    +0.000 A 
ATOM     32  NE1 UNL     1       3.476  -5.178   0.000  0.00  0.00    +0.000 NA
ATOM     33  CD2 UNL     1       4.192  -3.931   0.000  0.00  0.00    +0.000 A 
ATOM     34  CE2 UNL     1       4.192  -4.757   0.000  0.00  0.00    +0.000 A 
ATOM     35  CZ2 UNL     1       4.899  -5.172   0.000  0.00  0.00    +0.000 A 
ATOM     36  CH2 UNL     1       5.615  -4.762   0.000  0.00  0.00    +0.000 A 
ATOM     37  CZ3 UNL     1       5.615  -3.933   0.000  0.00  0.00    +0.000 A 
ATOM     38  CE3 UNL     1       4.904  -3.522   0.000  0.00  0.00    +0.000 A 
ENDBRANCH  29  30
ENDBRANCH   9  29
ENDBRANCH   7   9
ENDBRANCH   5   6
BRANCH   5  39
ATOM     39  C   UNL     1       0.051  -1.299   0.000  0.00  0.00    +0.000 C 
ATOM     40  O   UNL     1       0.763  -0.880   0.000  0.00  0.00    +0.000 OA
ENDBRANCH   5  39
ENDBRANCH   3   5
ENDBRANCH   1   2
BRANCH   1  42
ATOM     41  N   UNL     1      -3.497  -2.539   0.000  0.00  0.00    +0.000 NA
ATOM     42  C   UNL     1      -2.785  -2.128   0.000  0.00  0.00    +0.000 C 
ATOM     43  O   UNL     1      -2.785  -1.307   0.000  0.00  0.00    +0.000 OA
BRANCH  41  44
ATOM     44  C   UNL     1      -4.205  -2.132   0.000  0.00  0.00    +0.000 C 
BRANCH  44  45
ATOM     45  C   UNL     1      -4.205  -1.311   0.000  0.00  0.00    +0.000 C 
ATOM     46  O   UNL     1      -4.921  -0.901   0.000  0.00  0.00    +0.000 OA
ATOM     47  N   UNL     1      -3.501  -0.896   0.000  0.00  0.00    +0.000 NA
BRANCH  47  48
ATOM     48  C   UNL     1      -3.501   0.352   0.000  0.00  0.00    +0.000 C 
BRANCH  48  49
ATOM     49  C   UNL     1      -1.780   0.792   0.000  0.00  0.00    +0.000 C 
ATOM     50  O   UNL     1      -0.837   0.411   0.000  0.00  0.00    +0.000 OA
ATOM     51  N   UNL     1      -1.780   2.078   0.000  0.00  0.00    +0.000 NA
BRANCH  51  52
ATOM     52  C   UNL     1      -0.871   2.681   0.000  0.00  0.00    +0.000 C 
BRANCH  52  58
ATOM     53  C   UNL     1       1.649   3.475   0.000  0.00  0.00    +0.000 C 
ATOM     54  C   UNL     1       0.819   3.475   0.000  0.00  0.00    +0.000 C 
ATOM     55  N   UNL     1       0.562   2.685   0.000  0.00  0.00    +0.000 N 
ATOM     56  C   UNL     1       1.236   2.197   0.000  0.00  0.00    +0.000 C 
ATOM     57  C   UNL     1       1.904   2.687   0.000  0.00  0.00    +0.000 C 
ATOM     58  C   UNL     1      -0.154   2.266   0.000  0.00  0.00    +0.000 C 
ATOM     59  O   UNL     1      -0.154   1.437   0.000  0.00  0.00    +0.000 OA
BRANCH  56  60
ATOM     60  C   UNL     1       1.236   1.370   0.000  0.00  0.00    +0.000 C 
ATOM     61  O   UNL     1       0.508   0.959   0.000  0.00  0.00    +0.000 OA
ATOM     62  N   UNL     1       1.944   0.955   0.000  0.00  0.00    +0.000 NA
BRANCH  62  63
ATOM     63  C   UNL     1       2.661   1.374   0.000  0.00  0.00    +0.000 C 
ATOM     64  C   UNL     1       3.377   0.959   0.000  0.00  0.00    +0.000 C 
ENDBRANCH  62  63
ENDBRANCH  56  60
ENDBRANCH  52  58
BRANCH  52  65
ATOM     65  C   UNL     1      -0.871   3.510   0.000  0.00  0.00    +0.000 C 
BRANCH  65  66
ATOM     66  C   UNL     1      -1.595   3.925   0.000  0.00  0.00    +0.000 C 
BRANCH  66  67
ATOM     67  C   UNL     1      -2.316   3.515   0.000  0.00  0.00    +0.000 C 
BRANCH  67  68
ATOM     68  N   UNL     1      -3.041   3.929   0.000  0.00  0.00    +0.000 NA
ATOM     69  C   UNL     1      -3.041   4.759   0.000  0.00  0.00    +0.000 C 
ATOM     70  N   UNL     1      -3.761   5.174   0.000  0.00  0.00    +0.000 NA
ATOM     71  N   UNL     1      -2.324   5.178   0.000  0.00  0.00    +0.000 NA
ENDBRANCH  67  68
ENDBRANCH  66  67
ENDBRANCH  65  66
ENDBRANCH  52  65
ENDBRANCH  51  52
ENDBRANCH  48  49
BRANCH  48  72
ATOM     72  C   UNL     1      -4.218   0.762   0.000  0.00  0.00    +0.000 C 
BRANCH  72  73
ATOM     73  C   UNL     1      -4.218   1.583   0.000  0.00  0.00    +0.000 C 
ATOM     74  C   UNL     1      -4.930   1.994   0.000  0.00  0.00    +0.000 C 
ATOM     75  C   UNL     1      -3.510   1.998   0.000  0.00  0.00    +0.000 C 
ENDBRANCH  72  73
ENDBRANCH  48  72
ENDBRANCH  47  48
ENDBRANCH  44  45
BRANCH  44  76
ATOM     76  C   UNL     1      -4.913  -2.543   0.000  0.00  0.00    +0.000 C 
BRANCH  76  83
ATOM     77  C   UNL     1      -8.471  -1.324   0.000  0.00  0.00    +0.000 A 
ATOM     78  C   UNL     1      -8.471  -2.147   0.000  0.00  0.00    +0.000 A 
ATOM     79  C   UNL     1      -7.758  -2.558   0.000  0.00  0.00    +0.000 A 
ATOM     80  C   UNL     1      -7.760  -0.913   0.000  0.00  0.00    +0.000 A 
ATOM     81  C   UNL     1      -7.049  -1.320   0.000  0.00  0.00    +0.000 A 
ATOM     82  C   UNL     1      -7.049  -2.145   0.000  0.00  0.00    +0.000 A 
ATOM     83  C   UNL     1      -5.620  -2.145   0.000  0.00  0.00    +0.000 A 
ATOM     84  C   UNL     1      -5.620  -1.314   0.000  0.00  0.00    +0.000 A 
ATOM     85  N   UNL     1      -6.342  -0.900   0.000  0.00  0.00    +0.000 NA
ENDBRANCH  76  83
ENDBRANCH  44  76
ENDBRANCH  41  44
ENDBRANCH   1  42
BRANCH   1  86
ATOM     86  C   UNL     1      -2.077  -3.356   0.000  0.00  0.00    +0.000 C 
BRANCH  86  87
ATOM     87  C   UNL     1      -2.802  -3.766   0.000  0.00  0.00    +0.000 A 
ATOM     88  C   UNL     1      -3.517  -3.344   0.000  0.00  0.00    +0.000 A 
ATOM     89  C   UNL     1      -4.242  -3.754   0.000  0.00  0.00    +0.000 A 
ATOM     90  C   UNL     1      -4.242  -4.584   0.000  0.00  0.00    +0.000 A 
ATOM     91  C   UNL     1      -3.522  -5.003   0.000  0.00  0.00    +0.000 A 
ATOM     92  C   UNL     1      -2.802  -4.591   0.000  0.00  0.00    +0.000 A 
ATOM     93  O   UNL     1      -4.963  -4.994   0.000  0.00  0.00    +0.000 OA
ENDBRANCH  86  87
ENDBRANCH   1  86
TORSDOF 32
