REMARK  Name = 
REMARK  7 active torsions:
REMARK  status: ('A' for Active; 'I' for Inactive)
REMARK    1  A    between atoms: C_7  and  O_34
REMARK    2  A    between atoms: C_8  and  O_32
REMARK    3  A    between atoms: C_11  and  C_13
REMARK    4  A    between atoms: C_17  and  N_19
REMARK    5  A    between atoms: C_20  and  C_22
REMARK    6  A    between atoms: C_25  and  C_28
REMARK    7  A    between atoms: C_28  and  O_30
REMARK                            x       y       z     vdW  Elec       q    Type
REMARK                         _______ _______ _______ _____ _____    ______ ____
ROOT
ATOM      1  C   UNL     1       1.429  -2.475   0.000  0.00  0.00    +0.000 A 
ATOM      2  C   UNL     1       2.143  -2.888   0.000  0.00  0.00    +0.000 A 
ATOM      3  C   UNL     1       2.143  -3.712   0.000  0.00  0.00    +0.000 A 
ATOM      4  C   UNL     1       1.429  -4.125   0.000  0.00  0.00    +0.000 A 
ATOM      5  C   UNL     1       0.715  -3.712   0.000  0.00  0.00    +0.000 A 
ATOM      6  C   UNL     1       0.715  -2.888   0.000  0.00  0.00    +0.000 A 
ENDROOT
BRANCH   1  17
ATOM      7  C   UNL     1      -0.715  -0.412   0.000  0.00  0.00    +0.000 C 
ATOM      8  N   UNL     1       0.000   0.000   0.000  0.00  0.00    +0.000 NA
ATOM      9  C   UNL     1       0.715  -0.412   0.000  0.00  0.00    +0.000 A 
ATOM     10  N   UNL     1       1.429   0.000   0.000  0.00  0.00    +0.000 NA
ATOM     11  C   UNL     1       2.143  -0.412   0.000  0.00  0.00    +0.000 A 
ATOM     12  C   UNL     1       2.858   0.000   0.000  0.00  0.00    +0.000 A 
ATOM     13  C   UNL     1       3.572  -0.412   0.000  0.00  0.00    +0.000 A 
ATOM     14  C   UNL     1       3.572  -1.238   0.000  0.00  0.00    +0.000 A 
ATOM     15  C   UNL     1       2.858  -1.650   0.000  0.00  0.00    +0.000 A 
ATOM     16  C   UNL     1       2.143  -1.238   0.000  0.00  0.00    +0.000 A 
ATOM     17  C   UNL     1       1.429  -1.650   0.000  0.00  0.00    +0.000 A 
ATOM     18  N   UNL     1       0.715  -1.238   0.000  0.00  0.00    +0.000 NA
BRANCH  14  19
ATOM     19  O   UNL     1       4.287  -1.650   0.000  0.00  0.00    +0.000 OA
ATOM     20  C   UNL     1       4.287  -2.475   0.000  0.00  0.00    +0.000 C 
ENDBRANCH  14  19
BRANCH  13  21
ATOM     21  O   UNL     1       4.287   0.000   0.000  0.00  0.00    +0.000 OA
ATOM     22  C   UNL     1       4.287   0.825   0.000  0.00  0.00    +0.000 C 
ENDBRANCH  13  21
ENDBRANCH   1  17
BRANCH   5  23
ATOM     23  N   UNL     1       0.000  -4.125   0.000  0.00  0.00    +0.000 NA
ATOM     24  C   UNL     1       0.000  -4.950   0.000  0.00  0.00    +0.000 C 
ATOM     25  O   UNL     1       0.715  -5.362   0.000  0.00  0.00    +0.000 OA
BRANCH  24  26
ATOM     26  C   UNL     1      -0.715  -5.362   0.000  0.00  0.00    +0.000 A 
ATOM     27  C   UNL     1      -0.715  -6.188   0.000  0.00  0.00    +0.000 A 
ATOM     28  C   UNL     1      -1.429  -6.600   0.000  0.00  0.00    +0.000 A 
ATOM     29  C   UNL     1      -2.143  -6.188   0.000  0.00  0.00    +0.000 A 
ATOM     30  C   UNL     1      -2.143  -5.362   0.000  0.00  0.00    +0.000 A 
ATOM     31  C   UNL     1      -1.429  -4.950   0.000  0.00  0.00    +0.000 A 
BRANCH  29  32
ATOM     32  C   UNL     1      -2.858  -6.600   0.000  0.00  0.00    +0.000 C 
ATOM     33  O   UNL     1      -2.858  -7.425   0.000  0.00  0.00    +0.000 OA
BRANCH  32  34
ATOM     34  O   UNL     1      -3.572  -6.188   0.000  0.00  0.00    +0.000 OA
ATOM     35  C   UNL     1      -4.287  -6.600   0.000  0.00  0.00    +0.000 C 
ENDBRANCH  32  34
ENDBRANCH  29  32
ENDBRANCH  24  26
ENDBRANCH   5  23
TORSDOF 7
