REMARK  Name = 
REMARK  1 active torsions:
REMARK  status: ('A' for Active; 'I' for Inactive)
REMARK    1  A    between atoms: B_1  and  O_4
REMARK                            x       y       z     vdW  Elec       q    Type
REMARK                         _______ _______ _______ _____ _____    ______ ____
ROOT
ATOM      1  B   UNL     1      -0.206   0.357   0.000  0.00  0.00    +0.000 B 
ATOM      2  O   UNL     1      -1.031   0.357   0.000  0.00  0.00    +0.000 OA
ENDROOT
BRANCH   1   4
ATOM      3  O   UNL     1       1.031  -0.357   0.000  0.00  0.00    +0.000 OA
ATOM      4  O   UNL     1       0.206  -0.357   0.000  0.00  0.00    +0.000 OA
ENDBRANCH   1   4
TORSDOF 1
