REMARK  Name = 
REMARK  25 active torsions:
REMARK  status: ('A' for Active; 'I' for Inactive)
REMARK    1  A    between atoms: N_2  and  C_29
REMARK    2  A    between atoms: C_7  and  O_27
REMARK    3  A    between atoms: C_8  and  O_25
REMARK    4  A    between atoms: C_11  and  C_12
REMARK    5  A    between atoms: C_12  and  C_13
REMARK    6  A    between atoms: C_15  and  O_23
REMARK    7  A    between atoms: C_16  and  O_21
REMARK    8  A    between atoms: C_17  and  O_19
REMARK    9  A    between atoms: C_29  and  C_30
REMARK   10  A    between atoms: C_30  and  C_31
REMARK   11  A    between atoms: C_31  and  O_32
REMARK   12  A    between atoms: O_32  and  C_33
REMARK   13  A    between atoms: C_33  and  C_35
REMARK   14  A    between atoms: C_36  and  C_37
REMARK   15  A    between atoms: C_37  and  O_39
REMARK   16  A    between atoms: O_39  and  C_40
REMARK   17  A    between atoms: C_40  and  C_41
REMARK   18  A    between atoms: C_41  and  C_42
REMARK   19  A    between atoms: C_42  and  N_43
REMARK   20  A    between atoms: C_48  and  O_67
REMARK   21  A    between atoms: C_49  and  O_65
REMARK   22  A    between atoms: C_52  and  C_53
REMARK   23  A    between atoms: C_55  and  O_63
REMARK   24  A    between atoms: C_56  and  O_61
REMARK   25  A    between atoms: C_57  and  O_59
REMARK                            x       y       z     vdW  Elec       q    Type
REMARK                         _______ _______ _______ _____ _____    ______ ____
ROOT
ATOM      1  C   UNL     1      -3.446  -1.355   0.000  0.00  0.00    +0.000 C 
ATOM      2  C   UNL     1      -2.634  -1.498   0.000  0.00  0.00    +0.000 C 
ATOM      3 CL   UNL     1      -3.977  -1.987   0.000  0.00  0.00    +0.000 Cl
ENDROOT
BRANCH   1   4
ATOM      4  C   UNL     1      -3.729  -0.580   0.000  0.00  0.00    +0.000 C 
ATOM      5  O   UNL     1      -4.541  -0.436   0.000  0.00  0.00    +0.000 OA
BRANCH   4   6
ATOM      6  O   UNL     1      -3.198   0.052   0.000  0.00  0.00    +0.000 OA
BRANCH   6   7
ATOM      7  C   UNL     1      -3.481   0.828   0.000  0.00  0.00    +0.000 C 
BRANCH   7   8
ATOM      8  C   UNL     1      -2.950   1.460   0.000  0.00  0.00    +0.000 C 
BRANCH   8   9
ATOM      9  C   UNL     1      -3.232   2.235   0.000  0.00  0.00    +0.000 C 
BRANCH   9  11
ATOM     10  C   UNL     1      -2.172   2.235   0.000  0.00  0.00    +0.000 C 
ATOM     11  N   UNL     1      -2.702   2.867   0.000  0.00  0.00    +0.000 N 
ATOM     12  C   UNL     1      -3.417   3.280   0.000  0.00  0.00    +0.000 C 
ATOM     13  C   UNL     1      -3.417   4.104   0.000  0.00  0.00    +0.000 C 
ATOM     14  C   UNL     1      -2.702   4.517   0.000  0.00  0.00    +0.000 A 
ATOM     15  C   UNL     1      -2.702   5.342   0.000  0.00  0.00    +0.000 A 
ATOM     16  C   UNL     1      -1.988   5.755   0.000  0.00  0.00    +0.000 A 
ATOM     17  C   UNL     1      -1.273   5.342   0.000  0.00  0.00    +0.000 A 
ATOM     18  C   UNL     1      -1.273   4.517   0.000  0.00  0.00    +0.000 A 
ATOM     19  C   UNL     1      -1.988   4.104   0.000  0.00  0.00    +0.000 A 
ATOM     20  C   UNL     1      -1.988   3.280   0.000  0.00  0.00    +0.000 C 
BRANCH  17  21
ATOM     21  O   UNL     1      -0.559   5.755   0.000  0.00  0.00    +0.000 OA
ATOM     22  C   UNL     1      -0.559   6.580   0.000  0.00  0.00    +0.000 C 
ENDBRANCH  17  21
BRANCH  16  23
ATOM     23  O   UNL     1      -1.988   6.580   0.000  0.00  0.00    +0.000 OA
ATOM     24  C   UNL     1      -2.702   6.992   0.000  0.00  0.00    +0.000 C 
ENDBRANCH  16  23
BRANCH  20  25
ATOM     25  C   UNL     1      -1.273   2.867   0.000  0.00  0.00    +0.000 C 
BRANCH  25  26
ATOM     26  C   UNL     1      -0.559   3.280   0.000  0.00  0.00    +0.000 A 
ATOM     27  C   UNL     1      -0.559   4.104   0.000  0.00  0.00    +0.000 A 
ATOM     28  C   UNL     1       0.156   4.517   0.000  0.00  0.00    +0.000 A 
ATOM     29  C   UNL     1       0.870   4.104   0.000  0.00  0.00    +0.000 A 
ATOM     30  C   UNL     1       0.870   3.280   0.000  0.00  0.00    +0.000 A 
ATOM     31  C   UNL     1       0.156   2.867   0.000  0.00  0.00    +0.000 A 
BRANCH  28  32
ATOM     32  O   UNL     1       0.156   5.342   0.000  0.00  0.00    +0.000 OA
ATOM     33  C   UNL     1       0.870   5.755   0.000  0.00  0.00    +0.000 C 
ENDBRANCH  28  32
BRANCH  29  34
ATOM     34  O   UNL     1       1.585   4.517   0.000  0.00  0.00    +0.000 OA
ATOM     35  C   UNL     1       2.299   4.104   0.000  0.00  0.00    +0.000 C 
ENDBRANCH  29  34
BRANCH  30  36
ATOM     36  O   UNL     1       1.585   2.867   0.000  0.00  0.00    +0.000 OA
ATOM     37  C   UNL     1       1.585   2.042   0.000  0.00  0.00    +0.000 C 
ENDBRANCH  30  36
ENDBRANCH  25  26
ENDBRANCH  20  25
ENDBRANCH   9  11
ENDBRANCH   8   9
ENDBRANCH   7   8
ENDBRANCH   6   7
ENDBRANCH   4   6
ENDBRANCH   1   4
BRANCH   2  38
ATOM     38  C   UNL     1      -2.352  -2.273   0.000  0.00  0.00    +0.000 C 
ATOM     39  O   UNL     1      -2.882  -2.905   0.000  0.00  0.00    +0.000 OA
BRANCH  38  40
ATOM     40  O   UNL     1      -1.539  -2.417   0.000  0.00  0.00    +0.000 OA
BRANCH  40  41
ATOM     41  C   UNL     1      -1.257  -3.192   0.000  0.00  0.00    +0.000 C 
BRANCH  41  42
ATOM     42  C   UNL     1      -0.445  -3.335   0.000  0.00  0.00    +0.000 C 
BRANCH  42  43
ATOM     43  C   UNL     1       0.086  -2.703   0.000  0.00  0.00    +0.000 C 
BRANCH  43  44
ATOM     44  N   UNL     1       0.898  -2.846   0.000  0.00  0.00    +0.000 N 
ATOM     45  C   UNL     1       0.898  -2.021   0.000  0.00  0.00    +0.000 C 
ATOM     46  C   UNL     1       1.613  -1.609   0.000  0.00  0.00    +0.000 C 
ATOM     47  C   UNL     1       2.327  -2.021   0.000  0.00  0.00    +0.000 A 
ATOM     48  C   UNL     1       3.042  -1.609   0.000  0.00  0.00    +0.000 A 
ATOM     49  C   UNL     1       3.756  -2.021   0.000  0.00  0.00    +0.000 A 
ATOM     50  C   UNL     1       3.756  -2.846   0.000  0.00  0.00    +0.000 A 
ATOM     51  C   UNL     1       3.042  -3.259   0.000  0.00  0.00    +0.000 A 
ATOM     52  C   UNL     1       2.327  -2.846   0.000  0.00  0.00    +0.000 A 
ATOM     53  C   UNL     1       1.613  -3.259   0.000  0.00  0.00    +0.000 C 
ATOM     54  C   UNL     1       0.616  -3.622   0.000  0.00  0.00    +0.000 C 
BRANCH  53  55
ATOM     55  C   UNL     1       1.613  -4.084   0.000  0.00  0.00    +0.000 A 
ATOM     56  C   UNL     1       2.327  -4.496   0.000  0.00  0.00    +0.000 A 
ATOM     57  C   UNL     1       2.327  -5.321   0.000  0.00  0.00    +0.000 A 
ATOM     58  C   UNL     1       1.613  -5.734   0.000  0.00  0.00    +0.000 A 
ATOM     59  C   UNL     1       0.898  -5.321   0.000  0.00  0.00    +0.000 A 
ATOM     60  C   UNL     1       0.898  -4.496   0.000  0.00  0.00    +0.000 A 
BRANCH  57  61
ATOM     61  O   UNL     1       3.042  -5.734   0.000  0.00  0.00    +0.000 OA
ATOM     62  C   UNL     1       3.756  -5.321   0.000  0.00  0.00    +0.000 C 
ENDBRANCH  57  61
BRANCH  58  63
ATOM     63  O   UNL     1       1.613  -6.559   0.000  0.00  0.00    +0.000 OA
ATOM     64  C   UNL     1       2.327  -6.971   0.000  0.00  0.00    +0.000 C 
ENDBRANCH  58  63
BRANCH  59  65
ATOM     65  O   UNL     1       0.184  -5.734   0.000  0.00  0.00    +0.000 OA
ATOM     66  C   UNL     1       0.184  -6.559   0.000  0.00  0.00    +0.000 C 
ENDBRANCH  59  65
ENDBRANCH  53  55
BRANCH  50  67
ATOM     67  O   UNL     1       4.470  -3.259   0.000  0.00  0.00    +0.000 OA
ATOM     68  C   UNL     1       5.185  -2.846   0.000  0.00  0.00    +0.000 C 
ENDBRANCH  50  67
BRANCH  49  69
ATOM     69  O   UNL     1       4.470  -1.609   0.000  0.00  0.00    +0.000 OA
ATOM     70  C   UNL     1       4.470  -0.784   0.000  0.00  0.00    +0.000 C 
ENDBRANCH  49  69
ENDBRANCH  43  44
ENDBRANCH  42  43
ENDBRANCH  41  42
ENDBRANCH  40  41
ENDBRANCH  38  40
ENDBRANCH   2  38
TORSDOF 25
