REMARK  Name = 
REMARK  2 active torsions:
REMARK  status: ('A' for Active; 'I' for Inactive)
REMARK    1  A    between atoms: C_5  and  C_8
REMARK    2  A    between atoms: N_10  and  C_11
REMARK                            x       y       z     vdW  Elec       q    Type
REMARK                         _______ _______ _______ _____ _____    ______ ____
ROOT
ATOM      1  C   UNL     1       1.429  -4.950   0.000  0.00  0.00    +0.000 C 
ATOM      2  O   UNL     1       0.715  -5.362   0.000  0.00  0.00    +0.000 OA
ATOM      3  N   UNL     1       2.143  -5.362   0.000  0.00  0.00    +0.000 NA
ENDROOT
BRANCH   1   8
ATOM      4  N   UNL     1       1.429  -1.650   0.000  0.00  0.00    +0.000 NA
ATOM      5  C   UNL     1       1.429  -2.475   0.000  0.00  0.00    +0.000 A 
ATOM      6  C   UNL     1       2.143  -2.888   0.000  0.00  0.00    +0.000 A 
ATOM      7  C   UNL     1       2.143  -3.712   0.000  0.00  0.00    +0.000 A 
ATOM      8  C   UNL     1       1.429  -4.125   0.000  0.00  0.00    +0.000 A 
ATOM      9  C   UNL     1       0.715  -3.712   0.000  0.00  0.00    +0.000 A 
ATOM     10  C   UNL     1       0.715  -2.888   0.000  0.00  0.00    +0.000 A 
ENDBRANCH   1   8
BRANCH   3  11
ATOM     11  C   UNL     1       2.143  -6.188   0.000  0.00  0.00    +0.000 A 
ATOM     12  C   UNL     1       2.858  -6.600   0.000  0.00  0.00    +0.000 A 
ATOM     13  C   UNL     1       2.858  -7.425   0.000  0.00  0.00    +0.000 A 
ATOM     14  C   UNL     1       2.143  -7.838   0.000  0.00  0.00    +0.000 A 
ATOM     15  C   UNL     1       1.429  -7.425   0.000  0.00  0.00    +0.000 A 
ATOM     16  C   UNL     1       1.429  -6.600   0.000  0.00  0.00    +0.000 A 
ATOM     17  N   UNL     1       0.715  -6.188   0.000  0.00  0.00    +0.000 NA
ENDBRANCH   3  11
TORSDOF 2
