REMARK  Name = 
REMARK  9 active torsions:
REMARK  status: ('A' for Active; 'I' for Inactive)
REMARK    1  A    between atoms: C_1  and  C_11
REMARK    2  A    between atoms: C_4  and  C_25
REMARK    3  A    between atoms: N_13  and  C_14
REMARK    4  A    between atoms: C_14  and  C_15
REMARK    5  A    between atoms: N_16  and  C_17
REMARK    6  A    between atoms: C_17  and  C_18
REMARK    7  A    between atoms: C_27  and  C_28
REMARK    8  A    between atoms: C_27  and  C_32
REMARK    9  A    between atoms: C_36  and  C_38
REMARK                            x       y       z     vdW  Elec       q    Type
REMARK                         _______ _______ _______ _____ _____    ______ ____
ROOT
ATOM      1  C   UNL     1       0.760  -1.232   0.000  0.00  0.00    +0.000 A 
ATOM      2  C   UNL     1       0.760  -0.407   0.000  0.00  0.00    +0.000 A 
ATOM      3  C   UNL     1       0.046   0.006   0.000  0.00  0.00    +0.000 A 
ATOM      4  C   UNL     1      -0.669  -0.407   0.000  0.00  0.00    +0.000 A 
ATOM      5  C   UNL     1      -0.669  -1.232   0.000  0.00  0.00    +0.000 A 
ATOM      6  C   UNL     1      -1.383  -1.644   0.000  0.00  0.00    +0.000 A 
ATOM      7  C   UNL     1      -1.383  -2.469   0.000  0.00  0.00    +0.000 A 
ATOM      8  C   UNL     1      -0.669  -2.882   0.000  0.00  0.00    +0.000 A 
ATOM      9  C   UNL     1       0.046  -2.469   0.000  0.00  0.00    +0.000 A 
ATOM     10  C   UNL     1       0.046  -1.644   0.000  0.00  0.00    +0.000 A 
ENDROOT
BRANCH   4  13
ATOM     11  O   UNL     1      -2.277   0.998   0.000  0.00  0.00    +0.000 OA
ATOM     12  N   UNL     1      -1.470   0.826   0.000  0.00  0.00    +0.000 NA
ATOM     13  C   UNL     1      -1.383   0.006   0.000  0.00  0.00    +0.000 C 
ATOM     14  C   UNL     1      -2.137  -0.330   0.000  0.00  0.00    +0.000 C 
ATOM     15  C   UNL     1      -2.689   0.283   0.000  0.00  0.00    +0.000 C 
BRANCH  15  16
ATOM     16  C   UNL     1      -3.618   0.819   0.000  0.00  0.00    +0.000 A 
ATOM     17  C   UNL     1      -3.618   1.644   0.000  0.00  0.00    +0.000 A 
ATOM     18  C   UNL     1      -4.332   2.057   0.000  0.00  0.00    +0.000 A 
ATOM     19  C   UNL     1      -5.047   1.644   0.000  0.00  0.00    +0.000 A 
ATOM     20  C   UNL     1      -5.047   0.819   0.000  0.00  0.00    +0.000 A 
ATOM     21  C   UNL     1      -4.332   0.407   0.000  0.00  0.00    +0.000 A 
ATOM     22 CL   UNL     1      -4.332   2.882   0.000  0.00  0.00    +0.000 Cl
BRANCH  20  23
ATOM     23  C   UNL     1      -5.761   0.407   0.000  0.00  0.00    +0.000 C 
ATOM     24  F   UNL     1      -6.476  -0.006   0.000  0.00  0.00    +0.000 F 
ATOM     25  F   UNL     1      -6.174   1.121   0.000  0.00  0.00    +0.000 F 
ATOM     26  F   UNL     1      -5.349  -0.308   0.000  0.00  0.00    +0.000 F 
ENDBRANCH  20  23
ENDBRANCH  15  16
BRANCH  15  27
ATOM     27  C   UNL     1      -3.262  -0.310   0.000  0.00  0.00    +0.000 C 
ATOM     28  F   UNL     1      -2.968  -1.037   0.000  0.00  0.00    +0.000 F 
ATOM     29  F   UNL     1      -3.846  -0.894   0.000  0.00  0.00    +0.000 F 
ATOM     30  F   UNL     1      -4.026  -0.030   0.000  0.00  0.00    +0.000 F 
ENDBRANCH  15  27
ENDBRANCH   4  13
BRANCH   1  31
ATOM     31  C   UNL     1       1.474  -1.644   0.000  0.00  0.00    +0.000 C 
ATOM     32  O   UNL     1       1.474  -2.469   0.000  0.00  0.00    +0.000 OA
ATOM     33  N   UNL     1       2.189  -1.232   0.000  0.00  0.00    +0.000 NA
BRANCH  33  34
ATOM     34  C   UNL     1       2.903  -1.644   0.000  0.00  0.00    +0.000 C 
BRANCH  34  35
ATOM     35  C   UNL     1       3.618  -1.232   0.000  0.00  0.00    +0.000 C 
ATOM     36  N   UNL     1       4.332  -1.644   0.000  0.00  0.00    +0.000 NA
ATOM     37  O   UNL     1       3.618  -0.407   0.000  0.00  0.00    +0.000 OA
BRANCH  36  38
ATOM     38  C   UNL     1       5.047  -1.232   0.000  0.00  0.00    +0.000 C 
BRANCH  38  39
ATOM     39  C   UNL     1       5.761  -1.644   0.000  0.00  0.00    +0.000 C 
ATOM     40  F   UNL     1       6.476  -2.057   0.000  0.00  0.00    +0.000 F 
ATOM     41  F   UNL     1       6.174  -0.930   0.000  0.00  0.00    +0.000 F 
ATOM     42  F   UNL     1       5.349  -2.359   0.000  0.00  0.00    +0.000 F 
ENDBRANCH  38  39
ENDBRANCH  36  38
ENDBRANCH  34  35
ENDBRANCH  33  34
ENDBRANCH   1  31
TORSDOF 9
