REMARK  Name = 
REMARK  11 active torsions:
REMARK  status: ('A' for Active; 'I' for Inactive)
REMARK    1  A    between atoms: C_2  and  C_3
REMARK    2  A    between atoms: C_3  and  C_4
REMARK    3  A    between atoms: C_4  and  O_5
REMARK    4  A    between atoms: O_5  and  C_6
REMARK    5  A    between atoms: C_14  and  C_16
REMARK    6  A    between atoms: C_16  and  C_17
REMARK    7  A    between atoms: C_16  and  N_22
REMARK    8  A    between atoms: C_17  and  P_18
REMARK    9  A    between atoms: C_23  and  C_25
REMARK   10  A    between atoms: C_29  and  C_31
REMARK   11  A    between atoms: C_40  and  O_42
REMARK                            x       y       z     vdW  Elec       q    Type
REMARK                         _______ _______ _______ _____ _____    ______ ____
ROOT
ATOM      1  N   UNL     1       7.859   0.412   0.000  0.00  0.00    +0.000 NA
ATOM      2  C   UNL     1       7.859  -0.412   0.000  0.00  0.00    +0.000 C 
ATOM      3  O   UNL     1       8.574  -0.825   0.000  0.00  0.00    +0.000 OA
ENDROOT
BRANCH   2   4
ATOM      4  C   UNL     1       7.145  -0.825   0.000  0.00  0.00    +0.000 A 
ATOM      5  C   UNL     1       7.145  -1.650   0.000  0.00  0.00    +0.000 A 
ATOM      6  C   UNL     1       6.430  -2.062   0.000  0.00  0.00    +0.000 A 
ATOM      7  N   UNL     1       5.716  -1.650   0.000  0.00  0.00    +0.000 NA
ATOM      8  C   UNL     1       5.716  -0.825   0.000  0.00  0.00    +0.000 A 
ATOM      9  N   UNL     1       6.430  -0.412   0.000  0.00  0.00    +0.000 NA
ATOM     10  N   UNL     1       6.430  -2.888   0.000  0.00  0.00    +0.000 N 
ATOM     11  C   UNL     1       7.098  -3.372   0.000  0.00  0.00    +0.000 C 
ATOM     12  C   UNL     1       6.843  -4.157   0.000  0.00  0.00    +0.000 C 
ATOM     13  C   UNL     1       6.018  -4.157   0.000  0.00  0.00    +0.000 C 
ATOM     14  C   UNL     1       5.763  -3.372   0.000  0.00  0.00    +0.000 C 
BRANCH   8  15
ATOM     15  C   UNL     1       5.001  -0.412   0.000  0.00  0.00    +0.000 A 
ATOM     16  C   UNL     1       4.287  -0.825   0.000  0.00  0.00    +0.000 A 
ATOM     17  C   UNL     1       3.572  -0.412   0.000  0.00  0.00    +0.000 A 
ATOM     18  C   UNL     1       3.572   0.412   0.000  0.00  0.00    +0.000 A 
ATOM     19  C   UNL     1       4.287   0.825   0.000  0.00  0.00    +0.000 A 
ATOM     20  C   UNL     1       5.001   0.412   0.000  0.00  0.00    +0.000 A 
ENDBRANCH   8  15
BRANCH  13  21
ATOM     21  O   UNL     1       5.533  -4.824   0.000  0.00  0.00    +0.000 OA
ATOM     22  C   UNL     1       5.868  -5.578   0.000  0.00  0.00    +0.000 C 
ENDBRANCH  13  21
ENDBRANCH   2   4
BRANCH   1  23
ATOM     23  C   UNL     1       8.574   0.825   0.000  0.00  0.00    +0.000 C 
BRANCH  23  32
ATOM     24  C   UNL     1       5.716   3.300   0.000  0.00  0.00    +0.000 C 
ATOM     25  O   UNL     1       5.716   4.125   0.000  0.00  0.00    +0.000 OA
ATOM     26  N   UNL     1       6.430   2.888   0.000  0.00  0.00    +0.000 N 
ATOM     27  C   UNL     1       7.145   3.300   0.000  0.00  0.00    +0.000 C 
ATOM     28  C   UNL     1       7.859   2.888   0.000  0.00  0.00    +0.000 C 
ATOM     29  N   UNL     1       7.859   2.062   0.000  0.00  0.00    +0.000 N 
ATOM     30  C   UNL     1       7.145   1.650   0.000  0.00  0.00    +0.000 C 
ATOM     31  C   UNL     1       6.430   2.062   0.000  0.00  0.00    +0.000 C 
ATOM     32  C   UNL     1       8.574   1.650   0.000  0.00  0.00    +0.000 C 
ATOM     33  O   UNL     1       9.288   2.062   0.000  0.00  0.00    +0.000 OA
BRANCH  24  34
ATOM     34  O   UNL     1       5.001   2.888   0.000  0.00  0.00    +0.000 OA
BRANCH  34  35
ATOM     35  C   UNL     1       4.287   3.300   0.000  0.00  0.00    +0.000 C 
BRANCH  35  36
ATOM     36  C   UNL     1       3.572   2.888   0.000  0.00  0.00    +0.000 C 
BRANCH  36  38
ATOM     37  C   UNL     1       2.143   2.888   0.000  0.00  0.00    +0.000 C 
ATOM     38  C   UNL     1       2.858   3.300   0.000  0.00  0.00    +0.000 C 
ENDBRANCH  36  38
ENDBRANCH  35  36
ENDBRANCH  34  35
ENDBRANCH  24  34
ENDBRANCH  23  32
BRANCH  23  39
ATOM     39  C   UNL     1       9.288   0.412   0.000  0.00  0.00    +0.000 C 
BRANCH  39  40
ATOM     40  P   UNL     1      10.003   0.825   0.000  0.00  0.00    +0.000 P 
ATOM     41  O   UNL     1       9.590   1.540   0.000  0.00  0.00    +0.000 OA
ATOM     42  O   UNL     1      10.717   1.238   0.000  0.00  0.00    +0.000 OA
ATOM     43  O   UNL     1      10.415   0.111   0.000  0.00  0.00    +0.000 OA
ENDBRANCH  39  40
ENDBRANCH  23  39
ENDBRANCH   1  23
TORSDOF 11
