REMARK  Name = 
REMARK  4 active torsions:
REMARK  status: ('A' for Active; 'I' for Inactive)
REMARK    1  A    between atoms: N_4  and  C_5
REMARK    2  A    between atoms: C_5  and  C_6
REMARK    3  A    between atoms: C_12  and  S_16
REMARK    4  A    between atoms: S_16  and  C_19
REMARK                            x       y       z     vdW  Elec       q    Type
REMARK                         _______ _______ _______ _____ _____    ______ ____
ROOT
ATOM      1  C   UNL     1       1.429  -1.650   0.000  0.00  0.00    +0.000 C 
ATOM      2  C   UNL     1       0.715  -1.238   0.000  0.00  0.00    +0.000 C 
ATOM      3  C   UNL     1       0.715  -0.412   0.000  0.00  0.00    +0.000 C 
ATOM      4  C   UNL     1       1.429   0.000   0.000  0.00  0.00    +0.000 C 
ATOM      5  C   UNL     1       2.143  -0.412   0.000  0.00  0.00    +0.000 A 
ATOM      6  C   UNL     1       2.858   0.000   0.000  0.00  0.00    +0.000 A 
ATOM      7  C   UNL     1       3.572  -0.412   0.000  0.00  0.00    +0.000 A 
ATOM      8  C   UNL     1       3.572  -1.238   0.000  0.00  0.00    +0.000 A 
ATOM      9  C   UNL     1       2.858  -1.650   0.000  0.00  0.00    +0.000 A 
ATOM     10  C   UNL     1       2.143  -1.238   0.000  0.00  0.00    +0.000 A 
ENDROOT
BRANCH   7  11
ATOM     11  S   UNL     1       4.287   0.000   0.000  0.00  0.00    +0.000 S 
ATOM     12  O   UNL     1       4.699  -0.715   0.000  0.00  0.00    +0.000 OA
ATOM     13  O   UNL     1       3.874   0.715   0.000  0.00  0.00    +0.000 OA
BRANCH  11  14
ATOM     14  C   UNL     1       5.001   0.412   0.000  0.00  0.00    +0.000 A 
ATOM     15  C   UNL     1       5.001   1.238   0.000  0.00  0.00    +0.000 A 
ATOM     16  C   UNL     1       5.716   1.650   0.000  0.00  0.00    +0.000 A 
ATOM     17  F   UNL     1       5.716   2.475   0.000  0.00  0.00    +0.000 F 
ATOM     18  C   UNL     1       6.430   1.238   0.000  0.00  0.00    +0.000 A 
ATOM     19  C   UNL     1       6.430   0.412   0.000  0.00  0.00    +0.000 A 
ATOM     20  C   UNL     1       5.716   0.000   0.000  0.00  0.00    +0.000 A 
ENDBRANCH  11  14
ENDBRANCH   7  11
BRANCH   1  21
ATOM     21  C   UNL     1       1.429  -2.475   0.000  0.00  0.00    +0.000 C 
BRANCH  21  25
ATOM     22  N   UNL     1       0.000  -4.125   0.000  0.00  0.00    +0.000 NA
ATOM     23  C   UNL     1       0.715  -3.712   0.000  0.00  0.00    +0.000 C 
ATOM     24  O   UNL     1       1.429  -4.125   0.000  0.00  0.00    +0.000 OA
ATOM     25  N   UNL     1       0.715  -2.888   0.000  0.00  0.00    +0.000 NA
ENDBRANCH  21  25
ENDBRANCH   1  21
TORSDOF 4
