REMARK  Name = 
REMARK  12 active torsions:
REMARK  status: ('A' for Active; 'I' for Inactive)
REMARK    1  A    between atoms: C_2  and  O_4
REMARK    2  A    between atoms: O_4  and  C_5
REMARK    3  A    between atoms: C_5  and  C_7
REMARK    4  A    between atoms: C_7  and  N_8
REMARK    5  A    between atoms: N_8  and  C_9
REMARK    6  A    between atoms: C_13  and  C_14
REMARK    7  A    between atoms: C_14  and  N_15
REMARK    8  A    between atoms: N_15  and  C_16
REMARK    9  A    between atoms: N_15  and  S_28
REMARK   10  A    between atoms: C_16  and  C_17
REMARK   11  A    between atoms: C_20  and  N_23
REMARK   12  A    between atoms: S_28  and  C_31
REMARK                            x       y       z     vdW  Elec       q    Type
REMARK                         _______ _______ _______ _____ _____    ______ ____
ROOT
ATOM      1  N   UNL     1       7.999  -1.922   0.000  0.00  0.00    +0.000 NA
ENDROOT
BRANCH   1   2
ATOM      2  S   UNL     1       7.999  -1.097   0.000  0.00  0.00    +0.000 S 
ATOM      3  O   UNL     1       7.999  -0.272   0.000  0.00  0.00    +0.000 OA
ATOM      4  O   UNL     1       7.174  -1.097   0.000  0.00  0.00    +0.000 OA
BRANCH   2   5
ATOM      5  C   UNL     1       8.824  -1.097   0.000  0.00  0.00    +0.000 A 
ATOM      6  C   UNL     1       9.237  -0.383   0.000  0.00  0.00    +0.000 A 
ATOM      7  C   UNL     1      10.062  -0.383   0.000  0.00  0.00    +0.000 A 
ATOM      8  C   UNL     1      10.474  -1.097   0.000  0.00  0.00    +0.000 A 
ATOM      9  N   UNL     1      10.062  -1.812   0.000  0.00  0.00    +0.000 NA
ATOM     10  C   UNL     1       9.237  -1.812   0.000  0.00  0.00    +0.000 A 
ENDBRANCH   2   5
ENDBRANCH   1   2
BRANCH   1  11
ATOM     11  C   UNL     1       7.285  -2.335   0.000  0.00  0.00    +0.000 C 
BRANCH  11  12
ATOM     12  C   UNL     1       6.570  -1.922   0.000  0.00  0.00    +0.000 A 
ATOM     13  C   UNL     1       5.856  -2.335   0.000  0.00  0.00    +0.000 A 
ATOM     14  C   UNL     1       5.141  -1.922   0.000  0.00  0.00    +0.000 A 
ATOM     15  C   UNL     1       5.141  -1.097   0.000  0.00  0.00    +0.000 A 
ATOM     16  C   UNL     1       5.856  -0.685   0.000  0.00  0.00    +0.000 A 
ATOM     17  C   UNL     1       6.570  -1.097   0.000  0.00  0.00    +0.000 A 
BRANCH  15  18
ATOM     18  N   UNL     1       4.427  -0.685   0.000  0.00  0.00    +0.000 N 
ATOM     19  C   UNL     1       3.673  -1.020   0.000  0.00  0.00    +0.000 A 
ATOM     20  C   UNL     1       3.121  -0.407   0.000  0.00  0.00    +0.000 A 
ATOM     21  C   UNL     1       3.534   0.307   0.000  0.00  0.00    +0.000 A 
ATOM     22  N   UNL     1       4.341   0.136   0.000  0.00  0.00    +0.000 NA
ENDBRANCH  15  18
ENDBRANCH  11  12
ENDBRANCH   1  11
BRANCH   1  23
ATOM     23  C   UNL     1       8.714  -2.335   0.000  0.00  0.00    +0.000 C 
BRANCH  23  28
ATOM     24  C   UNL     1       7.999  -4.397   0.000  0.00  0.00    +0.000 A 
ATOM     25  C   UNL     1       8.714  -4.810   0.000  0.00  0.00    +0.000 A 
ATOM     26  C   UNL     1       9.428  -4.397   0.000  0.00  0.00    +0.000 A 
ATOM     27  C   UNL     1       9.428  -3.572   0.000  0.00  0.00    +0.000 A 
ATOM     28  C   UNL     1       8.714  -3.160   0.000  0.00  0.00    +0.000 A 
ATOM     29  N   UNL     1       7.999  -3.572   0.000  0.00  0.00    +0.000 NA
BRANCH  24  30
ATOM     30  N   UNL     1       7.285  -4.810   0.000  0.00  0.00    +0.000 NA
BRANCH  30  31
ATOM     31  C   UNL     1       6.570  -4.397   0.000  0.00  0.00    +0.000 C 
BRANCH  31  32
ATOM     32  C   UNL     1       5.856  -4.810   0.000  0.00  0.00    +0.000 C 
ATOM     33  O   UNL     1       5.856  -5.635   0.000  0.00  0.00    +0.000 OA
BRANCH  32  34
ATOM     34  O   UNL     1       5.141  -4.397   0.000  0.00  0.00    +0.000 OA
BRANCH  34  36
ATOM     35  C   UNL     1       3.712  -4.397   0.000  0.00  0.00    +0.000 C 
ATOM     36  C   UNL     1       4.427  -4.810   0.000  0.00  0.00    +0.000 C 
ATOM     37  C   UNL     1       4.427  -5.635   0.000  0.00  0.00    +0.000 C 
ENDBRANCH  34  36
ENDBRANCH  32  34
ENDBRANCH  31  32
ENDBRANCH  30  31
ENDBRANCH  24  30
ENDBRANCH  23  28
ENDBRANCH   1  23
TORSDOF 12
