REMARK  Name = 
REMARK  3 active torsions:
REMARK  status: ('A' for Active; 'I' for Inactive)
REMARK    1  A    between atoms: C_5  and  N_20
REMARK    2  A    between atoms: N_10  and  S_11
REMARK    3  A    between atoms: S_11  and  C_14
REMARK                            x       y       z     vdW  Elec       q    Type
REMARK                         _______ _______ _______ _____ _____    ______ ____
ROOT
ATOM      1  C   UNL     1      -0.171  -0.698   0.000  0.00  0.00    +0.000 C 
ATOM      2  C   UNL     1       0.654  -0.698   0.000  0.00  0.00    +0.000 A 
ATOM      3  N   UNL     1       1.139  -0.030   0.000  0.00  0.00    +0.000 NA
ATOM      4  C   UNL     1       1.923  -0.285   0.000  0.00  0.00    +0.000 A 
ATOM      5  C   UNL     1       2.638   0.127   0.000  0.00  0.00    +0.000 A 
ATOM      6  C   UNL     1       3.352  -0.285   0.000  0.00  0.00    +0.000 A 
ATOM      7  C   UNL     1       3.352  -1.110   0.000  0.00  0.00    +0.000 A 
ATOM      8  C   UNL     1       2.638  -1.523   0.000  0.00  0.00    +0.000 A 
ATOM      9  C   UNL     1       1.923  -1.110   0.000  0.00  0.00    +0.000 A 
ATOM     10  N   UNL     1       1.139  -1.365   0.000  0.00  0.00    +0.000 N 
ENDROOT
BRANCH   5  11
ATOM     11  N   UNL     1       2.638   0.952   0.000  0.00  0.00    +0.000 N 
ATOM     12  C   UNL     1       1.923   1.365   0.000  0.00  0.00    +0.000 C 
ATOM     13  C   UNL     1       1.923   2.190   0.000  0.00  0.00    +0.000 C 
ATOM     14  N   UNL     1       2.638   2.602   0.000  0.00  0.00    +0.000 NA
ATOM     15  C   UNL     1       3.352   2.190   0.000  0.00  0.00    +0.000 C 
ATOM     16  C   UNL     1       3.352   1.365   0.000  0.00  0.00    +0.000 C 
ENDBRANCH   5  11
BRANCH  10  17
ATOM     17  S   UNL     1       0.884  -2.150   0.000  0.00  0.00    +0.000 S 
ATOM     18  O   UNL     1       1.668  -2.405   0.000  0.00  0.00    +0.000 OA
ATOM     19  O   UNL     1       0.099  -1.895   0.000  0.00  0.00    +0.000 OA
BRANCH  17  20
ATOM     20  C   UNL     1       0.629  -2.935   0.000  0.00  0.00    +0.000 A 
ATOM     21  C   UNL     1       1.181  -3.548   0.000  0.00  0.00    +0.000 A 
ATOM     22  C   UNL     1       0.926  -4.332   0.000  0.00  0.00    +0.000 A 
ATOM     23  C   UNL     1       0.119  -4.504   0.000  0.00  0.00    +0.000 A 
ATOM     24  C   UNL     1      -0.433  -3.891   0.000  0.00  0.00    +0.000 A 
ATOM     25  C   UNL     1      -0.178  -3.106   0.000  0.00  0.00    +0.000 A 
ENDBRANCH  17  20
ENDBRANCH  10  17
TORSDOF 3
