REMARK  Name = 
REMARK  6 active torsions:
REMARK  status: ('A' for Active; 'I' for Inactive)
REMARK    1  A    between atoms: C_5  and  N_8
REMARK    2  A    between atoms: N_17  and  C_25
REMARK    3  A    between atoms: C_19  and  C_22
REMARK    4  A    between atoms: C_33  and  N_36
REMARK    5  A    between atoms: N_45  and  C_53
REMARK    6  A    between atoms: C_47  and  C_50
REMARK                            x       y       z     vdW  Elec       q    Type
REMARK                         _______ _______ _______ _____ _____    ______ ____
ROOT
ATOM      1  C   UNL     1       1.255  -0.727   0.000  0.00  0.00    +0.000 A 
ATOM      2  C   UNL     1       1.169   0.093   0.000  0.00  0.00    +0.000 A 
ATOM      3  C   UNL     1       0.415   0.429   0.000  0.00  0.00    +0.000 A 
ATOM      4  C   UNL     1      -0.253  -0.056   0.000  0.00  0.00    +0.000 A 
ATOM      5  C   UNL     1      -0.166  -0.877   0.000  0.00  0.00    +0.000 A 
ATOM      6  C   UNL     1       0.587  -1.212   0.000  0.00  0.00    +0.000 A 
ATOM      7  F   UNL     1       0.674  -2.033   0.000  0.00  0.00    +0.000 F 
ATOM      8 CL   UNL     1      -1.006   0.280   0.000  0.00  0.00    +0.000 Cl
ATOM      9  N   UNL     1       0.329   1.249   0.000  0.00  0.00    +0.000 N 
ATOM     10  C   UNL     1       0.996   1.734   0.000  0.00  0.00    +0.000 A 
ATOM     11  C   UNL     1       1.750   1.399   0.000  0.00  0.00    +0.000 A 
ATOM     12  C   UNL     1       1.836   0.578   0.000  0.00  0.00    +0.000 A 
ATOM     13  O   UNL     1       2.590   0.243   0.000  0.00  0.00    +0.000 OA
ENDROOT
BRANCH   5  14
ATOM     14  N   UNL     1      -0.834  -1.361   0.000  0.00  0.00    +0.000 N 
ATOM     15  C   UNL     1      -0.834  -2.187   0.000  0.00  0.00    +0.000 C 
ATOM     16  C   UNL     1      -1.618  -2.441   0.000  0.00  0.00    +0.000 C 
ATOM     17  C   UNL     1      -2.103  -1.774   0.000  0.00  0.00    +0.000 C 
ATOM     18  C   UNL     1      -1.618  -1.107   0.000  0.00  0.00    +0.000 C 
ATOM     19  C   UNL     1      -2.818  -2.187   0.000  0.00  0.00    +0.000 C 
ATOM     20  C   UNL     1      -2.818  -1.361   0.000  0.00  0.00    +0.000 C 
ATOM     21  N   UNL     1      -1.873  -3.226   0.000  0.00  0.00    +0.000 NA
ENDBRANCH   5  14
BRANCH   9  22
ATOM     22  C   UNL     1      -0.425   1.585   0.000  0.00  0.00    +0.000 C 
ATOM     23  C   UNL     1      -1.246   1.499   0.000  0.00  0.00    +0.000 C 
ATOM     24  C   UNL     1      -0.910   2.252   0.000  0.00  0.00    +0.000 C 
ATOM     25  F   UNL     1      -0.996   3.073   0.000  0.00  0.00    +0.000 F 
ENDBRANCH   9  22
BRANCH  11  26
ATOM     26  C   UNL     1       2.417   1.884   0.000  0.00  0.00    +0.000 C 
ATOM     27  O   UNL     1       2.331   2.704   0.000  0.00  0.00    +0.000 OA
ATOM     28  O   UNL     1       3.171   1.548   0.000  0.00  0.00    +0.000 OA
ENDBRANCH  11  26
TORSDOF 3
REMARK  Name = 
REMARK  6 active torsions:
REMARK  status: ('A' for Active; 'I' for Inactive)
REMARK    1  A    between atoms: C_5  and  N_8
REMARK    2  A    between atoms: N_17  and  C_25
REMARK    3  A    between atoms: C_19  and  C_22
REMARK    4  A    between atoms: C_33  and  N_36
REMARK    5  A    between atoms: N_45  and  C_53
REMARK    6  A    between atoms: C_47  and  C_50
REMARK                            x       y       z     vdW  Elec       q    Type
REMARK                         _______ _______ _______ _____ _____    ______ ____
ROOT
ATOM      1  C   UNL     1       9.601  -0.727   0.000  0.00  0.00    +0.000 A 
ATOM      2  C   UNL     1       9.514   0.093   0.000  0.00  0.00    +0.000 A 
ATOM      3  C   UNL     1       8.761   0.429   0.000  0.00  0.00    +0.000 A 
ATOM      4  C   UNL     1       8.093  -0.056   0.000  0.00  0.00    +0.000 A 
ATOM      5  C   UNL     1       8.180  -0.877   0.000  0.00  0.00    +0.000 A 
ATOM      6  C   UNL     1       8.933  -1.212   0.000  0.00  0.00    +0.000 A 
ATOM      7  F   UNL     1       9.019  -2.033   0.000  0.00  0.00    +0.000 F 
ATOM      8 CL   UNL     1       7.340   0.280   0.000  0.00  0.00    +0.000 Cl
ATOM      9  N   UNL     1       8.674   1.249   0.000  0.00  0.00    +0.000 N 
ATOM     10  C   UNL     1       9.342   1.734   0.000  0.00  0.00    +0.000 A 
ATOM     11  C   UNL     1      10.095   1.399   0.000  0.00  0.00    +0.000 A 
ATOM     12  C   UNL     1      10.182   0.578   0.000  0.00  0.00    +0.000 A 
ATOM     13  O   UNL     1      10.935   0.243   0.000  0.00  0.00    +0.000 OA
ENDROOT
BRANCH   5  14
ATOM     14  N   UNL     1       7.512  -1.361   0.000  0.00  0.00    +0.000 N 
ATOM     15  C   UNL     1       7.512  -2.187   0.000  0.00  0.00    +0.000 C 
ATOM     16  C   UNL     1       6.727  -2.441   0.000  0.00  0.00    +0.000 C 
ATOM     17  C   UNL     1       6.242  -1.774   0.000  0.00  0.00    +0.000 C 
ATOM     18  C   UNL     1       6.727  -1.107   0.000  0.00  0.00    +0.000 C 
ATOM     19  C   UNL     1       5.528  -2.187   0.000  0.00  0.00    +0.000 C 
ATOM     20  C   UNL     1       5.528  -1.361   0.000  0.00  0.00    +0.000 C 
ATOM     21  N   UNL     1       6.473  -3.226   0.000  0.00  0.00    +0.000 NA
ENDBRANCH   5  14
BRANCH   9  22
ATOM     22  C   UNL     1       7.921   1.585   0.000  0.00  0.00    +0.000 C 
ATOM     23  C   UNL     1       7.100   1.499   0.000  0.00  0.00    +0.000 C 
ATOM     24  C   UNL     1       7.436   2.252   0.000  0.00  0.00    +0.000 C 
ATOM     25  F   UNL     1       7.350   3.073   0.000  0.00  0.00    +0.000 F 
ENDBRANCH   9  22
BRANCH  11  26
ATOM     26  C   UNL     1      10.763   1.884   0.000  0.00  0.00    +0.000 C 
ATOM     27  O   UNL     1      10.677   2.704   0.000  0.00  0.00    +0.000 OA
ATOM     28  O   UNL     1      11.517   1.548   0.000  0.00  0.00    +0.000 OA
ENDBRANCH  11  26
TORSDOF 3
REMARK  Name = 
REMARK  6 active torsions:
REMARK  status: ('A' for Active; 'I' for Inactive)
REMARK    1  A    between atoms: C_5  and  N_8
REMARK    2  A    between atoms: N_17  and  C_25
REMARK    3  A    between atoms: C_19  and  C_22
REMARK    4  A    between atoms: C_33  and  N_36
REMARK    5  A    between atoms: N_45  and  C_53
REMARK    6  A    between atoms: C_47  and  C_50
REMARK                            x       y       z     vdW  Elec       q    Type
REMARK                         _______ _______ _______ _____ _____    ______ ____
ROOT
ATOM      1  O   HOH     1      13.874   0.000   0.000  0.00  0.00    +0.000 OA
ENDROOT
TORSDOF 0
REMARK  Name = 
REMARK  6 active torsions:
REMARK  status: ('A' for Active; 'I' for Inactive)
REMARK    1  A    between atoms: C_5  and  N_8
REMARK    2  A    between atoms: N_17  and  C_25
REMARK    3  A    between atoms: C_19  and  C_22
REMARK    4  A    between atoms: C_33  and  N_36
REMARK    5  A    between atoms: N_45  and  C_53
REMARK    6  A    between atoms: C_47  and  C_50
REMARK                            x       y       z     vdW  Elec       q    Type
REMARK                         _______ _______ _______ _____ _____    ______ ____
ROOT
ATOM      1  O   HOH     1       0.000  -4.876   0.000  0.00  0.00    +0.000 OA
ENDROOT
TORSDOF 0
REMARK  Name = 
REMARK  6 active torsions:
REMARK  status: ('A' for Active; 'I' for Inactive)
REMARK    1  A    between atoms: C_5  and  N_8
REMARK    2  A    between atoms: N_17  and  C_25
REMARK    3  A    between atoms: C_19  and  C_22
REMARK    4  A    between atoms: C_33  and  N_36
REMARK    5  A    between atoms: N_45  and  C_53
REMARK    6  A    between atoms: C_47  and  C_50
REMARK                            x       y       z     vdW  Elec       q    Type
REMARK                         _______ _______ _______ _____ _____    ______ ____
ROOT
ATOM      1  O   HOH     1       2.357  -4.876   0.000  0.00  0.00    +0.000 OA
ENDROOT
TORSDOF 0
