REMARK  Name = 
REMARK  2 active torsions:
REMARK  status: ('A' for Active; 'I' for Inactive)
REMARK    1  A    between atoms: C_5  and  N_8
REMARK    2  A    between atoms: N_19  and  C_20
REMARK                            x       y       z     vdW  Elec       q    Type
REMARK                         _______ _______ _______ _____ _____    ______ ____
ROOT
ATOM      1  N   UNL     1      -1.429   0.000   0.000  0.00  0.00    +0.000 NA
ATOM      2  C   UNL     1      -0.715  -0.412   0.000  0.00  0.00    +0.000 A 
ATOM      3  N   UNL     1      -0.715  -1.238   0.000  0.00  0.00    +0.000 NA
ATOM      4  C   UNL     1       0.000  -1.650   0.000  0.00  0.00    +0.000 A 
ATOM      5  C   UNL     1       0.715  -1.238   0.000  0.00  0.00    +0.000 A 
ATOM      6  C   UNL     1       0.715  -0.412   0.000  0.00  0.00    +0.000 A 
ATOM      7  N   UNL     1       0.000   0.000   0.000  0.00  0.00    +0.000 NA
ATOM      8  C   UNL     1       1.429   0.000   0.000  0.00  0.00    +0.000 A 
ATOM      9  N   UNL     1       2.143  -0.412   0.000  0.00  0.00    +0.000 NA
ATOM     10  C   UNL     1       2.143  -1.238   0.000  0.00  0.00    +0.000 A 
ATOM     11  N   UNL     1       1.429  -1.650   0.000  0.00  0.00    +0.000 NA
ATOM     12  N   UNL     1       1.429   0.825   0.000  0.00  0.00    +0.000 NA
ENDROOT
BRANCH  12  13
ATOM     13  C   UNL     1       2.143   1.238   0.000  0.00  0.00    +0.000 A 
ATOM     14  C   UNL     1       2.143   2.062   0.000  0.00  0.00    +0.000 A 
ATOM     15  C   UNL     1       2.858   2.475   0.000  0.00  0.00    +0.000 A 
ATOM     16  C   UNL     1       3.572   2.062   0.000  0.00  0.00    +0.000 A 
ATOM     17  C   UNL     1       3.572   1.238   0.000  0.00  0.00    +0.000 A 
ATOM     18  C   UNL     1       2.858   0.825   0.000  0.00  0.00    +0.000 A 
ATOM     19 CL   UNL     1       4.287   0.825   0.000  0.00  0.00    +0.000 Cl
ATOM     20  F   UNL     1       4.287   2.475   0.000  0.00  0.00    +0.000 F 
ENDBRANCH  12  13
BRANCH   1  25
ATOM     21  C   UNL     1      -4.287  -1.650   0.000  0.00  0.00    +0.000 C 
ATOM     22  N   UNL     1      -3.572  -1.238   0.000  0.00  0.00    +0.000 NA
ATOM     23  C   UNL     1      -3.572  -0.412   0.000  0.00  0.00    +0.000 C 
ATOM     24  C   UNL     1      -2.858   0.000   0.000  0.00  0.00    +0.000 C 
ATOM     25  C   UNL     1      -2.143  -0.412   0.000  0.00  0.00    +0.000 C 
ATOM     26  C   UNL     1      -2.143  -1.238   0.000  0.00  0.00    +0.000 C 
ATOM     27  C   UNL     1      -2.858  -1.650   0.000  0.00  0.00    +0.000 C 
ENDBRANCH   1  25
TORSDOF 2
