REMARK  Name = 
REMARK  4 active torsions:
REMARK  status: ('A' for Active; 'I' for Inactive)
REMARK    1  A    between atoms: C_4  and  C_7
REMARK    2  A    between atoms: C_7  and  C_8
REMARK    3  A    between atoms: C_8  and  O_9
REMARK    4  A    between atoms: O_9  and  C_10
REMARK                            x       y       z     vdW  Elec       q    Type
REMARK                         _______ _______ _______ _____ _____    ______ ____
ROOT
ATOM      1  C   UNL     1       0.715   2.888   0.000  0.00  0.00    +0.000 C 
ATOM      2  O   UNL     1       0.715   3.712   0.000  0.00  0.00    +0.000 OA
ENDROOT
BRANCH   1   6
ATOM      3  C   UNL     1      -1.429   1.650   0.000  0.00  0.00    +0.000 A 
ATOM      4  C   UNL     1      -1.429   2.475   0.000  0.00  0.00    +0.000 A 
ATOM      5  C   UNL     1      -0.715   2.888   0.000  0.00  0.00    +0.000 A 
ATOM      6  C   UNL     1       0.000   2.475   0.000  0.00  0.00    +0.000 A 
ATOM      7  C   UNL     1       0.000   1.650   0.000  0.00  0.00    +0.000 A 
ATOM      8  C   UNL     1      -0.715   1.238   0.000  0.00  0.00    +0.000 A 
ENDBRANCH   1   6
BRANCH   1   9
ATOM      9  C   UNL     1       1.429   2.475   0.000  0.00  0.00    +0.000 C 
BRANCH   9  10
ATOM     10  O   UNL     1       2.143   2.888   0.000  0.00  0.00    +0.000 OA
BRANCH  10  11
ATOM     11  C   UNL     1       2.858   2.475   0.000  0.00  0.00    +0.000 C 
ATOM     12  O   UNL     1       3.572   2.888   0.000  0.00  0.00    +0.000 OA
ATOM     13  N   UNL     1       2.858   1.650   0.000  0.00  0.00    +0.000 NA
ENDBRANCH  10  11
ENDBRANCH   9  10
ENDBRANCH   1   9
TORSDOF 4
