REMARK  Name = 
REMARK  5 active torsions:
REMARK  status: ('A' for Active; 'I' for Inactive)
REMARK    1  A    between atoms: C_8  and  C_18
REMARK    2  A    between atoms: C_16  and  C_20
REMARK    3  A    between atoms: C_16  and  O_21
REMARK    4  A    between atoms: C_18  and  C_24
REMARK    5  A    between atoms: O_21  and  C_24
REMARK                            x       y       z     vdW  Elec       q    Type
REMARK                         _______ _______ _______ _____ _____    ______ ____
ROOT
ATOM      1  C   UNL     1      -1.045  -1.801   0.000  0.00  0.00    +0.000 C 
ATOM      2  C   UNL     1      -0.335  -1.384   0.000  0.00  0.00    +0.000 C 
ATOM      3  C   UNL     1       1.072  -0.550   0.000  0.00  0.00    +0.000 C 
ATOM      4  C   UNL     1      -1.031  -2.626   0.000  0.00  0.00    +0.000 C 
ATOM      5  C   UNL     1       1.086  -1.384   0.000  0.00  0.00    +0.000 C 
ATOM      6  C   UNL     1       0.385  -1.801   0.000  0.00  0.00    +0.000 C 
ATOM      7  C   UNL     1      -0.335  -0.550   0.000  0.00  0.00    +0.000 C 
ATOM      8  C   UNL     1       1.856  -0.298   0.000  0.00  0.00    +0.000 C 
ATOM      9  C   UNL     1      -1.750  -1.384   0.000  0.00  0.00    +0.000 C 
ATOM     10  C   UNL     1       0.371  -0.138   0.000  0.00  0.00    +0.000 C 
ATOM     11  C   UNL     1       1.869  -1.636   0.000  0.00  0.00    +0.000 C 
ATOM     12  C   UNL     1       2.346  -0.962   0.000  0.00  0.00    +0.000 C 
ATOM     13  C   UNL     1       0.385  -2.626   0.000  0.00  0.00    +0.000 C 
ATOM     14  C   UNL     1      -0.330  -3.047   0.000  0.00  0.00    +0.000 C 
ATOM     15  C   UNL     1      -1.746  -3.047   0.000  0.00  0.00    +0.000 C 
ATOM     16  C   UNL     1      -2.474  -1.801   0.000  0.00  0.00    +0.000 C 
ATOM     17  C   UNL     1      -2.465  -2.626   0.000  0.00  0.00    +0.000 C 
ATOM     18  F   UNL     1      -0.330  -2.089   0.000  0.00  0.00    +0.000 F 
ATOM     19  O   UNL     1      -3.175  -3.047   0.000  0.00  0.00    +0.000 OA
ATOM     20  C   UNL     1      -1.091  -0.811   0.000  0.00  0.00    +0.000 C 
ATOM     21  C   UNL     1       1.040   0.302   0.000  0.00  0.00    +0.000 C 
ATOM     22  O   UNL     1      -1.045  -0.138   0.000  0.00  0.00    +0.000 OA
ATOM     23  F   UNL     1      -0.330  -3.876   0.000  0.00  0.00    +0.000 F 
ATOM     24  C   UNL     1       3.175  -0.962   0.000  0.00  0.00    +0.000 C 
ENDROOT
BRANCH   8  25
ATOM     25  C   UNL     1       1.842   0.591   0.000  0.00  0.00    +0.000 C 
ATOM     26  O   UNL     1       1.127   0.994   0.000  0.00  0.00    +0.000 OA
BRANCH  25  27
ATOM     27  C   UNL     1       2.529   1.058   0.000  0.00  0.00    +0.000 C 
BRANCH  27  28
ATOM     28  O   UNL     1       2.483   1.883   0.000  0.00  0.00    +0.000 OA
BRANCH  28  29
ATOM     29  C   UNL     1       1.746   2.254   0.000  0.00  0.00    +0.000 C 
ATOM     30  O   UNL     1       1.072   1.792   0.000  0.00  0.00    +0.000 OA
BRANCH  29  31
ATOM     31  C   UNL     1       1.700   3.070   0.000  0.00  0.00    +0.000 C 
ATOM     32  C   UNL     1       1.677   3.876   0.000  0.00  0.00    +0.000 C 
ATOM     33  C   UNL     1       0.866   3.051   0.000  0.00  0.00    +0.000 C 
ATOM     34  C   UNL     1       2.502   3.093   0.000  0.00  0.00    +0.000 C 
ENDBRANCH  29  31
ENDBRANCH  28  29
ENDBRANCH  27  28
ENDBRANCH  25  27
ENDBRANCH   8  25
TORSDOF 5
