REMARK  Name = 
REMARK  17 active torsions:
REMARK  status: ('A' for Active; 'I' for Inactive)
REMARK    1  A    between atoms: C_2  and  C_3
REMARK    2  A    between atoms: C_4  and  C_5
REMARK    3  A    between atoms: C_5  and  C_6
REMARK    4  A    between atoms: C_7  and  C_8
REMARK    5  A    between atoms: C_8  and  C_9
REMARK    6  A    between atoms: C_10  and  C_11
REMARK    7  A    between atoms: C_11  and  C_12
REMARK    8  A    between atoms: C_13  and  C_14
REMARK    9  A    between atoms: C_14  and  C_15
REMARK   10  A    between atoms: C_16  and  C_17
REMARK   11  A    between atoms: C_17  and  C_18
REMARK   12  A    between atoms: C_18  and  C_19
REMARK   13  A    between atoms: C_19  and  C_20
REMARK   14  A    between atoms: C_20  and  O_21
REMARK   15  A    between atoms: O_21  and  C_22
REMARK   16  A    between atoms: C_22  and  C_23
REMARK   17  A    between atoms: C_22  and  C_25
REMARK                            x       y       z     vdW  Elec       q    Type
REMARK                         _______ _______ _______ _____ _____    ______ ____
ROOT
ATOM      1  C   UNL     1       0.000  -1.208   0.000  0.00  0.00    +0.000 C 
ENDROOT
BRANCH   1   2
ATOM      2  C   UNL     1      -0.715  -1.620   0.000  0.00  0.00    +0.000 C 
ATOM      3  C   UNL     1      -0.715  -2.445   0.000  0.00  0.00    +0.000 C 
BRANCH   3   4
ATOM      4  C   UNL     1       0.000  -2.858   0.000  0.00  0.00    +0.000 C 
BRANCH   4   5
ATOM      5  C   UNL     1       0.000  -3.683   0.000  0.00  0.00    +0.000 C 
BRANCH   5   6
ATOM      6  C   UNL     1       0.715  -4.095   0.000  0.00  0.00    +0.000 C 
BRANCH   6   7
ATOM      7  C   UNL     1       1.429  -3.683   0.000  0.00  0.00    +0.000 C 
BRANCH   7   8
ATOM      8  O   UNL     1       2.143  -4.095   0.000  0.00  0.00    +0.000 OA
BRANCH   8   9
ATOM      9  C   UNL     1       2.858  -3.683   0.000  0.00  0.00    +0.000 C 
BRANCH   9  10
ATOM     10  C   UNL     1       2.858  -2.858   0.000  0.00  0.00    +0.000 C 
ATOM     11  O   UNL     1       2.143  -2.445   0.000  0.00  0.00    +0.000 OA
ATOM     12  O   UNL     1       3.572  -2.445   0.000  0.00  0.00    +0.000 OA
ENDBRANCH   9  10
BRANCH   9  13
ATOM     13  C   UNL     1       3.572  -4.095   0.000  0.00  0.00    +0.000 C 
ATOM     14  C   UNL     1       4.287  -3.683   0.000  0.00  0.00    +0.000 C 
ENDBRANCH   9  13
ENDBRANCH   8   9
ENDBRANCH   7   8
ENDBRANCH   6   7
ENDBRANCH   5   6
ENDBRANCH   4   5
ENDBRANCH   3   4
ENDBRANCH   1   2
BRANCH   1  16
ATOM     15  C   UNL     1       0.715   0.030   0.000  0.00  0.00    +0.000 C 
ATOM     16  C   UNL     1       0.000  -0.383   0.000  0.00  0.00    +0.000 C 
BRANCH  15  17
ATOM     17  C   UNL     1       1.429  -0.383   0.000  0.00  0.00    +0.000 C 
BRANCH  17  19
ATOM     18  C   UNL     1       2.858  -0.383   0.000  0.00  0.00    +0.000 C 
ATOM     19  C   UNL     1       2.143   0.030   0.000  0.00  0.00    +0.000 C 
BRANCH  18  20
ATOM     20  C   UNL     1       2.858  -1.208   0.000  0.00  0.00    +0.000 C 
BRANCH  20  22
ATOM     21  C   UNL     1       4.287  -1.208   0.000  0.00  0.00    +0.000 C 
ATOM     22  C   UNL     1       3.572  -1.620   0.000  0.00  0.00    +0.000 C 
BRANCH  21  23
ATOM     23  C   UNL     1       4.287  -0.383   0.000  0.00  0.00    +0.000 C 
BRANCH  23  25
ATOM     24  C   UNL     1       3.572   0.855   0.000  0.00  0.00    +0.000 C 
ATOM     25  C   UNL     1       3.572   0.030   0.000  0.00  0.00    +0.000 C 
BRANCH  24  27
ATOM     26  C   UNL     1       4.287   2.092   0.000  0.00  0.00    +0.000 C 
ATOM     27  C   UNL     1       4.287   1.267   0.000  0.00  0.00    +0.000 C 
ENDBRANCH  24  27
ENDBRANCH  23  25
ENDBRANCH  21  23
ENDBRANCH  20  22
ENDBRANCH  18  20
ENDBRANCH  17  19
ENDBRANCH  15  17
ENDBRANCH   1  16
TORSDOF 17
