REMARK  Name = 
REMARK  9 active torsions:
REMARK  status: ('A' for Active; 'I' for Inactive)
REMARK    1  A    between atoms: C_2  and  S_41
REMARK    2  A    between atoms: C_3  and  N_12
REMARK    3  A    between atoms: C_9  and  S_37
REMARK    4  A    between atoms: N_13  and  C_14
REMARK    5  A    between atoms: C_17  and  C_20
REMARK    6  A    between atoms: C_23  and  N_26
REMARK    7  A    between atoms: N_27  and  C_28
REMARK    8  A    between atoms: C_30  and  S_32
REMARK    9  A    between atoms: C_52  and  S_55
REMARK                            x       y       z     vdW  Elec       q    Type
REMARK                         _______ _______ _______ _____ _____    ______ ____
ROOT
ATOM      1  C   UNL     1      -1.933   0.036   0.000  0.00  0.00    +0.000 A 
ATOM      2  C   UNL     1      -1.536  -0.686   0.000  0.00  0.00    +0.000 A 
ATOM      3  C   UNL     1      -0.711  -0.698   0.000  0.00  0.00    +0.000 A 
ATOM      4  C   UNL     1      -0.287   0.011   0.000  0.00  0.00    +0.000 A 
ATOM      5  C   UNL     1      -0.693   0.734   0.000  0.00  0.00    +0.000 A 
ATOM      6  C   UNL     1      -1.517   0.744   0.000  0.00  0.00    +0.000 A 
ATOM      7  C   UNL     1      -1.923   1.463   0.000  0.00  0.00    +0.000 C 
ENDROOT
BRANCH   4   8
ATOM      8  C   UNL     1       0.536  -0.001   0.000  0.00  0.00    +0.000 A 
ATOM      9  C   UNL     1       0.938  -0.723   0.000  0.00  0.00    +0.000 A 
ATOM     10  C   UNL     1       1.763  -0.735   0.000  0.00  0.00    +0.000 A 
ATOM     11  C   UNL     1       2.186  -0.025   0.000  0.00  0.00    +0.000 A 
ATOM     12  C   UNL     1       1.779   0.698   0.000  0.00  0.00    +0.000 A 
ATOM     13  C   UNL     1       0.955   0.706   0.000  0.00  0.00    +0.000 A 
ATOM     14  C   UNL     1       2.165  -1.455   0.000  0.00  0.00    +0.000 C 
BRANCH  11  15
ATOM     15  N   UNL     1       3.012  -0.035   0.000  0.00  0.00    +0.000 NA
ATOM     16  N   UNL     1       3.433   0.675   0.000  0.00  0.00    +0.000 NA
BRANCH  16  17
ATOM     17  C   UNL     1       4.259   0.665   0.000  0.00  0.00    +0.000 A 
ATOM     18  C   UNL     1       4.662  -0.057   0.000  0.00  0.00    +0.000 A 
ATOM     19  C   UNL     1       4.677   1.373   0.000  0.00  0.00    +0.000 A 
ATOM     20  C   UNL     1       5.500   1.366   0.000  0.00  0.00    +0.000 A 
ATOM     21  O   UNL     1       4.239  -0.766   0.000  0.00  0.00    +0.000 OA
ATOM     22  C   UNL     1       5.906   0.642   0.000  0.00  0.00    +0.000 A 
ATOM     23  C   UNL     1       5.484  -0.065   0.000  0.00  0.00    +0.000 A 
ATOM     24  C   UNL     1       5.886  -0.782   0.000  0.00  0.00    +0.000 A 
ATOM     25  C   UNL     1       6.710  -0.793   0.000  0.00  0.00    +0.000 A 
ATOM     26  C   UNL     1       7.130  -0.080   0.000  0.00  0.00    +0.000 A 
ATOM     27  C   UNL     1       6.725   0.634   0.000  0.00  0.00    +0.000 A 
ATOM     28  N   UNL     1       5.464  -1.492   0.000  0.00  0.00    +0.000 NA
BRANCH  19  29
ATOM     29  S   UNL     1       4.271   2.091   0.000  0.00  0.00    +0.000 S 
ATOM     30  O   UNL     1       4.690   2.803   0.000  0.00  0.00    +0.000 OA
ATOM     31  O   UNL     1       3.545   1.695   0.000  0.00  0.00    +0.000 OA
ATOM     32  O   UNL     1       3.556   2.517   0.000  0.00  0.00    +0.000 OA
ENDBRANCH  19  29
BRANCH  26  33
ATOM     33  S   UNL     1       7.955  -0.087   0.000  0.00  0.00    +0.000 S 
ATOM     34  O   UNL     1       8.362  -0.806   0.000  0.00  0.00    +0.000 OA
ATOM     35  O   UNL     1       7.950   0.740   0.000  0.00  0.00    +0.000 OA
ATOM     36  O   UNL     1       8.538   0.502   0.000  0.00  0.00    +0.000 OA
ENDBRANCH  26  33
ENDBRANCH  16  17
ENDBRANCH  11  15
ENDBRANCH   4   8
BRANCH   1  38
ATOM     37  N   UNL     1      -3.182  -0.660   0.000  0.00  0.00    +0.000 NA
ATOM     38  N   UNL     1      -2.759   0.049   0.000  0.00  0.00    +0.000 NA
BRANCH  37  41
ATOM     39  C   UNL     1      -5.260  -1.344   0.000  0.00  0.00    +0.000 A 
ATOM     40  C   UNL     1      -4.433  -1.358   0.000  0.00  0.00    +0.000 A 
ATOM     41  C   UNL     1      -4.008  -0.648   0.000  0.00  0.00    +0.000 A 
ATOM     42  C   UNL     1      -4.414   0.077   0.000  0.00  0.00    +0.000 A 
ATOM     43  C   UNL     1      -5.660  -0.620   0.000  0.00  0.00    +0.000 A 
ATOM     44  C   UNL     1      -5.239   0.086   0.000  0.00  0.00    +0.000 A 
ATOM     45  C   UNL     1      -5.639   0.802   0.000  0.00  0.00    +0.000 A 
ATOM     46  C   UNL     1      -6.460   0.813   0.000  0.00  0.00    +0.000 A 
ATOM     47  C   UNL     1      -6.880   0.103   0.000  0.00  0.00    +0.000 A 
ATOM     48  C   UNL     1      -6.478  -0.610   0.000  0.00  0.00    +0.000 A 
ATOM     49  O   UNL     1      -3.993   0.787   0.000  0.00  0.00    +0.000 OA
ATOM     50  N   UNL     1      -5.216   1.511   0.000  0.00  0.00    +0.000 NA
BRANCH  47  51
ATOM     51  S   UNL     1      -7.706   0.112   0.000  0.00  0.00    +0.000 S 
ATOM     52  O   UNL     1      -8.112   0.831   0.000  0.00  0.00    +0.000 OA
ATOM     53  O   UNL     1      -8.538   0.124   0.000  0.00  0.00    +0.000 OA
ATOM     54  O   UNL     1      -7.297  -0.606   0.000  0.00  0.00    +0.000 OA
ENDBRANCH  47  51
BRANCH  40  55
ATOM     55  S   UNL     1      -4.033  -2.079   0.000  0.00  0.00    +0.000 S 
ATOM     56  O   UNL     1      -4.457  -2.787   0.000  0.00  0.00    +0.000 OA
ATOM     57  O   UNL     1      -3.640  -2.803   0.000  0.00  0.00    +0.000 OA
ATOM     58  O   UNL     1      -3.316  -1.678   0.000  0.00  0.00    +0.000 OA
ENDBRANCH  40  55
ENDBRANCH  37  41
ENDBRANCH   1  38
TORSDOF 9
