REMARK  Name = 
REMARK  6 active torsions:
REMARK  status: ('A' for Active; 'I' for Inactive)
REMARK    1  A    between atoms: C_18  and  C_27
REMARK    2  A    between atoms: C_19  and  C_28
REMARK    3  A    between atoms: C_22  and  O_35
REMARK    4  A    between atoms: C_23  and  O_36
REMARK    5  A    between atoms: C_27  and  O_35
REMARK    6  A    between atoms: C_28  and  O_36
REMARK                            x       y       z     vdW  Elec       q    Type
REMARK                         _______ _______ _______ _____ _____    ______ ____
ROOT
ATOM      1  C   UNL     1       2.049  -1.222   0.000  0.00  0.00    +0.000 C 
ATOM      2  C   UNL     1       4.390   1.029   0.000  0.00  0.00    +0.000 A 
ATOM      3  C   UNL     1       0.881   1.118   0.000  0.00  0.00    +0.000 C 
ATOM      4  C   UNL     1       4.701   1.794   0.000  0.00  0.00    +0.000 A 
ATOM      5  C   UNL     1       0.578   1.858   0.000  0.00  0.00    +0.000 C 
ATOM      6  C   UNL     1       1.330   0.861   0.000  0.00  0.00    +0.000 C 
ATOM      7  C   UNL     1       1.186  -0.026   0.000  0.00  0.00    +0.000 C 
ATOM      8  C   UNL     1       3.265   0.192   0.000  0.00  0.00    +0.000 C 
ATOM      9  C   UNL     1       3.564   0.942   0.000  0.00  0.00    +0.000 A 
ATOM     10  C   UNL     1       1.852   0.968   0.000  0.00  0.00    +0.000 C 
ATOM     11  C   UNL     1       2.450   0.178   0.000  0.00  0.00    +0.000 C 
ATOM     12  C   UNL     1       4.182   2.450   0.000  0.00  0.00    +0.000 A 
ATOM     13  C   UNL     1       1.137   2.459   0.000  0.00  0.00    +0.000 C 
ATOM     14  C   UNL     1       3.045   1.588   0.000  0.00  0.00    +0.000 A 
ATOM     15  C   UNL     1       3.334   2.353   0.000  0.00  0.00    +0.000 A 
ATOM     16  C   UNL     1       1.959   2.296   0.000  0.00  0.00    +0.000 C 
ATOM     17  C   UNL     1       2.166   1.456   0.000  0.00  0.00    +0.000 C 
ATOM     18  N   UNL     1       1.909  -0.409   0.000  0.00  0.00    +0.000 NA
ATOM     19  O   UNL     1       2.623   2.797   0.000  0.00  0.00    +0.000 OA
ENDROOT
BRANCH  12  20
ATOM     20  O   UNL     1       4.498   3.212   0.000  0.00  0.00    +0.000 OA
BRANCH  20  21
ATOM     21  C   UNL     1       5.316   3.319   0.000  0.00  0.00    +0.000 C 
ATOM     22  O   UNL     1       5.818   2.664   0.000  0.00  0.00    +0.000 OA
BRANCH  21  27
ATOM     23  C   UNL     1       5.447   5.498   0.000  0.00  0.00    +0.000 A 
ATOM     24  C   UNL     1       5.131   4.736   0.000  0.00  0.00    +0.000 A 
ATOM     25  C   UNL     1       6.265   5.605   0.000  0.00  0.00    +0.000 A 
ATOM     26  C   UNL     1       6.451   4.188   0.000  0.00  0.00    +0.000 A 
ATOM     27  C   UNL     1       5.633   4.081   0.000  0.00  0.00    +0.000 A 
ATOM     28  N   UNL     1       6.767   4.950   0.000  0.00  0.00    +0.000 NA
ENDBRANCH  21  27
ENDBRANCH  20  21
ENDBRANCH  12  20
BRANCH  13  29
ATOM     29  O   UNL     1       0.884   3.245   0.000  0.00  0.00    +0.000 OA
BRANCH  29  30
ATOM     30  C   UNL     1       0.077   3.417   0.000  0.00  0.00    +0.000 C 
ATOM     31  O   UNL     1      -0.476   2.805   0.000  0.00  0.00    +0.000 OA
BRANCH  30  36
ATOM     32  C   UNL     1      -1.237   5.160   0.000  0.00  0.00    +0.000 A 
ATOM     33  C   UNL     1      -0.983   4.375   0.000  0.00  0.00    +0.000 A 
ATOM     34  C   UNL     1      -0.684   5.772   0.000  0.00  0.00    +0.000 A 
ATOM     35  C   UNL     1       0.376   4.815   0.000  0.00  0.00    +0.000 A 
ATOM     36  C   UNL     1      -0.177   4.202   0.000  0.00  0.00    +0.000 A 
ATOM     37  N   UNL     1       0.123   5.600   0.000  0.00  0.00    +0.000 NA
ENDBRANCH  30  36
ENDBRANCH  29  30
ENDBRANCH  13  29
TORSDOF 6
