REMARK  Name = 
REMARK  30 active torsions:
REMARK  status: ('A' for Active; 'I' for Inactive)
REMARK    1  A    between atoms: C_1  and  C_2
REMARK    2  A    between atoms: C_1  and  N_121
REMARK    3  A    between atoms: C_2  and  N_3
REMARK    4  A    between atoms: N_3  and  C_4
REMARK    5  A    between atoms: C_4  and  C_5
REMARK    6  A    between atoms: C_5  and  C_6
REMARK    7  A    between atoms: C_6  and  C_7
REMARK    8  A    between atoms: C_7  and  C_8
REMARK    9  A    between atoms: C_8  and  C_9
REMARK   10  A    between atoms: C_9  and  C_10
REMARK   11  A    between atoms: C_10  and  C_11
REMARK   12  A    between atoms: C_11  and  C_12
REMARK   13  A    between atoms: C_14  and  O_57
REMARK   14  A    between atoms: C_39  and  O_50
REMARK   15  A    between atoms: C_40  and  O_57
REMARK   16  A    between atoms: C_43  and  N_121
REMARK   17  A    between atoms: C_45  and  O_50
REMARK   18  A    between atoms: C_46  and  C_58
REMARK   19  A    between atoms: C_61  and  N_76
REMARK   20  A    between atoms: C_68  and  C_72
REMARK   21  A    between atoms: C_72  and  C_73
REMARK   22  A    between atoms: C_77  and  C_78
REMARK   23  A    between atoms: C_78  and  C_80
REMARK   24  A    between atoms: C_78  and  N_81
REMARK   25  A    between atoms: C_80  and  C_82
REMARK   26  A    between atoms: C_93  and  C_96
REMARK   27  A    between atoms: C_108  and  C_114
REMARK   28  A    between atoms: C_114  and  N_115
REMARK   29  A    between atoms: N_115  and  C_116
REMARK   30  A    between atoms: C_116  and  P_117
REMARK                            x       y       z     vdW  Elec       q    Type
REMARK                         _______ _______ _______ _____ _____    ______ ____
ROOT
ATOM      1  C   UNK A   1      -1.831   1.865   0.000  0.00  0.00    +0.000 A 
ATOM      2  C   UNK A   1      -1.116   1.452   0.000  0.00  0.00    +0.000 A 
ATOM      3  C   UNK A   1      -2.545   1.452   0.000  0.00  0.00    +0.000 A 
ATOM      4  C   UNK A   1      -1.831   0.215   0.000  0.00  0.00    +0.000 A 
ATOM      5  C   UNK A   1      -2.545   0.627   0.000  0.00  0.00    +0.000 A 
ATOM      6  C   UNK A   1      -1.116   0.627   0.000  0.00  0.00    +0.000 A 
ATOM      7  O   UNK A   1      -0.402   1.865   0.000  0.00  0.00    +0.000 OA
ATOM      8  O   UNK A   1      -3.259   1.865   0.000  0.00  0.00    +0.000 OA
ATOM      9  C   UNK A   3      -6.117   0.215   0.000  0.00  0.00    +0.000 C 
ATOM     10  C   UNK A   1       2.456   0.215   0.000  0.00  0.00    +0.000 C 
ATOM     11  C   UNK A   3      -5.403   0.627   0.000  0.00  0.00    +0.000 A 
ATOM     12  C   UNK A   1       1.742   0.627   0.000  0.00  0.00    +0.000 A 
ATOM     13  C   UNK A   1      -3.974   1.452   0.000  0.00  0.00    +0.000 A 
ATOM     14  C   UNK A   1       0.313   1.452   0.000  0.00  0.00    +0.000 A 
ATOM     15  C   UNK A   1      -3.974   0.627   0.000  0.00  0.00    +0.000 A 
ATOM     16  C   UNK A   1       1.027   1.865   0.000  0.00  0.00    +0.000 A 
ATOM     17  C   UNK A   1       1.742   1.452   0.000  0.00  0.00    +0.000 A 
ATOM     18  C   UNK A   1       1.027   0.215   0.000  0.00  0.00    +0.000 A 
ATOM     19  C   UNK A   3      -5.403   1.452   0.000  0.00  0.00    +0.000 A 
ATOM     20  C   UNK A   3      -4.688   1.865   0.000  0.00  0.00    +0.000 A 
ATOM     21  C   UNK A   1       0.313   0.627   0.000  0.00  0.00    +0.000 A 
ATOM     22 CL   UNK A   1       1.027   2.690   0.000  0.00  0.00    +0.000 Cl
ATOM     23  O   UNK A   3      -6.832   0.627   0.000  0.00  0.00    +0.000 OA
ATOM     24 CL   UNK A   1      -3.259   0.215   0.000  0.00  0.00    +0.000 Cl
ATOM     25  O   UNK A   1       3.171   0.627   0.000  0.00  0.00    +0.000 OA
ATOM     26  C   UNK A   1      -4.688   0.215   0.000  0.00  0.00    +0.000 A 
ATOM     27  C   UNK A   1       2.456  -1.435   0.000  0.00  0.00    +0.000 C 
ATOM     28  N   UNK A   1      -1.116  -1.847   0.000  0.00  0.00    +0.000 NA
ATOM     29  C   UNK A   1       1.742  -1.847   0.000  0.00  0.00    +0.000 C 
ATOM     30  C   UNK A   1      -2.545  -1.847   0.000  0.00  0.00    +0.000 C 
ATOM     31  N   UNK A   1       1.027  -1.435   0.000  0.00  0.00    +0.000 NA
ATOM     32  C   UNK A   1      -1.831  -1.435   0.000  0.00  0.00    +0.000 C 
ATOM     33  C   UNK A   1      -0.402  -1.435   0.000  0.00  0.00    +0.000 C 
ATOM     34  C   UNK A   1       0.313  -1.847   0.000  0.00  0.00    +0.000 C 
ATOM     35  O   UNK A   1       1.742  -2.672   0.000  0.00  0.00    +0.000 OA
ATOM     36  O   UNK A   1      -2.545  -2.672   0.000  0.00  0.00    +0.000 OA
ATOM     37  O   UNK A   1      -0.402  -0.610   0.000  0.00  0.00    +0.000 OA
ATOM     38  C   UNK A   3      -6.117  -1.435   0.000  0.00  0.00    +0.000 C 
ATOM     39  N   UNK A   2      -3.259  -1.435   0.000  0.00  0.00    +0.000 NA
ATOM     40  C   UNK A   2      -3.974  -1.847   0.000  0.00  0.00    +0.000 C 
ATOM     41  O   UNK A   3      -7.546  -1.435   0.000  0.00  0.00    +0.000 OA
ATOM     42  N   UNK A   3      -5.403  -1.847   0.000  0.00  0.00    +0.000 NA
ATOM     43  C   UNK A   2      -4.688  -1.435   0.000  0.00  0.00    +0.000 C 
ATOM     44  O   UNK A   2      -4.688  -0.610   0.000  0.00  0.00    +0.000 OA
ATOM     45  C   UNK A   4      -7.546  -3.085   0.000  0.00  0.00    +0.000 C 
ATOM     46  N   UNK A   4      -6.832  -2.672   0.000  0.00  0.00    +0.000 NA
ATOM     47  C   UNK A   3      -6.832  -1.847   0.000  0.00  0.00    +0.000 C 
ATOM     48  C   UNK A   2      -4.700  -4.334   0.000  0.00  0.00    +0.000 A 
ATOM     49  C   UNK A   2      -3.985  -4.747   0.000  0.00  0.00    +0.000 A 
ATOM     50  C   UNK A   2      -3.985  -3.097   0.000  0.00  0.00    +0.000 A 
ATOM     51  C   UNK A   2      -4.700  -3.509   0.000  0.00  0.00    +0.000 A 
ATOM     52  C   UNK A   2      -3.271  -4.334   0.000  0.00  0.00    +0.000 A 
ATOM     53  C   UNK A   2      -3.271  -3.509   0.000  0.00  0.00    +0.000 A 
ATOM     54  O   UNK A   2      -3.985  -5.572   0.000  0.00  0.00    +0.000 OA
ATOM     55  C   UNK A   4      -7.546  -3.910   0.000  0.00  0.00    +0.000 A 
ATOM     56  C   UNK A   4      -8.261  -4.322   0.000  0.00  0.00    +0.000 A 
ATOM     57  C   UNK A   2      -7.546  -5.560   0.000  0.00  0.00    +0.000 A 
ATOM     58  C   UNK A   2      -6.832  -4.322   0.000  0.00  0.00    +0.000 A 
ATOM     59  C   UNK A   4      -8.261  -5.147   0.000  0.00  0.00    +0.000 A 
ATOM     60  O   UNK A   4      -8.975  -5.560   0.000  0.00  0.00    +0.000 OA
ATOM     61  C   UNK A   2      -6.832  -5.147   0.000  0.00  0.00    +0.000 A 
ATOM     62  O   UNK A   2      -6.117  -5.560   0.000  0.00  0.00    +0.000 OA
ENDROOT
BRANCH  27  63
ATOM     63  N   UNK A   1       3.171  -1.847   0.000  0.00  0.00    +0.000 NA
ATOM     64  C   UNK A   1       3.885  -1.435   0.000  0.00  0.00    +0.000 C 
ATOM     65  O   UNK A   1       3.885  -0.610   0.000  0.00  0.00    +0.000 OA
BRANCH  64  66
ATOM     66  C   UNK A   1       4.599  -1.847   0.000  0.00  0.00    +0.000 C 
BRANCH  66  67
ATOM     67  N   UNK A   1       4.599  -2.672   0.000  0.00  0.00    +0.000 NA
ATOM     68  C   ACE A   0       5.314  -3.085   0.000  0.00  0.00    +0.000 C 
ENDBRANCH  66  67
BRANCH  66  69
ATOM     69  C   UNK A   1       5.314  -1.435   0.000  0.00  0.00    +0.000 C 
BRANCH  69  70
ATOM     70  C   UNK A   1       6.028  -1.847   0.000  0.00  0.00    +0.000 C 
ATOM     71  C   UNK A   1       6.028  -2.672   0.000  0.00  0.00    +0.000 C 
ATOM     72  C   UNK A   1       6.743  -1.435   0.000  0.00  0.00    +0.000 C 
ENDBRANCH  69  70
ENDBRANCH  66  69
ENDBRANCH  64  66
ENDBRANCH  27  63
BRANCH  45  73
ATOM     73  C   UNK A   4      -8.261  -2.672   0.000  0.00  0.00    +0.000 C 
ATOM     74  O   UNK A   4      -8.261  -1.847   0.000  0.00  0.00    +0.000 OA
ATOM     75  O   UNK A   4      -8.975  -3.085   0.000  0.00  0.00    +0.000 OA
ENDBRANCH  45  73
BRANCH   1  76
ATOM     76  O   UNK A   1      -1.831   2.690   0.000  0.00  0.00    +0.000 OA
BRANCH  76  78
ATOM     77  C   UNK A   1      -2.545   3.927   0.000  0.00  0.00    +0.000 C 
ATOM     78  C   UNK A   1      -2.545   3.102   0.000  0.00  0.00    +0.000 C 
ATOM     79  C   UNK A   1      -3.259   4.340   0.000  0.00  0.00    +0.000 C 
ATOM     80  O   UNK A   1      -3.259   2.690   0.000  0.00  0.00    +0.000 OA
ATOM     81  C   UNK A   1      -3.974   3.927   0.000  0.00  0.00    +0.000 C 
ATOM     82  C   UNK A   1      -3.974   3.102   0.000  0.00  0.00    +0.000 C 
ATOM     83  O   UNK A   1      -3.259   5.165   0.000  0.00  0.00    +0.000 OA
ATOM     84  O   UNK A   1      -4.688   4.340   0.000  0.00  0.00    +0.000 OA
BRANCH  82  85
ATOM     85  C   UNK A   1      -4.688   2.690   0.000  0.00  0.00    +0.000 C 
ATOM     86  O   UNK A   1      -5.403   3.102   0.000  0.00  0.00    +0.000 OA
ENDBRANCH  82  85
BRANCH  77  87
ATOM     87  O   UNK A   1      -1.831   4.340   0.000  0.00  0.00    +0.000 OA
BRANCH  87  89
ATOM     88  C   UNK A   1      -1.116   6.402   0.000  0.00  0.00    +0.000 C 
ATOM     89  C   UNK A   1      -1.830   5.165   0.000  0.00  0.00    +0.000 C 
ATOM     90  C   UNK A   1      -1.116   5.577   0.000  0.00  0.00    +0.000 C 
ATOM     91  O   UNK A   1      -2.545   5.577   0.000  0.00  0.00    +0.000 OA
ATOM     92  C   UNK A   1      -1.830   6.815   0.000  0.00  0.00    +0.000 C 
ATOM     93  C   UNK A   1      -2.545   6.402   0.000  0.00  0.00    +0.000 C 
ATOM     94  O   UNK A   1      -1.830   7.640   0.000  0.00  0.00    +0.000 OA
ATOM     95  C   UNK A   1      -0.703   7.117   0.000  0.00  0.00    +0.000 C 
ATOM     96  C   UNK A   1      -3.259   6.815   0.000  0.00  0.00    +0.000 C 
BRANCH  88  97
ATOM     97  N   UNK A   1      -0.401   5.990   0.000  0.00  0.00    +0.000 NA
BRANCH  97  98
ATOM     98  C   UNK A   1       0.316   6.396   0.000  0.00  0.00    +0.000 C 
BRANCH  98  99
ATOM     99  C   UNK A   1       1.027   5.978   0.000  0.00  0.00    +0.000 C 
BRANCH  99 100
ATOM    100  N   UNK A   1       1.780   6.396   0.000  0.00  0.00    +0.000 NA
BRANCH 100 101
ATOM    101  C   UNK A   1       2.491   5.978   0.000  0.00  0.00    +0.000 C 
BRANCH 101 102
ATOM    102  C   UNK A   1       3.203   6.396   0.000  0.00  0.00    +0.000 C 
BRANCH 102 103
ATOM    103  C   UNK A   1       3.955   5.978   0.000  0.00  0.00    +0.000 C 
BRANCH 103 104
ATOM    104  C   UNK A   1       4.667   6.396   0.000  0.00  0.00    +0.000 C 
BRANCH 104 105
ATOM    105  C   UNK A   1       5.378   5.978   0.000  0.00  0.00    +0.000 C 
BRANCH 105 106
ATOM    106  C   UNK A   1       6.131   6.396   0.000  0.00  0.00    +0.000 C 
BRANCH 106 107
ATOM    107  C   UNK A   1       6.842   5.978   0.000  0.00  0.00    +0.000 C 
BRANCH 107 108
ATOM    108  C   UNK A   1       7.553   6.396   0.000  0.00  0.00    +0.000 C 
BRANCH 108 109
ATOM    109  C   UNK A   1       8.306   5.978   0.000  0.00  0.00    +0.000 C 
ATOM    110  C   UNK A   1       8.975   6.396   0.000  0.00  0.00    +0.000 C 
ENDBRANCH 108 109
ENDBRANCH 107 108
ENDBRANCH 106 107
ENDBRANCH 105 106
ENDBRANCH 104 105
ENDBRANCH 103 104
ENDBRANCH 102 103
ENDBRANCH 101 102
ENDBRANCH 100 101
ENDBRANCH  99 100
ENDBRANCH  98  99
ENDBRANCH  97  98
ENDBRANCH  88  97
ENDBRANCH  87  89
ENDBRANCH  77  87
ENDBRANCH  76  78
ENDBRANCH   1  76
BRANCH  34 111
ATOM    111  C   UNK A   1       0.313  -2.672   0.000  0.00  0.00    +0.000 C 
BRANCH 111 112
ATOM    112  C   UNK A   1      -0.402  -3.085   0.000  0.00  0.00    +0.000 C 
ATOM    113  N   UNK A   1      -1.116  -2.672   0.000  0.00  0.00    +0.000 NA
ATOM    114  O   UNK A   1      -0.402  -3.910   0.000  0.00  0.00    +0.000 OA
ENDBRANCH 111 112
ENDBRANCH  34 111
BRANCH  57 115
ATOM    115  C   UNK A   2      -7.546  -6.385   0.000  0.00  0.00    +0.000 C 
BRANCH 115 116
ATOM    116  N   UNK A   2      -6.835  -6.803   0.000  0.00  0.00    +0.000 NA
BRANCH 116 117
ATOM    117  C   UNK A   2      -6.082  -6.385   0.000  0.00  0.00    +0.000 C 
BRANCH 117 118
ATOM    118  P   UNK A   2      -5.371  -6.803   0.000  0.00  0.00    +0.000 P 
ATOM    119  O   UNK A   2      -4.660  -6.385   0.000  0.00  0.00    +0.000 OA
ATOM    120  O   UNK A   2      -5.371  -7.640   0.000  0.00  0.00    +0.000 OA
ATOM    121  O   UNK A   2      -4.660  -7.221   0.000  0.00  0.00    +0.000 OA
ENDBRANCH 117 118
ENDBRANCH 116 117
ENDBRANCH 115 116
ENDBRANCH  57 115
TORSDOF 30
