REMARK  Name = 
REMARK  4 active torsions:
REMARK  status: ('A' for Active; 'I' for Inactive)
REMARK    1  A    between atoms: CB_2  and  CA_3
REMARK    2  A    between atoms: CB_2  and  CG_6
REMARK    3  A    between atoms: CA_3  and  N_4
REMARK    4  A    between atoms: CA_3  and  C_5
REMARK                            x       y       z     vdW  Elec       q    Type
REMARK                         _______ _______ _______ _____ _____    ______ ____
ROOT
ATOM      1  CA  ASP A   1       0.006  -0.412   0.000  0.00  0.00    +0.000 C 
ENDROOT
BRANCH   1   3
ATOM      2  C   UNK A   0      -1.437  -0.415   0.000  0.00  0.00    +0.000 C 
ATOM      3  N   ASP A   1      -0.721  -0.826   0.000  0.00  0.00    +0.000 NA
ATOM      4  O   UNK A   0      -1.423   0.406   0.000  0.00  0.00    +0.000 OA
ATOM      5  N   UNK A   0      -2.160  -0.827   0.000  0.00  0.00    +0.000 NA
ENDBRANCH   1   3
BRANCH   1   6
ATOM      6  C   ASP A   1       0.017   0.413   0.000  0.00  0.00    +0.000 C 
ATOM      7  O   ASP A   1      -0.696   0.820   0.000  0.00  0.00    +0.000 OA
ATOM      8  OXT ASP A   1       0.744   0.827   0.000  0.00  0.00    +0.000 OA
ENDBRANCH   1   6
BRANCH   1   9
ATOM      9  CB  ASP A   1       0.721  -0.822   0.000  0.00  0.00    +0.000 C 
BRANCH   9  10
ATOM     10  CG  ASP A   1       1.448  -0.408   0.000  0.00  0.00    +0.000 C 
ATOM     11  OD1 ASP A   1       1.456   0.415   0.000  0.00  0.00    +0.000 OA
ATOM     12  OD2 ASP A   1       2.160  -0.821   0.000  0.00  0.00    +0.000 OA
ENDBRANCH   9  10
ENDBRANCH   1   9
TORSDOF 4
