REMARK  Name = 
REMARK  53 active torsions:
REMARK  status: ('A' for Active; 'I' for Inactive)
REMARK    1  A    between atoms: NE_1  and  CD_11
REMARK    2  A    between atoms: CA_6  and  C_8
REMARK    3  A    between atoms: CA_6  and  CB_9
REMARK    4  A    between atoms: CB_9  and  CG_10
REMARK    5  A    between atoms: CG_10  and  CD_11
REMARK    6  A    between atoms: NE_12  and  CD_22
REMARK    7  A    between atoms: N_16  and  CA_17
REMARK    8  A    between atoms: CA_17  and  C_19
REMARK    9  A    between atoms: CA_17  and  CB_20
REMARK   10  A    between atoms: CB_20  and  CG_21
REMARK   11  A    between atoms: CG_21  and  CD_22
REMARK   12  A    between atoms: NE_23  and  CD_33
REMARK   13  A    between atoms: N_27  and  CA_28
REMARK   14  A    between atoms: CA_28  and  C_30
REMARK   15  A    between atoms: CA_28  and  CB_31
REMARK   16  A    between atoms: CB_31  and  CG_32
REMARK   17  A    between atoms: CG_32  and  CD_33
REMARK   18  A    between atoms: NE_34  and  CD_44
REMARK   19  A    between atoms: N_38  and  CA_39
REMARK   20  A    between atoms: CA_39  and  C_41
REMARK   21  A    between atoms: CA_39  and  CB_42
REMARK   22  A    between atoms: CB_42  and  CG_43
REMARK   23  A    between atoms: CG_43  and  CD_44
REMARK   24  A    between atoms: NE_45  and  CD_55
REMARK   25  A    between atoms: N_49  and  CA_50
REMARK   26  A    between atoms: CA_50  and  C_52
REMARK   27  A    between atoms: CA_50  and  CB_53
REMARK   28  A    between atoms: CB_53  and  CG_54
REMARK   29  A    between atoms: CG_54  and  CD_55
REMARK   30  A    between atoms: NE_56  and  CD_66
REMARK   31  A    between atoms: N_60  and  CA_61
REMARK   32  A    between atoms: CA_61  and  C_63
REMARK   33  A    between atoms: CA_61  and  CB_64
REMARK   34  A    between atoms: CB_64  and  CG_65
REMARK   35  A    between atoms: CG_65  and  CD_66
REMARK   36  A    between atoms: NE_67  and  CD_77
REMARK   37  A    between atoms: N_71  and  CA_72
REMARK   38  A    between atoms: CA_72  and  C_74
REMARK   39  A    between atoms: CA_72  and  CB_75
REMARK   40  A    between atoms: CB_75  and  CG_76
REMARK   41  A    between atoms: CG_76  and  CD_77
REMARK   42  A    between atoms: NE_78  and  CD_88
REMARK   43  A    between atoms: N_82  and  CA_83
REMARK   44  A    between atoms: CA_83  and  C_85
REMARK   45  A    between atoms: CA_83  and  CB_86
REMARK   46  A    between atoms: CB_86  and  CG_87
REMARK   47  A    between atoms: CG_87  and  CD_88
REMARK   48  A    between atoms: NE_89  and  CD_99
REMARK   49  A    between atoms: N_93  and  CA_94
REMARK   50  A    between atoms: CA_94  and  C_96
REMARK   51  A    between atoms: CA_94  and  CB_97
REMARK   52  A    between atoms: CB_97  and  CG_98
REMARK   53  A    between atoms: CG_98  and  CD_99
REMARK                            x       y       z     vdW  Elec       q    Type
REMARK                         _______ _______ _______ _____ _____    ______ ____
ROOT
ATOM      1  CA  ARG A   5      -0.755   0.218   0.000  0.00  0.00    +0.000 C 
ENDROOT
BRANCH   1   3
ATOM      2  O   ARG A   5      -0.042  -1.018   0.000  0.00  0.00    +0.000 OA
ATOM      3  C   ARG A   5      -0.042  -0.193   0.000  0.00  0.00    +0.000 C 
ATOM      4  N   ARG A   6       0.679   0.208   0.000  0.00  0.00    +0.000 NA
BRANCH   4   5
ATOM      5  CA  ARG A   6       1.385  -0.219   0.000  0.00  0.00    +0.000 C 
BRANCH   5   7
ATOM      6  O   ARG A   6       2.097   1.017   0.000  0.00  0.00    +0.000 OA
ATOM      7  C   ARG A   6       2.097   0.192   0.000  0.00  0.00    +0.000 C 
ATOM      8  N   ARG A   7       2.817  -0.210   0.000  0.00  0.00    +0.000 NA
BRANCH   8   9
ATOM      9  CA  ARG A   7       3.530   0.204   0.000  0.00  0.00    +0.000 C 
BRANCH   9  11
ATOM     10  O   ARG A   7       4.243  -1.031   0.000  0.00  0.00    +0.000 OA
ATOM     11  C   ARG A   7       4.243  -0.206   0.000  0.00  0.00    +0.000 C 
ATOM     12  N   ARG A   8       4.959   0.203   0.000  0.00  0.00    +0.000 NA
BRANCH  12  13
ATOM     13  CA  ARG A   8       5.671  -0.213   0.000  0.00  0.00    +0.000 C 
BRANCH  13  15
ATOM     14  O   ARG A   8       6.383   1.022   0.000  0.00  0.00    +0.000 OA
ATOM     15  C   ARG A   8       6.383   0.197   0.000  0.00  0.00    +0.000 C 
ATOM     16  N   ARG A   9       7.099  -0.213   0.000  0.00  0.00    +0.000 NA
BRANCH  16  17
ATOM     17  CA  ARG A   9       7.814   0.199   0.000  0.00  0.00    +0.000 C 
BRANCH  17  19
ATOM     18  OXT ARG A   9       8.526  -1.036   0.000  0.00  0.00    +0.000 OA
ATOM     19  C   ARG A   9       8.526  -0.212   0.000  0.00  0.00    +0.000 C 
ATOM     20  O   ARG A   9       9.238   0.199   0.000  0.00  0.00    +0.000 OA
ENDBRANCH  17  19
BRANCH  17  21
ATOM     21  CB  ARG A   9       7.814   1.024   0.000  0.00  0.00    +0.000 C 
BRANCH  21  22
ATOM     22  CG  ARG A   9       8.526   1.434   0.000  0.00  0.00    +0.000 C 
BRANCH  22  23
ATOM     23  CD  ARG A   9       8.526   2.259   0.000  0.00  0.00    +0.000 C 
BRANCH  23  24
ATOM     24  NE  ARG A   9       9.241   2.671   0.000  0.00  0.00    +0.000 NA
ATOM     25  CZ  ARG A   9       9.246   3.496   0.000  0.00  0.00    +0.000 C 
ATOM     26  NH1 ARG A   9       8.528   3.903   0.000  0.00  0.00    +0.000 NA
ATOM     27  NH2 ARG A   9       9.957   3.903   0.000  0.00  0.00    +0.000 NA
ENDBRANCH  23  24
ENDBRANCH  22  23
ENDBRANCH  21  22
ENDBRANCH  17  21
ENDBRANCH  16  17
ENDBRANCH  13  15
BRANCH  13  28
ATOM     28  CB  ARG A   8       5.671  -1.038   0.000  0.00  0.00    +0.000 C 
BRANCH  28  29
ATOM     29  CG  ARG A   8       6.383  -1.449   0.000  0.00  0.00    +0.000 C 
BRANCH  29  30
ATOM     30  CD  ARG A   8       6.383  -2.274   0.000  0.00  0.00    +0.000 C 
BRANCH  30  31
ATOM     31  NE  ARG A   8       7.101  -2.679   0.000  0.00  0.00    +0.000 NA
ATOM     32  CZ  ARG A   8       7.099  -3.504   0.000  0.00  0.00    +0.000 C 
ATOM     33  NH1 ARG A   8       6.385  -3.909   0.000  0.00  0.00    +0.000 NA
ATOM     34  NH2 ARG A   8       7.814  -3.909   0.000  0.00  0.00    +0.000 NA
ENDBRANCH  30  31
ENDBRANCH  29  30
ENDBRANCH  28  29
ENDBRANCH  13  28
ENDBRANCH  12  13
ENDBRANCH   9  11
BRANCH   9  35
ATOM     35  CB  ARG A   7       3.530   1.029   0.000  0.00  0.00    +0.000 C 
BRANCH  35  36
ATOM     36  CG  ARG A   7       4.243   1.440   0.000  0.00  0.00    +0.000 C 
BRANCH  36  37
ATOM     37  CD  ARG A   7       4.243   2.265   0.000  0.00  0.00    +0.000 C 
BRANCH  37  38
ATOM     38  NE  ARG A   7       4.960   2.672   0.000  0.00  0.00    +0.000 NA
ATOM     39  CZ  ARG A   7       4.946   3.497   0.000  0.00  0.00    +0.000 C 
ATOM     40  NH1 ARG A   7       4.248   3.909   0.000  0.00  0.00    +0.000 NA
ATOM     41  NH2 ARG A   7       5.672   3.909   0.000  0.00  0.00    +0.000 NA
ENDBRANCH  37  38
ENDBRANCH  36  37
ENDBRANCH  35  36
ENDBRANCH   9  35
ENDBRANCH   8   9
ENDBRANCH   5   7
BRANCH   5  42
ATOM     42  CB  ARG A   6       1.385  -1.044   0.000  0.00  0.00    +0.000 C 
BRANCH  42  43
ATOM     43  CG  ARG A   6       2.097  -1.454   0.000  0.00  0.00    +0.000 C 
BRANCH  43  44
ATOM     44  CD  ARG A   6       2.097  -2.279   0.000  0.00  0.00    +0.000 C 
BRANCH  44  45
ATOM     45  NE  ARG A   6       2.820  -2.676   0.000  0.00  0.00    +0.000 NA
ATOM     46  CZ  ARG A   6       2.798  -3.501   0.000  0.00  0.00    +0.000 C 
ATOM     47  NH1 ARG A   6       2.108  -3.905   0.000  0.00  0.00    +0.000 NA
ATOM     48  NH2 ARG A   6       3.537  -3.905   0.000  0.00  0.00    +0.000 NA
ENDBRANCH  44  45
ENDBRANCH  43  44
ENDBRANCH  42  43
ENDBRANCH   5  42
ENDBRANCH   4   5
ENDBRANCH   1   3
BRANCH   1  51
ATOM     49  O   ARG A   4      -2.185   1.011   0.000  0.00  0.00    +0.000 OA
ATOM     50  C   ARG A   4      -2.185   0.186   0.000  0.00  0.00    +0.000 C 
ATOM     51  N   ARG A   5      -1.461  -0.209   0.000  0.00  0.00    +0.000 NA
BRANCH  50  52
ATOM     52  CA  ARG A   4      -2.901  -0.224   0.000  0.00  0.00    +0.000 C 
BRANCH  52  55
ATOM     53  O   ARG A   3      -4.329  -1.010   0.000  0.00  0.00    +0.000 OA
ATOM     54  C   ARG A   3      -4.329  -0.185   0.000  0.00  0.00    +0.000 C 
ATOM     55  N   ARG A   4      -3.604   0.208   0.000  0.00  0.00    +0.000 NA
BRANCH  54  56
ATOM     56  CA  ARG A   3      -5.042   0.225   0.000  0.00  0.00    +0.000 C 
BRANCH  56  59
ATOM     57  O   ARG A   2      -6.470   1.003   0.000  0.00  0.00    +0.000 OA
ATOM     58  C   ARG A   2      -6.470   0.178   0.000  0.00  0.00    +0.000 C 
ATOM     59  N   ARG A   3      -5.742  -0.210   0.000  0.00  0.00    +0.000 NA
BRANCH  58  60
ATOM     60  CA  ARG A   2      -7.182  -0.232   0.000  0.00  0.00    +0.000 C 
BRANCH  60  63
ATOM     61  O   ARG A   1      -8.609  -0.997   0.000  0.00  0.00    +0.000 OA
ATOM     62  C   ARG A   1      -8.609  -0.172   0.000  0.00  0.00    +0.000 C 
ATOM     63  N   ARG A   2      -7.878   0.211   0.000  0.00  0.00    +0.000 NA
BRANCH  62  65
ATOM     64  N   ARG A   1      -9.957  -0.174   0.000  0.00  0.00    +0.000 NA
ATOM     65  CA  ARG A   1      -9.321   0.239   0.000  0.00  0.00    +0.000 C 
BRANCH  65  66
ATOM     66  CB  ARG A   1      -9.321   1.064   0.000  0.00  0.00    +0.000 C 
BRANCH  66  67
ATOM     67  CG  ARG A   1      -8.609   1.474   0.000  0.00  0.00    +0.000 C 
BRANCH  67  68
ATOM     68  CD  ARG A   1      -8.609   2.299   0.000  0.00  0.00    +0.000 C 
BRANCH  68  69
ATOM     69  NE  ARG A   1      -7.876   2.677   0.000  0.00  0.00    +0.000 NA
ATOM     70  CZ  ARG A   1      -7.951   3.499   0.000  0.00  0.00    +0.000 C 
ATOM     71  NH1 ARG A   1      -8.591   3.907   0.000  0.00  0.00    +0.000 NA
ATOM     72  NH2 ARG A   1      -7.162   3.907   0.000  0.00  0.00    +0.000 NA
ENDBRANCH  68  69
ENDBRANCH  67  68
ENDBRANCH  66  67
ENDBRANCH  65  66
ENDBRANCH  62  65
ENDBRANCH  60  63
BRANCH  60  73
ATOM     73  CB  ARG A   2      -7.182  -1.057   0.000  0.00  0.00    +0.000 C 
BRANCH  73  74
ATOM     74  CG  ARG A   2      -6.470  -1.468   0.000  0.00  0.00    +0.000 C 
BRANCH  74  75
ATOM     75  CD  ARG A   2      -6.470  -2.293   0.000  0.00  0.00    +0.000 C 
BRANCH  75  76
ATOM     76  NE  ARG A   2      -5.740  -2.677   0.000  0.00  0.00    +0.000 NA
ATOM     77  CZ  ARG A   2      -5.801  -3.499   0.000  0.00  0.00    +0.000 C 
ATOM     78  NH1 ARG A   2      -6.451  -3.906   0.000  0.00  0.00    +0.000 NA
ATOM     79  NH2 ARG A   2      -5.023  -3.906   0.000  0.00  0.00    +0.000 NA
ENDBRANCH  75  76
ENDBRANCH  74  75
ENDBRANCH  73  74
ENDBRANCH  60  73
ENDBRANCH  58  60
ENDBRANCH  56  59
BRANCH  56  80
ATOM     80  CB  ARG A   3      -5.042   1.050   0.000  0.00  0.00    +0.000 C 
BRANCH  80  81
ATOM     81  CG  ARG A   3      -4.329   1.461   0.000  0.00  0.00    +0.000 C 
BRANCH  81  82
ATOM     82  CD  ARG A   3      -4.329   2.286   0.000  0.00  0.00    +0.000 C 
BRANCH  82  83
ATOM     83  NE  ARG A   3      -3.602   2.674   0.000  0.00  0.00    +0.000 NA
ATOM     84  CZ  ARG A   3      -3.655   3.497   0.000  0.00  0.00    +0.000 C 
ATOM     85  NH1 ARG A   3      -4.313   3.906   0.000  0.00  0.00    +0.000 NA
ATOM     86  NH2 ARG A   3      -2.889   3.906   0.000  0.00  0.00    +0.000 NA
ENDBRANCH  82  83
ENDBRANCH  81  82
ENDBRANCH  80  81
ENDBRANCH  56  80
ENDBRANCH  54  56
ENDBRANCH  52  55
BRANCH  52  87
ATOM     87  CB  ARG A   4      -2.901  -1.049   0.000  0.00  0.00    +0.000 C 
BRANCH  87  88
ATOM     88  CG  ARG A   4      -2.185  -1.460   0.000  0.00  0.00    +0.000 C 
BRANCH  88  89
ATOM     89  CD  ARG A   4      -2.185  -2.285   0.000  0.00  0.00    +0.000 C 
BRANCH  89  90
ATOM     90  NE  ARG A   4      -1.459  -2.678   0.000  0.00  0.00    +0.000 NA
ATOM     91  CZ  ARG A   4      -1.498  -3.502   0.000  0.00  0.00    +0.000 C 
ATOM     92  NH1 ARG A   4      -2.171  -3.909   0.000  0.00  0.00    +0.000 NA
ATOM     93  NH2 ARG A   4      -0.747  -3.909   0.000  0.00  0.00    +0.000 NA
ENDBRANCH  89  90
ENDBRANCH  88  89
ENDBRANCH  87  88
ENDBRANCH  52  87
ENDBRANCH  50  52
ENDBRANCH   1  51
BRANCH   1  94
ATOM     94  CB  ARG A   5      -0.755   1.043   0.000  0.00  0.00    +0.000 C 
BRANCH  94  95
ATOM     95  CG  ARG A   5      -0.042   1.453   0.000  0.00  0.00    +0.000 C 
BRANCH  95  96
ATOM     96  CD  ARG A   5      -0.042   2.278   0.000  0.00  0.00    +0.000 C 
BRANCH  96  97
ATOM     97  NE  ARG A   5       0.681   2.674   0.000  0.00  0.00    +0.000 NA
ATOM     98  CZ  ARG A   5       0.651   3.499   0.000  0.00  0.00    +0.000 C 
ATOM     99  NH1 ARG A   5      -0.035   3.908   0.000  0.00  0.00    +0.000 NA
ATOM    100  NH2 ARG A   5       1.394   3.908   0.000  0.00  0.00    +0.000 NA
ENDBRANCH  96  97
ENDBRANCH  95  96
ENDBRANCH  94  95
ENDBRANCH   1  94
TORSDOF 53
