REMARK  Name = 
REMARK  6 active torsions:
REMARK  status: ('A' for Active; 'I' for Inactive)
REMARK    1  A    between atoms: N_2  and  C_16
REMARK    2  A    between atoms: C_5  and  N_13
REMARK    3  A    between atoms: C_7  and  C_19
REMARK    4  A    between atoms: C_18  and  C_24
REMARK    5  A    between atoms: C_21  and  C_31
REMARK    6  A    between atoms: N_22  and  C_24
REMARK                            x       y       z     vdW  Elec       q    Type
REMARK                         _______ _______ _______ _____ _____    ______ ____
ROOT
ATOM      1  C   UNL     1       3.125   0.789   0.000  0.00  0.00    +0.000 A 
ATOM      2  N   UNL     1       3.839   0.391   0.000  0.00  0.00    +0.000 N 
ATOM      3  C   UNL     1      -0.383   0.405   0.000  0.00  0.00    +0.000 C 
ATOM      4  C   UNL     1      -0.126  -0.396   0.000  0.00  0.00    +0.000 C 
ATOM      5  C   UNL     1      -0.995  -0.265   0.000  0.00  0.00    +0.000 C 
ATOM      6  C   UNL     1       3.125   1.643   0.000  0.00  0.00    +0.000 A 
ATOM      7  C   UNL     1       4.566   1.643   0.000  0.00  0.00    +0.000 A 
ATOM      8  N   UNL     1       2.397   0.391   0.000  0.00  0.00    +0.000 NA
ATOM      9  N   UNL     1       0.927   0.391   0.000  0.00  0.00    +0.000 N 
ATOM     10  C   UNL     1       3.839   2.055   0.000  0.00  0.00    +0.000 A 
ATOM     11  C   UNL     1       4.566   0.789   0.000  0.00  0.00    +0.000 A 
ATOM     12  C   UNL     1       1.640   0.789   0.000  0.00  0.00    +0.000 A 
ATOM     13  C   UNL     1       0.272   0.871   0.000  0.00  0.00    +0.000 C 
ATOM     14  C   UNL     1       0.689  -0.396   0.000  0.00  0.00    +0.000 C 
ATOM     15  C   UNL     1       2.397   2.055   0.000  0.00  0.00    +0.000 A 
ATOM     16  C   UNL     1       1.640   1.643   0.000  0.00  0.00    +0.000 A 
ATOM     17  O   UNL     1       3.839   2.914   0.000  0.00  0.00    +0.000 OA
ATOM     18  F   UNL     1       0.927   2.055   0.000  0.00  0.00    +0.000 F 
ENDROOT
BRANCH   2  19
ATOM     19  C   UNL     1       3.839  -0.468   0.000  0.00  0.00    +0.000 A 
ATOM     20  C   UNL     1       4.508  -0.876   0.000  0.00  0.00    +0.000 A 
ATOM     21  C   UNL     1       4.508  -1.701   0.000  0.00  0.00    +0.000 A 
ATOM     22  C   UNL     1       3.125  -0.876   0.000  0.00  0.00    +0.000 A 
ATOM     23  C   UNL     1       3.839  -2.094   0.000  0.00  0.00    +0.000 A 
ATOM     24  F   UNL     1       5.222  -0.468   0.000  0.00  0.00    +0.000 F 
ATOM     25  C   UNL     1       3.125  -1.701   0.000  0.00  0.00    +0.000 A 
ATOM     26  F   UNL     1       3.839  -2.914   0.000  0.00  0.00    +0.000 F 
ENDBRANCH   2  19
BRANCH   5  27
ATOM     27  N   UNL     1      -1.737  -0.682   0.000  0.00  0.00    +0.000 NA
ATOM     28  C   UNL     1      -2.441  -0.265   0.000  0.00  0.00    +0.000 C 
ATOM     29  O   UNL     1      -2.441   0.556   0.000  0.00  0.00    +0.000 OA
BRANCH  28  30
ATOM     30  C   UNL     1      -3.154  -0.682   0.000  0.00  0.00    +0.000 C 
ATOM     31  C   UNL     1      -3.154  -1.487   0.000  0.00  0.00    +0.000 C 
BRANCH  30  33
ATOM     32  C   UNL     1      -4.605  -0.682   0.000  0.00  0.00    +0.000 C 
ATOM     33  N   UNL     1      -3.892  -0.265   0.000  0.00  0.00    +0.000 NA
ATOM     34  O   UNL     1      -4.605  -1.487   0.000  0.00  0.00    +0.000 OA
BRANCH  32  35
ATOM     35  C   UNL     1      -5.275  -0.265   0.000  0.00  0.00    +0.000 C 
ATOM     36  N   UNL     1      -6.003  -0.682   0.000  0.00  0.00    +0.000 NA
ATOM     37  C   UNL     1      -5.275   0.556   0.000  0.00  0.00    +0.000 C 
ENDBRANCH  32  35
ENDBRANCH  30  33
ENDBRANCH  28  30
ENDBRANCH   5  27
BRANCH   7  38
ATOM     38  C   UNL     1       5.295   2.055   0.000  0.00  0.00    +0.000 C 
ATOM     39  O   UNL     1       5.295   2.885   0.000  0.00  0.00    +0.000 OA
ATOM     40  O   UNL     1       6.003   1.643   0.000  0.00  0.00    +0.000 OA
ENDBRANCH   7  38
TORSDOF 6
