REMARK  Name = 
REMARK  5 active torsions:
REMARK  status: ('A' for Active; 'I' for Inactive)
REMARK    1  A    between atoms: C_5  and  S_9
REMARK    2  A    between atoms: S_9  and  N_12
REMARK    3  A    between atoms: N_12  and  C_13
REMARK    4  A    between atoms: C_17  and  O_18
REMARK    5  A    between atoms: O_18  and  C_19
REMARK                            x       y       z     vdW  Elec       q    Type
REMARK                         _______ _______ _______ _____ _____    ______ ____
ROOT
ATOM      1  C   UNL     1      -1.072  -0.619   0.000  0.00  0.00    +0.000 A 
ATOM      2  C   UNL     1      -1.786  -0.206   0.000  0.00  0.00    +0.000 A 
ATOM      3  C   UNL     1      -1.786   0.619   0.000  0.00  0.00    +0.000 A 
ATOM      4 CL   UNL     1      -2.501   1.031   0.000  0.00  0.00    +0.000 Cl
ATOM      5  C   UNL     1      -1.072   1.031   0.000  0.00  0.00    +0.000 A 
ATOM      6  C   UNL     1      -0.357   0.619   0.000  0.00  0.00    +0.000 A 
ATOM      7 CL   UNL     1       0.357   1.031   0.000  0.00  0.00    +0.000 Cl
ATOM      8  C   UNL     1      -0.357  -0.206   0.000  0.00  0.00    +0.000 A 
ENDROOT
BRANCH   1   9
ATOM      9  N   UNL     1      -1.072  -1.444   0.000  0.00  0.00    +0.000 NA
BRANCH   9  10
ATOM     10  S   UNL     1      -0.357  -1.856   0.000  0.00  0.00    +0.000 S 
ATOM     11  O   UNL     1       0.055  -1.142   0.000  0.00  0.00    +0.000 OA
ATOM     12  O   UNL     1      -0.770  -2.571   0.000  0.00  0.00    +0.000 OA
BRANCH  10  17
ATOM     13 CL   UNL     1       2.501  -3.506   0.000  0.00  0.00    +0.000 Cl
ATOM     14  C   UNL     1       1.786  -3.094   0.000  0.00  0.00    +0.000 A 
ATOM     15  C   UNL     1       1.072  -3.506   0.000  0.00  0.00    +0.000 A 
ATOM     16  C   UNL     1       0.357  -3.094   0.000  0.00  0.00    +0.000 A 
ATOM     17  C   UNL     1       0.357  -2.269   0.000  0.00  0.00    +0.000 A 
ATOM     18  C   UNL     1       1.072  -1.856   0.000  0.00  0.00    +0.000 A 
ATOM     19 CL   UNL     1       1.072  -1.031   0.000  0.00  0.00    +0.000 Cl
ATOM     20  C   UNL     1       1.786  -2.269   0.000  0.00  0.00    +0.000 A 
ENDBRANCH  10  17
ENDBRANCH   9  10
ENDBRANCH   1   9
BRANCH   5  21
ATOM     21  O   UNL     1      -1.072   1.856   0.000  0.00  0.00    +0.000 OA
BRANCH  21  22
ATOM     22  C   UNL     1      -0.357   2.269   0.000  0.00  0.00    +0.000 A 
ATOM     23  C   UNL     1      -0.357   3.094   0.000  0.00  0.00    +0.000 A 
ATOM     24  N   UNL     1       0.357   3.506   0.000  0.00  0.00    +0.000 NA
ATOM     25  C   UNL     1       1.072   3.094   0.000  0.00  0.00    +0.000 A 
ATOM     26  C   UNL     1       1.786   3.506   0.000  0.00  0.00    +0.000 A 
ATOM     27  C   UNL     1       2.501   3.094   0.000  0.00  0.00    +0.000 A 
ATOM     28  C   UNL     1       2.501   2.269   0.000  0.00  0.00    +0.000 A 
ATOM     29  C   UNL     1       1.786   1.856   0.000  0.00  0.00    +0.000 A 
ATOM     30  C   UNL     1       1.072   2.269   0.000  0.00  0.00    +0.000 A 
ATOM     31  C   UNL     1       0.357   1.856   0.000  0.00  0.00    +0.000 A 
ENDBRANCH  21  22
ENDBRANCH   5  21
TORSDOF 5
