REMARK  Name = 
REMARK  7 active torsions:
REMARK  status: ('A' for Active; 'I' for Inactive)
REMARK    1  A    between atoms: C_10  and  C_12
REMARK    2  A    between atoms: C_11  and  C_14
REMARK    3  A    between atoms: C_12  and  C_15
REMARK    4  A    between atoms: C_14  and  C_16
REMARK    5  A    between atoms: C_15  and  C_17
REMARK    6  A    between atoms: C_16  and  C_18
REMARK    7  A    between atoms: C_18  and  C_20
REMARK                            x       y       z     vdW  Elec       q    Type
REMARK                         _______ _______ _______ _____ _____    ______ ____
ROOT
ATOM      1  C   UNL     1       0.026  -0.279   0.000  0.00  0.00    +0.000 A 
ATOM      2  C   UNL     1       0.012   0.542   0.000  0.00  0.00    +0.000 A 
ATOM      3  C   UNL     1       0.743  -0.674   0.000  0.00  0.00    +0.000 C 
ATOM      4  C   UNL     1      -0.674  -0.705   0.000  0.00  0.00    +0.000 A 
ATOM      5  O   UNL     1       0.716   0.969   0.000  0.00  0.00    +0.000 OA
ATOM      6  C   UNL     1      -0.712   0.941   0.000  0.00  0.00    +0.000 A 
ATOM      7  C   UNL     1       1.447  -0.255   0.000  0.00  0.00    +0.000 C 
ATOM      8  C   UNL     1      -1.395  -0.317   0.000  0.00  0.00    +0.000 A 
ATOM      9  O   UNL     1      -0.653  -1.530   0.000  0.00  0.00    +0.000 OA
ATOM     10  C   UNL     1       1.433   0.567   0.000  0.00  0.00    +0.000 C 
ATOM     11  C   UNL     1      -1.415   0.511   0.000  0.00  0.00    +0.000 A 
ATOM     12  C   UNL     1       1.433   1.530   0.000  0.00  0.00    +0.000 C 
ENDROOT
BRANCH  11  13
ATOM     13  C   UNL     1      -2.140   0.906   0.000  0.00  0.00    +0.000 C 
BRANCH  13  14
ATOM     14  C   UNL     1      -2.847   0.476   0.000  0.00  0.00    +0.000 C 
BRANCH  14  15
ATOM     15  C   UNL     1      -3.571   0.872   0.000  0.00  0.00    +0.000 C 
BRANCH  15  16
ATOM     16  C   UNL     1      -4.274   0.442   0.000  0.00  0.00    +0.000 C 
ATOM     17  C   UNL     1      -4.999   0.837   0.000  0.00  0.00    +0.000 C 
ENDBRANCH  15  16
ENDBRANCH  14  15
ENDBRANCH  13  14
ENDBRANCH  11  13
BRANCH  10  18
ATOM     18  C   UNL     1       2.140   0.993   0.000  0.00  0.00    +0.000 C 
BRANCH  18  19
ATOM     19  C   UNL     1       2.864   0.591   0.000  0.00  0.00    +0.000 C 
BRANCH  19  20
ATOM     20  C   UNL     1       3.571   1.020   0.000  0.00  0.00    +0.000 C 
ATOM     21  C   UNL     1       4.292   0.615   0.000  0.00  0.00    +0.000 C 
ATOM     22  C   UNL     1       4.999   1.045   0.000  0.00  0.00    +0.000 C 
ATOM     23  C   UNL     1       4.306  -0.210   0.000  0.00  0.00    +0.000 C 
ENDBRANCH  19  20
ENDBRANCH  18  19
ENDBRANCH  10  18
TORSDOF 7
