REMARK  Name = 
REMARK  12 active torsions:
REMARK  status: ('A' for Active; 'I' for Inactive)
REMARK    1  A    between atoms: N_3  and  S_9
REMARK    2  A    between atoms: C_4  and  C_6
REMARK    3  A    between atoms: N_8  and  C_30
REMARK    4  A    between atoms: S_9  and  C_10
REMARK    5  A    between atoms: C_15  and  C_18
REMARK    6  A    between atoms: N_19  and  CA_20
REMARK    7  A    between atoms: CA_20  and  CB_21
REMARK    8  A    between atoms: CA_20  and  C_25
REMARK    9  A    between atoms: CB_21  and  CG_22
REMARK   10  A    between atoms: CG_22  and  CD_23
REMARK   11  A    between atoms: C_30  and  C_31
REMARK   12  A    between atoms: C_31  and  C_32
REMARK                            x       y       z     vdW  Elec       q    Type
REMARK                         _______ _______ _______ _____ _____    ______ ____
ROOT
ATOM      1  C   UNK A   0      -1.265   0.665   0.000  0.00  0.00    +0.000 A 
ATOM      2  C   UNK A   0      -1.265   1.490   0.000  0.00  0.00    +0.000 A 
ATOM      3  C   UNK A   0      -0.550   1.903   0.000  0.00  0.00    +0.000 A 
ATOM      4  C   UNK A   0       0.164   1.490   0.000  0.00  0.00    +0.000 A 
ATOM      5  C   UNK A   0       0.164   0.665   0.000  0.00  0.00    +0.000 A 
ATOM      6  C   UNK A   0      -0.550   0.252   0.000  0.00  0.00    +0.000 A 
ENDROOT
BRANCH   1   7
ATOM      7  S   UNK A   0      -1.979   0.252   0.000  0.00  0.00    +0.000 S 
ATOM      8  O   UNK A   0      -1.567  -0.462   0.000  0.00  0.00    +0.000 OA
ATOM      9  O   UNK A   0      -2.694  -0.160   0.000  0.00  0.00    +0.000 OA
BRANCH   7  12
ATOM     10  C   UNK A   0      -2.669   2.273   0.000  0.00  0.00    +0.000 C 
ATOM     11  C   UNK A   0      -2.056   1.721   0.000  0.00  0.00    +0.000 C 
ATOM     12  N   UNK A   0      -2.392   0.967   0.000  0.00  0.00    +0.000 NA
ATOM     13  C   UNK A   0      -3.212   1.053   0.000  0.00  0.00    +0.000 C 
ATOM     14  C   UNK A   0      -3.384   1.860   0.000  0.00  0.00    +0.000 C 
BRANCH  13  15
ATOM     15  C   UNK A   0      -3.764   0.440   0.000  0.00  0.00    +0.000 C 
ATOM     16  O   UNK A   0      -4.571   0.612   0.000  0.00  0.00    +0.000 OA
ATOM     17  N   UNK A   0      -3.509  -0.344   0.000  0.00  0.00    +0.000 NA
BRANCH  17  18
ATOM     18  C   UNK A   0      -4.061  -0.958   0.000  0.00  0.00    +0.000 C 
BRANCH  18  19
ATOM     19  C   UNK A   0      -3.806  -1.742   0.000  0.00  0.00    +0.000 C 
BRANCH  19  20
ATOM     20  C   UNK A   0      -4.358  -2.355   0.000  0.00  0.00    +0.000 C 
ATOM     21  O   UNK A   0      -4.103  -3.140   0.000  0.00  0.00    +0.000 OA
ATOM     22  O   UNK A   0      -5.165  -2.184   0.000  0.00  0.00    +0.000 OA
ENDBRANCH  19  20
ENDBRANCH  18  19
ENDBRANCH  17  18
ENDBRANCH  13  15
ENDBRANCH   7  12
ENDBRANCH   1   7
BRANCH   4  23
ATOM     23  C   UNK A   0       0.879   1.903   0.000  0.00  0.00    +0.000 C 
ATOM     24  N   GLU A   1       1.593   1.490   0.000  0.00  0.00    +0.000 NA
ATOM     25  O   UNK A   0       0.879   2.727   0.000  0.00  0.00    +0.000 OA
BRANCH  24  26
ATOM     26  CA  GLU A   1       2.308   1.903   0.000  0.00  0.00    +0.000 C 
BRANCH  26  27
ATOM     27  C   GLU A   1       2.308   2.727   0.000  0.00  0.00    +0.000 C 
ATOM     28  O   GLU A   1       3.022   3.140   0.000  0.00  0.00    +0.000 OA
ATOM     29  OXT GLU A   1       1.593   3.140   0.000  0.00  0.00    +0.000 OA
ENDBRANCH  26  27
BRANCH  26  30
ATOM     30  CB  GLU A   1       3.022   1.490   0.000  0.00  0.00    +0.000 C 
BRANCH  30  31
ATOM     31  CG  GLU A   1       3.736   1.903   0.000  0.00  0.00    +0.000 C 
BRANCH  31  32
ATOM     32  CD  GLU A   1       4.451   1.490   0.000  0.00  0.00    +0.000 C 
ATOM     33  OE1 GLU A   1       4.451   0.665   0.000  0.00  0.00    +0.000 OA
ATOM     34  OE2 GLU A   1       5.165   1.903   0.000  0.00  0.00    +0.000 OA
ENDBRANCH  31  32
ENDBRANCH  30  31
ENDBRANCH  26  30
ENDBRANCH  24  26
ENDBRANCH   4  23
TORSDOF 12
