REMARK  Name = 
REMARK  2 active torsions:
REMARK  status: ('A' for Active; 'I' for Inactive)
REMARK    1  A    between atoms: N_8  and  C_19
REMARK    2  A    between atoms: C_12  and  C_13
REMARK                            x       y       z     vdW  Elec       q    Type
REMARK                         _______ _______ _______ _____ _____    ______ ____
ROOT
ATOM      1  C   UNL     1      -1.429   0.000   0.000  0.00  0.00    +0.000 C 
ATOM      2  C   UNL     1      -0.715  -0.412   0.000  0.00  0.00    +0.000 A 
ATOM      3  C   UNL     1      -0.715  -1.238   0.000  0.00  0.00    +0.000 A 
ATOM      4  C   UNL     1       0.000  -1.650   0.000  0.00  0.00    +0.000 A 
ATOM      5  C   UNL     1       0.715  -1.238   0.000  0.00  0.00    +0.000 A 
ATOM      6  C   UNL     1       0.715  -0.412   0.000  0.00  0.00    +0.000 A 
ATOM      7  C   UNL     1       0.000   0.000   0.000  0.00  0.00    +0.000 A 
ATOM      8  N   UNL     1       1.429   0.000   0.000  0.00  0.00    +0.000 N 
ATOM      9  C   UNL     1       2.143  -0.412   0.000  0.00  0.00    +0.000 A 
ATOM     10  O   UNL     1       2.858   0.000   0.000  0.00  0.00    +0.000 OA
ATOM     11  N   UNL     1       2.143  -1.238   0.000  0.00  0.00    +0.000 NA
ATOM     12  C   UNL     1       1.429  -1.650   0.000  0.00  0.00    +0.000 A 
ENDROOT
BRANCH  12  13
ATOM     13  C   UNL     1       1.429  -2.475   0.000  0.00  0.00    +0.000 A 
ATOM     14  C   UNL     1       2.143  -2.888   0.000  0.00  0.00    +0.000 A 
ATOM     15  C   UNL     1       2.143  -3.712   0.000  0.00  0.00    +0.000 A 
ATOM     16  C   UNL     1       1.429  -4.125   0.000  0.00  0.00    +0.000 A 
ATOM     17  C   UNL     1       0.715  -3.712   0.000  0.00  0.00    +0.000 A 
ATOM     18  C   UNL     1       0.715  -2.888   0.000  0.00  0.00    +0.000 A 
ENDBRANCH  12  13
BRANCH   8  19
ATOM     19  C   UNL     1       1.429   0.825   0.000  0.00  0.00    +0.000 C 
ATOM     20  C   UNL     1       2.143   1.238   0.000  0.00  0.00    +0.000 C 
ATOM     21  C   UNL     1       0.715   1.238   0.000  0.00  0.00    +0.000 C 
ENDBRANCH   8  19
TORSDOF 2
