REMARK  Name = 
REMARK  4 active torsions:
REMARK  status: ('A' for Active; 'I' for Inactive)
REMARK    1  A    between atoms: N_2  and  C_4
REMARK    2  A    between atoms: C_13  and  C_15
REMARK    3  A    between atoms: N_22  and  C_23
REMARK    4  A    between atoms: C_23  and  C_24
REMARK                            x       y       z     vdW  Elec       q    Type
REMARK                         _______ _______ _______ _____ _____    ______ ____
ROOT
ATOM      1  C   UNL     1       1.429   0.000   0.000  0.00  0.00    +0.000 A 
ATOM      2  C   UNL     1       2.143  -0.412   0.000  0.00  0.00    +0.000 A 
ATOM      3  S   UNL     1       2.858   0.000   0.000  0.00  0.00    +0.000 S 
ATOM      4  C   UNL     1       3.572  -0.412   0.000  0.00  0.00    +0.000 A 
ATOM      5  N   UNL     1       3.572  -1.238   0.000  0.00  0.00    +0.000 NA
ATOM      6  C   UNL     1       2.858  -1.650   0.000  0.00  0.00    +0.000 A 
ATOM      7  O   UNL     1       2.858  -2.475   0.000  0.00  0.00    +0.000 OA
ATOM      8  C   UNL     1       2.143  -1.238   0.000  0.00  0.00    +0.000 A 
ATOM      9  C   UNL     1       1.429  -1.650   0.000  0.00  0.00    +0.000 A 
ATOM     10  C   UNL     1       0.715  -1.238   0.000  0.00  0.00    +0.000 A 
ATOM     11  C   UNL     1       0.715  -0.412   0.000  0.00  0.00    +0.000 A 
ATOM     12  N   UNL     1       4.287   0.000   0.000  0.00  0.00    +0.000 N 
ATOM     13  C   UNL     1       4.287   0.825   0.000  0.00  0.00    +0.000 C 
ATOM     14  C   UNL     1       5.001   1.238   0.000  0.00  0.00    +0.000 C 
ATOM     15  N   UNL     1       5.716   0.825   0.000  0.00  0.00    +0.000 NA
ATOM     16  C   UNL     1       5.716   0.000   0.000  0.00  0.00    +0.000 C 
ATOM     17  C   UNL     1       5.001  -0.412   0.000  0.00  0.00    +0.000 C 
ENDROOT
BRANCH  10  18
ATOM     18  C   UNL     1       0.000  -1.650   0.000  0.00  0.00    +0.000 C 
ATOM     19  F   UNL     1      -0.715  -2.062   0.000  0.00  0.00    +0.000 F 
ATOM     20  F   UNL     1       0.412  -2.365   0.000  0.00  0.00    +0.000 F 
ATOM     21  F   UNL     1      -0.412  -0.935   0.000  0.00  0.00    +0.000 F 
ENDBRANCH  10  18
BRANCH   1  23
ATOM     22  O   UNL     1       0.715   1.238   0.000  0.00  0.00    +0.000 OA
ATOM     23  N   UNL     1       1.429   0.825   0.000  0.00  0.00    +0.000 N 
ATOM     24  O   UNL     1       2.143   1.238   0.000  0.00  0.00    +0.000 OA
ENDBRANCH   1  23
BRANCH  15  25
ATOM     25  C   UNL     1       6.430   1.238   0.000  0.00  0.00    +0.000 C 
BRANCH  25  26
ATOM     26  C   UNL     1       7.145   0.825   0.000  0.00  0.00    +0.000 C 
ATOM     27  C   UNL     1       7.859   1.238   0.000  0.00  0.00    +0.000 C 
ATOM     28  C   UNL     1       8.574   0.825   0.000  0.00  0.00    +0.000 C 
ATOM     29  C   UNL     1       8.574   0.000   0.000  0.00  0.00    +0.000 C 
ATOM     30  C   UNL     1       7.859  -0.412   0.000  0.00  0.00    +0.000 C 
ATOM     31  C   UNL     1       7.145   0.000   0.000  0.00  0.00    +0.000 C 
ENDBRANCH  25  26
ENDBRANCH  15  25
TORSDOF 4
