REMARK  Name = 
REMARK  108 active torsions:
REMARK  status: ('A' for Active; 'I' for Inactive)
REMARK    1  A    between atoms: N_1  and  C_2
REMARK    2  A    between atoms: C_2  and  C_3
REMARK    3  A    between atoms: C_6  and  C_7
REMARK    4  A    between atoms: C_7  and  N_8
REMARK    5  A    between atoms: N_11  and  CA_12
REMARK    6  A    between atoms: CA_12  and  C_14
REMARK    7  A    between atoms: N_15  and  CA_16
REMARK    8  A    between atoms: CA_16  and  C_17
REMARK    9  A    between atoms: CA_16  and  CB_30
REMARK   10  A    between atoms: N_18  and  CA_19
REMARK   11  A    between atoms: CA_19  and  C_21
REMARK   12  A    between atoms: CA_19  and  CB_31
REMARK   13  A    between atoms: N_22  and  CA_23
REMARK   14  A    between atoms: CA_23  and  CB_32
REMARK   15  A    between atoms: CA_23  and  C_33
REMARK   16  A    between atoms: C_25  and  CA_26
REMARK   17  A    between atoms: CA_26  and  CB_28
REMARK   18  A    between atoms: CA_26  and  N_29
REMARK   19  A    between atoms: CB_28  and  CG_152
REMARK   20  A    between atoms: CB_31  and  CG_158
REMARK   21  A    between atoms: N_34  and  CA_35
REMARK   22  A    between atoms: CA_35  and  C_37
REMARK   23  A    between atoms: CA_35  and  CB_56
REMARK   24  A    between atoms: N_38  and  CA_39
REMARK   25  A    between atoms: CA_39  and  C_40
REMARK   26  A    between atoms: CA_39  and  CB_57
REMARK   27  A    between atoms: N_41  and  C_42
REMARK   28  A    between atoms: C_42  and  C_44
REMARK   29  A    between atoms: C_42  and  C_58
REMARK   30  A    between atoms: N_45  and  C_46
REMARK   31  A    between atoms: C_46  and  C_47
REMARK   32  A    between atoms: C_46  and  C_59
REMARK   33  A    between atoms: N_48  and  C_138
REMARK   34  A    between atoms: C_51  and  CA_52
REMARK   35  A    between atoms: CA_52  and  CB_54
REMARK   36  A    between atoms: CA_52  and  N_55
REMARK   37  A    between atoms: CB_54  and  CG_167
REMARK   38  A    between atoms: C_59  and  C_174
REMARK   39  A    between atoms: N_60  and  CA_61
REMARK   40  A    between atoms: CA_61  and  C_62
REMARK   41  A    between atoms: CA_61  and  CB_65
REMARK   42  A    between atoms: N_66  and  C_67
REMARK   43  A    between atoms: C_67  and  C_69
REMARK   44  A    between atoms: C_67  and  C_89
REMARK   45  A    between atoms: N_70  and  C_71
REMARK   46  A    between atoms: C_71  and  C_72
REMARK   47  A    between atoms: C_71  and  C_90
REMARK   48  A    between atoms: N_73  and  C_74
REMARK   49  A    between atoms: C_74  and  C_76
REMARK   50  A    between atoms: C_74  and  C_91
REMARK   51  A    between atoms: N_77  and  C_78
REMARK   52  A    between atoms: C_78  and  C_79
REMARK   53  A    between atoms: C_78  and  C_92
REMARK   54  A    between atoms: N_83  and  C_227
REMARK   55  A    between atoms: C_84  and  C_85
REMARK   56  A    between atoms: C_85  and  N_88
REMARK   57  A    between atoms: C_89  and  C_209
REMARK   58  A    between atoms: C_90  and  C_218
REMARK   59  A    between atoms: C_92  and  C_226
REMARK   60  A    between atoms: N_93  and  C_94
REMARK   61  A    between atoms: C_94  and  C_96
REMARK   62  A    between atoms: N_97  and  C_98
REMARK   63  A    between atoms: C_98  and  C_99
REMARK   64  A    between atoms: C_98  and  C_119
REMARK   65  A    between atoms: N_100  and  C_101
REMARK   66  A    between atoms: C_101  and  C_103
REMARK   67  A    between atoms: C_101  and  C_120
REMARK   68  A    between atoms: N_104  and  C_105
REMARK   69  A    between atoms: C_105  and  C_106
REMARK   70  A    between atoms: C_105  and  C_121
REMARK   71  A    between atoms: N_107  and  C_108
REMARK   72  A    between atoms: C_108  and  C_109
REMARK   73  A    between atoms: C_108  and  C_122
REMARK   74  A    between atoms: C_113  and  C_114
REMARK   75  A    between atoms: C_114  and  N_117
REMARK   76  A    between atoms: C_119  and  C_195
REMARK   77  A    between atoms: C_120  and  C_197
REMARK   78  A    between atoms: C_121  and  C_196
REMARK   79  A    between atoms: C_122  and  C_207
REMARK   80  A    between atoms: C_123  and  C_124
REMARK   81  A    between atoms: C_124  and  C_126
REMARK   82  A    between atoms: C_124  and  N_127
REMARK   83  A    between atoms: C_126  and  C_188
REMARK   84  A    between atoms: C_128  and  C_137
REMARK   85  A    between atoms: C_130  and  C_131
REMARK   86  A    between atoms: C_131  and  C_132
REMARK   87  A    between atoms: C_131  and  N_133
REMARK   88  A    between atoms: C_132  and  C_184
REMARK   89  A    between atoms: C_134  and  C_138
REMARK   90  A    between atoms: N_136  and  C_137
REMARK   91  A    between atoms: C_138  and  C_140
REMARK   92  A    between atoms: C_140  and  C_181
REMARK   93  A    between atoms: C_142  and  C_143
REMARK   94  A    between atoms: C_143  and  C_145
REMARK   95  A    between atoms: C_145  and  C_148
REMARK   96  A    between atoms: CG_152  and  CD_153
REMARK   97  A    between atoms: C_184  and  C_185
REMARK   98  A    between atoms: C_188  and  C_189
REMARK   99  A    between atoms: C_193  and  C_194
REMARK  100  A    between atoms: C_194  and  C_195
REMARK  101  A    between atoms: C_197  and  C_198
REMARK  102  A    between atoms: C_224  and  C_225
REMARK  103  A    between atoms: C_225  and  C_226
REMARK  104  A    between atoms: C_227  and  C_228
REMARK  105  A    between atoms: C_227  and  C_231
REMARK  106  A    between atoms: C_231  and  C_236
REMARK  107  A    between atoms: N_234  and  C_235
REMARK  108  A    between atoms: C_235  and  C_236
REMARK                            x       y       z     vdW  Elec       q    Type
REMARK                         _______ _______ _______ _____ _____    ______ ____
ROOT
ATOM      1  N   UNK A   9      13.009  -1.460   0.000  0.00  0.00    +0.000 NA
ATOM      2  C   UNK A   9      12.311  -1.047   0.000  0.00  0.00    +0.000 C 
ATOM      3  O   UNK A   9      11.582  -1.460   0.000  0.00  0.00    +0.000 OA
ENDROOT
BRANCH   1   4
ATOM      4  C   UNK A   9      13.009  -2.284   0.000  0.00  0.00    +0.000 C 
BRANCH   4   6
ATOM      5  N   UNK A   9      12.311  -3.522   0.000  0.00  0.00    +0.000 NA
ATOM      6  C   UNK A   9      12.311  -2.697   0.000  0.00  0.00    +0.000 C 
ATOM      7  O   UNK A   9      11.582  -2.284   0.000  0.00  0.00    +0.000 OA
BRANCH   5   8
ATOM      8  C   UNK A   9      11.582  -3.934   0.000  0.00  0.00    +0.000 C 
ATOM      9  C   UNK A   9      11.582  -4.791   0.000  0.00  0.00    +0.000 C 
BRANCH   8  11
ATOM     10  N   UNK A   9      10.154  -3.934   0.000  0.00  0.00    +0.000 NA
ATOM     11  C   UNK A   9      10.852  -3.522   0.000  0.00  0.00    +0.000 C 
ATOM     12  O   UNK A   9      10.883  -2.697   0.000  0.00  0.00    +0.000 OA
BRANCH  10  13
ATOM     13  C   UNK A   9       9.424  -3.522   0.000  0.00  0.00    +0.000 C 
ATOM     14  C   UNK A   9       9.424  -2.697   0.000  0.00  0.00    +0.000 C 
BRANCH  13  16
ATOM     15  O   UNK A   9       8.694  -4.760   0.000  0.00  0.00    +0.000 OA
ATOM     16  C   UNK A   9       8.694  -3.934   0.000  0.00  0.00    +0.000 C 
ATOM     17  N   UNK A   9       7.996  -3.522   0.000  0.00  0.00    +0.000 NA
BRANCH  17  18
ATOM     18  C   UNK A   9       7.266  -3.934   0.000  0.00  0.00    +0.000 C 
BRANCH  18  19
ATOM     19  C   UNK A   9       6.568  -3.522   0.000  0.00  0.00    +0.000 C 
ATOM     20  N   UNK A   9       5.838  -3.934   0.000  0.00  0.00    +0.000 NA
ATOM     21  O   UNK A   9       6.568  -2.697   0.000  0.00  0.00    +0.000 OA
BRANCH  20  22
ATOM     22  C   UNK A   9       5.109  -3.522   0.000  0.00  0.00    +0.000 C 
BRANCH  22  24
ATOM     23  O   UNK A   9       4.410  -4.760   0.000  0.00  0.00    +0.000 OA
ATOM     24  C   UNK A   9       4.410  -3.934   0.000  0.00  0.00    +0.000 C 
ATOM     25  N   UNK A   9       3.681  -3.522   0.000  0.00  0.00    +0.000 NA
BRANCH  25  26
ATOM     26  C   UNK A   9       2.951  -3.934   0.000  0.00  0.00    +0.000 C 
BRANCH  26  27
ATOM     27  C   UNK A   9       2.253  -3.522   0.000  0.00  0.00    +0.000 C 
ATOM     28  N   UNK A   9       1.523  -3.934   0.000  0.00  0.00    +0.000 NA
ATOM     29  O   UNK A   9       2.253  -2.697   0.000  0.00  0.00    +0.000 OA
BRANCH  28  30
ATOM     30  C   UNK A   9       0.793  -3.522   0.000  0.00  0.00    +0.000 C 
BRANCH  30  32
ATOM     31  N   UNK A   9      -0.635  -3.522   0.000  0.00  0.00    +0.000 NA
ATOM     32  C   UNK A   9       0.095  -3.934   0.000  0.00  0.00    +0.000 C 
ATOM     33  O   UNK A   9       0.095  -4.760   0.000  0.00  0.00    +0.000 OA
BRANCH  31  34
ATOM     34  C   UNK A   9      -1.364  -3.934   0.000  0.00  0.00    +0.000 C 
ATOM     35  C   UNK A   9      -1.364  -4.760   0.000  0.00  0.00    +0.000 C 
BRANCH  34  37
ATOM     36  N   UNK A   9      -2.792  -3.934   0.000  0.00  0.00    +0.000 NA
ATOM     37  C   UNK A   9      -2.094  -3.522   0.000  0.00  0.00    +0.000 C 
ATOM     38  O   UNK A   9      -2.094  -2.697   0.000  0.00  0.00    +0.000 OA
BRANCH  36  39
ATOM     39  C   UNK A   9      -3.522  -3.522   0.000  0.00  0.00    +0.000 C 
BRANCH  39  41
ATOM     40  O   UNK A   9      -4.252  -4.760   0.000  0.00  0.00    +0.000 OA
ATOM     41  C   UNK A   9      -4.252  -3.934   0.000  0.00  0.00    +0.000 C 
ATOM     42  N   UNK A   9      -4.950  -3.522   0.000  0.00  0.00    +0.000 NA
BRANCH  42  43
ATOM     43  C   UNK A   9      -5.680  -3.934   0.000  0.00  0.00    +0.000 C 
BRANCH  43  44
ATOM     44  C   UNK A   9      -6.378  -3.522   0.000  0.00  0.00    +0.000 C 
ATOM     45  N   UNK A   9      -7.108  -3.934   0.000  0.00  0.00    +0.000 NA
ATOM     46  O   UNK A   9      -6.378  -2.697   0.000  0.00  0.00    +0.000 OA
BRANCH  45  47
ATOM     47  C   UNK A   9      -7.837  -3.522   0.000  0.00  0.00    +0.000 C 
BRANCH  47  49
ATOM     48  O   UNK A   9      -8.567  -4.760   0.000  0.00  0.00    +0.000 OA
ATOM     49  C   UNK A   9      -8.567  -3.934   0.000  0.00  0.00    +0.000 C 
ATOM     50  N   UNK A   9      -9.265  -3.522   0.000  0.00  0.00    +0.000 NA
BRANCH  50  51
ATOM     51  C   UNK A   9      -9.995  -3.934   0.000  0.00  0.00    +0.000 C 
BRANCH  51  53
ATOM     52  N   UNK A   9     -11.423  -3.934   0.000  0.00  0.00    +0.000 NA
ATOM     53  C   UNK A   9     -10.693  -3.522   0.000  0.00  0.00    +0.000 C 
ATOM     54  O   UNK A   9     -10.693  -2.697   0.000  0.00  0.00    +0.000 OA
BRANCH  52  55
ATOM     55  C   UNK A   9     -12.153  -3.522   0.000  0.00  0.00    +0.000 C 
ATOM     56  C   UNK A   9     -11.835  -2.729   0.000  0.00  0.00    +0.000 C 
ATOM     57  C   UNK A   9     -12.470  -2.760   0.000  0.00  0.00    +0.000 C 
BRANCH  55  58
ATOM     58  C   UNK A   9     -12.851  -3.934   0.000  0.00  0.00    +0.000 C 
ATOM     59  O   UNK A   9     -12.851  -4.760   0.000  0.00  0.00    +0.000 OA
ATOM     60  N   UNK A   9     -13.581  -3.522   0.000  0.00  0.00    +0.000 NA
BRANCH  60  61
ATOM     61  C   UNK A   9     -14.310  -3.934   0.000  0.00  0.00    +0.000 C 
BRANCH  61  62
ATOM     62  C   UNK A   9     -15.040  -3.522   0.000  0.00  0.00    +0.000 C 
ATOM     63  N   UNK A   9     -15.738  -3.934   0.000  0.00  0.00    +0.000 NA
ATOM     64  O   UNK A   9     -15.040  -2.697   0.000  0.00  0.00    +0.000 OA
ENDBRANCH  61  62
BRANCH  61  65
ATOM     65  C   UNK A   9     -14.278  -4.760   0.000  0.00  0.00    +0.000 C 
BRANCH  65  66
ATOM     66  C   UNK A   9     -13.581  -5.172   0.000  0.00  0.00    +0.000 C 
BRANCH  66  67
ATOM     67  C   UNK A   9     -13.581  -5.997   0.000  0.00  0.00    +0.000 C 
BRANCH  67  70
ATOM     68  N   UNK A   9     -15.008  -5.172   0.000  0.00  0.00    +0.000 NA
ATOM     69  C   UNK A   9     -15.008  -5.997   0.000  0.00  0.00    +0.000 C 
ATOM     70  N   UNK A   9     -14.278  -6.410   0.000  0.00  0.00    +0.000 NA
ATOM     71  N   UNK A   9     -15.706  -6.410   0.000  0.00  0.00    +0.000 NA
ENDBRANCH  67  70
ENDBRANCH  66  67
ENDBRANCH  65  66
ENDBRANCH  61  65
ENDBRANCH  60  61
ENDBRANCH  55  58
ENDBRANCH  52  55
ENDBRANCH  51  53
BRANCH  51  72
ATOM     72  C   UNK A   9      -9.995  -4.760   0.000  0.00  0.00    +0.000 C 
BRANCH  72  73
ATOM     73  C   UNK A   9      -9.265  -5.172   0.000  0.00  0.00    +0.000 C 
BRANCH  73  74
ATOM     74  C   UNK A   9      -9.265  -5.997   0.000  0.00  0.00    +0.000 C 
BRANCH  74  76
ATOM     75  N   UNK A   9     -10.725  -5.997   0.000  0.00  0.00    +0.000 NA
ATOM     76  C   UNK A   9      -9.995  -6.410   0.000  0.00  0.00    +0.000 C 
ENDBRANCH  74  76
ENDBRANCH  73  74
ENDBRANCH  72  73
ENDBRANCH  51  72
ENDBRANCH  50  51
ENDBRANCH  47  49
BRANCH  47  77
ATOM     77  C   UNK A   9      -7.837  -2.697   0.000  0.00  0.00    +0.000 C 
ATOM     78  C   UNK A   9      -7.108  -2.284   0.000  0.00  0.00    +0.000 C 
ATOM     79  C   UNK A   9      -8.535  -2.284   0.000  0.00  0.00    +0.000 C 
ENDBRANCH  47  77
ENDBRANCH  45  47
ENDBRANCH  43  44
BRANCH  43  80
ATOM     80  C   UNK A   9      -5.680  -4.760   0.000  0.00  0.00    +0.000 C 
BRANCH  80  81
ATOM     81  C   UNK A   9      -6.410  -5.172   0.000  0.00  0.00    +0.000 C 
ATOM     82  C   UNK A   9      -7.108  -4.760   0.000  0.00  0.00    +0.000 C 
ATOM     83  C   UNK A   9      -6.410  -5.997   0.000  0.00  0.00    +0.000 C 
ENDBRANCH  80  81
ENDBRANCH  43  80
ENDBRANCH  42  43
ENDBRANCH  39  41
BRANCH  39  84
ATOM     84  C   UNK A   9      -3.522  -2.697   0.000  0.00  0.00    +0.000 C 
BRANCH  84  85
ATOM     85  C   UNK A   9      -4.252  -2.253   0.000  0.00  0.00    +0.000 A 
ATOM     86  N   UNK A   9      -5.489  -1.840   0.000  0.00  0.00    +0.000 NA
ATOM     87  C   UNK A   9      -5.013  -2.507   0.000  0.00  0.00    +0.000 A 
ATOM     88  C   UNK A   9      -5.013  -1.174   0.000  0.00  0.00    +0.000 A 
ATOM     89  C   UNK A   9      -4.220  -1.428   0.000  0.00  0.00    +0.000 A 
ATOM     90  C   UNK A   9      -3.617  -0.888   0.000  0.00  0.00    +0.000 A 
ATOM     91  C   UNK A   9      -3.776  -0.095   0.000  0.00  0.00    +0.000 A 
ATOM     92  C   UNK A   9      -4.569   0.190   0.000  0.00  0.00    +0.000 A 
ATOM     93  C   UNK A   9      -5.172  -0.381   0.000  0.00  0.00    +0.000 A 
ENDBRANCH  84  85
ENDBRANCH  39  84
ENDBRANCH  36  39
ENDBRANCH  34  37
ENDBRANCH  31  34
ENDBRANCH  30  32
BRANCH  30  94
ATOM     94  C   UNK A   9       0.825  -2.697   0.000  0.00  0.00    +0.000 C 
ATOM     95  C   UNK A   9       1.523  -2.284   0.000  0.00  0.00    +0.000 C 
BRANCH  94  96
ATOM     96  C   UNK A   9       0.095  -2.284   0.000  0.00  0.00    +0.000 C 
ATOM     97  C   UNK A   9       0.095  -1.460   0.000  0.00  0.00    +0.000 C 
ENDBRANCH  94  96
ENDBRANCH  30  94
ENDBRANCH  28  30
ENDBRANCH  26  27
BRANCH  26  98
ATOM     98  C   UNK A   9       2.951  -4.760   0.000  0.00  0.00    +0.000 C 
BRANCH  98  99
ATOM     99  C   UNK A   9       2.253  -5.172   0.000  0.00  0.00    +0.000 A 
ATOM    100  C   UNK A   9       1.523  -4.760   0.000  0.00  0.00    +0.000 A 
ATOM    101  C   UNK A   9       0.793  -5.172   0.000  0.00  0.00    +0.000 A 
ATOM    102  C   UNK A   9       0.793  -5.997   0.000  0.00  0.00    +0.000 A 
ATOM    103  C   UNK A   9       1.523  -6.410   0.000  0.00  0.00    +0.000 A 
ATOM    104  C   UNK A   9       2.253  -6.029   0.000  0.00  0.00    +0.000 A 
ENDBRANCH  98  99
ENDBRANCH  26  98
ENDBRANCH  25  26
ENDBRANCH  22  24
BRANCH  22 105
ATOM    105  C   UNK A   9       5.109  -2.697   0.000  0.00  0.00    +0.000 C 
BRANCH 105 106
ATOM    106  C   UNK A   9       4.410  -2.284   0.000  0.00  0.00    +0.000 C 
BRANCH 106 107
ATOM    107  C   UNK A   9       4.410  -1.460   0.000  0.00  0.00    +0.000 C 
ATOM    108  O   UNK A   9       3.712  -1.047   0.000  0.00  0.00    +0.000 OA
ATOM    109  O   UNK A   9       5.140  -1.047   0.000  0.00  0.00    +0.000 OA
ENDBRANCH 106 107
ENDBRANCH 105 106
ENDBRANCH  22 105
ENDBRANCH  20  22
ENDBRANCH  18  19
BRANCH  18 110
ATOM    110  C   UNK A   9       7.266  -4.760   0.000  0.00  0.00    +0.000 C 
BRANCH 110 111
ATOM    111  C   UNK A   9       7.996  -5.172   0.000  0.00  0.00    +0.000 C 
BRANCH 111 112
ATOM    112  C   UNK A   9       7.996  -6.029   0.000  0.00  0.00    +0.000 C 
BRANCH 112 114
ATOM    113  N   UNK A   9       6.536  -6.029   0.000  0.00  0.00    +0.000 NA
ATOM    114  C   UNK A   9       7.266  -6.441   0.000  0.00  0.00    +0.000 C 
ENDBRANCH 112 114
ENDBRANCH 111 112
ENDBRANCH 110 111
ENDBRANCH  18 110
ENDBRANCH  17  18
ENDBRANCH  13  16
ENDBRANCH  10  13
ENDBRANCH   8  11
ENDBRANCH   5   8
ENDBRANCH   4   6
BRANCH   4 115
ATOM    115  C   UNK A   9      13.739  -2.697   0.000  0.00  0.00    +0.000 C 
BRANCH 115 116
ATOM    116  C   UNK A   9      13.739  -3.522   0.000  0.00  0.00    +0.000 C 
BRANCH 116 117
ATOM    117  C   UNK A   9      14.469  -3.934   0.000  0.00  0.00    +0.000 C 
ATOM    118  O   UNK A   9      14.437  -4.760   0.000  0.00  0.00    +0.000 OA
ATOM    119  N   UNK A   9      15.167  -3.522   0.000  0.00  0.00    +0.000 NA
ENDBRANCH 116 117
ENDBRANCH 115 116
ENDBRANCH   4 115
ENDBRANCH   1   4
BRANCH   2 120
ATOM    120  C   UNK A   9      12.280  -0.222   0.000  0.00  0.00    +0.000 C 
BRANCH 120 123
ATOM    121  C   UNK A   9      12.978   1.047   0.000  0.00  0.00    +0.000 C 
ATOM    122  O   UNK A   9      12.248   1.460   0.000  0.00  0.00    +0.000 OA
ATOM    123  N   UNK A   9      13.009   0.222   0.000  0.00  0.00    +0.000 NA
BRANCH 121 124
ATOM    124  C   UNK A   9      13.676   1.491   0.000  0.00  0.00    +0.000 C 
BRANCH 124 125
ATOM    125  N   UNK A   9      13.676   2.316   0.000  0.00  0.00    +0.000 NA
ATOM    126  C   UNK A   9      12.946   2.697   0.000  0.00  0.00    +0.000 C 
ATOM    127  O   UNK A   9      12.216   2.284   0.000  0.00  0.00    +0.000 OA
BRANCH 126 128
ATOM    128  C   UNK A   9      12.914   3.522   0.000  0.00  0.00    +0.000 C 
BRANCH 128 130
ATOM    129  C   UNK A   9      11.455   3.522   0.000  0.00  0.00    +0.000 C 
ATOM    130  N   UNK A   9      12.184   3.934   0.000  0.00  0.00    +0.000 NA
ATOM    131  O   UNK A   9      11.455   2.697   0.000  0.00  0.00    +0.000 OA
BRANCH 129 132
ATOM    132  C   UNK A   9      10.757   3.934   0.000  0.00  0.00    +0.000 C 
BRANCH 132 135
ATOM    133  O   UNK A   9       9.297   4.760   0.000  0.00  0.00    +0.000 OA
ATOM    134  C   UNK A   9       9.297   3.934   0.000  0.00  0.00    +0.000 C 
ATOM    135  N   UNK A   9      10.027   3.522   0.000  0.00  0.00    +0.000 NA
BRANCH 134 136
ATOM    136  C   UNK A   9       8.567   3.522   0.000  0.00  0.00    +0.000 C 
BRANCH 136 138
ATOM    137  C   SER A   8       7.139   3.522   0.000  0.00  0.00    +0.000 C 
ATOM    138  N   UNK A   9       7.869   3.934   0.000  0.00  0.00    +0.000 NA
ATOM    139  O   SER A   8       7.139   2.697   0.000  0.00  0.00    +0.000 OA
BRANCH 137 140
ATOM    140  CA  SER A   8       6.441   3.934   0.000  0.00  0.00    +0.000 C 
BRANCH 140 143
ATOM    141  O   VAL A   7       4.982   4.760   0.000  0.00  0.00    +0.000 OA
ATOM    142  C   VAL A   7       4.982   3.934   0.000  0.00  0.00    +0.000 C 
ATOM    143  N   SER A   8       5.711   3.522   0.000  0.00  0.00    +0.000 NA
BRANCH 142 144
ATOM    144  CA  VAL A   7       4.284   3.522   0.000  0.00  0.00    +0.000 C 
BRANCH 144 145
ATOM    145  N   VAL A   7       3.554   3.934   0.000  0.00  0.00    +0.000 NA
ATOM    146  C   ASP A   6       2.824   3.522   0.000  0.00  0.00    +0.000 C 
ATOM    147  O   ASP A   6       2.824   2.697   0.000  0.00  0.00    +0.000 OA
BRANCH 146 148
ATOM    148  CA  ASP A   6       2.126   3.934   0.000  0.00  0.00    +0.000 C 
BRANCH 148 149
ATOM    149  N   ASP A   6       1.396   3.522   0.000  0.00  0.00    +0.000 NA
ATOM    150  C   SER A   5       0.666   3.934   0.000  0.00  0.00    +0.000 C 
ATOM    151  O   SER A   5       0.666   4.791   0.000  0.00  0.00    +0.000 OA
BRANCH 150 152
ATOM    152  CA  SER A   5      -0.063   3.522   0.000  0.00  0.00    +0.000 C 
BRANCH 152 154
ATOM    153  C   THR A   4      -1.491   3.522   0.000  0.00  0.00    +0.000 C 
ATOM    154  N   SER A   5      -0.761   3.934   0.000  0.00  0.00    +0.000 NA
ATOM    155  O   THR A   4      -1.491   2.697   0.000  0.00  0.00    +0.000 OA
BRANCH 153 156
ATOM    156  CA  THR A   4      -2.189   3.934   0.000  0.00  0.00    +0.000 C 
BRANCH 156 159
ATOM    157  O   PHE A   3      -3.649   4.791   0.000  0.00  0.00    +0.000 OA
ATOM    158  C   PHE A   3      -3.649   3.934   0.000  0.00  0.00    +0.000 C 
ATOM    159  N   THR A   4      -2.919   3.522   0.000  0.00  0.00    +0.000 NA
BRANCH 158 160
ATOM    160  CA  PHE A   3      -4.379   3.522   0.000  0.00  0.00    +0.000 C 
BRANCH 160 162
ATOM    161  C   THR A   2      -5.807   3.522   0.000  0.00  0.00    +0.000 C 
ATOM    162  N   PHE A   3      -5.077   3.934   0.000  0.00  0.00    +0.000 NA
ATOM    163  O   THR A   2      -5.807   2.697   0.000  0.00  0.00    +0.000 OA
BRANCH 161 164
ATOM    164  CA  THR A   2      -6.505   3.934   0.000  0.00  0.00    +0.000 C 
BRANCH 164 167
ATOM    165  O   GLU A   1      -7.964   4.791   0.000  0.00  0.00    +0.000 OA
ATOM    166  C   GLU A   1      -7.964   3.934   0.000  0.00  0.00    +0.000 C 
ATOM    167  N   THR A   2      -7.234   3.522   0.000  0.00  0.00    +0.000 NA
BRANCH 166 168
ATOM    168  CA  GLU A   1      -8.662   3.522   0.000  0.00  0.00    +0.000 C 
BRANCH 168 169
ATOM    169  N   GLU A   1      -9.392   3.934   0.000  0.00  0.00    +0.000 NA
ATOM    170  C   GLU A   1     -10.122   3.522   0.000  0.00  0.00    +0.000 C 
ATOM    171  O   GLU A   1     -10.122   2.697   0.000  0.00  0.00    +0.000 OA
BRANCH 170 172
ATOM    172  CA  GLU A   1     -10.852   3.966   0.000  0.00  0.00    +0.000 C 
BRANCH 172 174
ATOM    173  C   UNK A   0     -12.280   3.966   0.000  0.00  0.00    +0.000 C 
ATOM    174  N   GLU A   1     -11.550   3.554   0.000  0.00  0.00    +0.000 NA
ATOM    175  O   UNK A   0     -12.280   4.791   0.000  0.00  0.00    +0.000 OA
BRANCH 173 176
ATOM    176  C   UNK A   0     -12.978   3.554   0.000  0.00  0.00    +0.000 C 
ATOM    177  C   UNK A   0     -12.692   2.760   0.000  0.00  0.00    +0.000 C 
ATOM    178  C   UNK A   0     -13.295   2.792   0.000  0.00  0.00    +0.000 C 
BRANCH 176 179
ATOM    179  N   UNK A   0     -13.707   3.934   0.000  0.00  0.00    +0.000 NA
ATOM    180  C   UNK A   0     -14.437   3.554   0.000  0.00  0.00    +0.000 C 
ATOM    181  O   UNK A   0     -14.437   2.729   0.000  0.00  0.00    +0.000 OA
BRANCH 180 182
ATOM    182  C   UNK A   0     -15.135   3.966   0.000  0.00  0.00    +0.000 C 
ATOM    183  N   UNK A   0     -15.865   3.554   0.000  0.00  0.00    +0.000 NA
BRANCH 182 184
ATOM    184  C   UNK A   0     -15.135   4.791   0.000  0.00  0.00    +0.000 C 
BRANCH 184 186
ATOM    185  C   UNK A   0     -14.437   6.029   0.000  0.00  0.00    +0.000 A 
ATOM    186  C   UNK A   0     -14.437   5.204   0.000  0.00  0.00    +0.000 A 
ATOM    187  N   UNK A   0     -13.644   4.950   0.000  0.00  0.00    +0.000 NA
ATOM    188  C   UNK A   0     -13.136   5.648   0.000  0.00  0.00    +0.000 A 
ATOM    189  N   UNK A   0     -13.644   6.314   0.000  0.00  0.00    +0.000 NA
ENDBRANCH 184 186
ENDBRANCH 182 184
ENDBRANCH 180 182
ENDBRANCH 176 179
ENDBRANCH 173 176
ENDBRANCH 172 174
BRANCH 172 190
ATOM    190  CB  GLU A   1     -10.852   4.791   0.000  0.00  0.00    +0.000 C 
BRANCH 190 191
ATOM    191  CG  GLU A   1     -10.122   5.204   0.000  0.00  0.00    +0.000 C 
BRANCH 191 192
ATOM    192  CD  GLU A   1     -10.122   6.029   0.000  0.00  0.00    +0.000 C 
ATOM    193  OE1 GLU A   1      -9.424   6.441   0.000  0.00  0.00    +0.000 OA
ATOM    194  OE2 GLU A   1     -10.852   6.441   0.000  0.00  0.00    +0.000 OA
ENDBRANCH 191 192
ENDBRANCH 190 191
ENDBRANCH 172 190
ENDBRANCH 170 172
ENDBRANCH 168 169
ENDBRANCH 166 168
ENDBRANCH 164 167
BRANCH 164 195
ATOM    195  CB  THR A   2      -6.505   4.791   0.000  0.00  0.00    +0.000 C 
ATOM    196  OG1 THR A   2      -5.807   5.204   0.000  0.00  0.00    +0.000 OA
ATOM    197  CG2 THR A   2      -7.234   5.204   0.000  0.00  0.00    +0.000 C 
ENDBRANCH 164 195
ENDBRANCH 161 164
ENDBRANCH 160 162
BRANCH 160 198
ATOM    198  CB  PHE A   3      -4.379   2.697   0.000  0.00  0.00    +0.000 C 
BRANCH 198 199
ATOM    199  CG  PHE A   3      -3.649   2.284   0.000  0.00  0.00    +0.000 A 
ATOM    200  CD1 PHE A   3      -3.681   1.460   0.000  0.00  0.00    +0.000 A 
ATOM    201  CE1 PHE A   3      -2.951   1.047   0.000  0.00  0.00    +0.000 A 
ATOM    202  CZ  PHE A   3      -2.253   1.460   0.000  0.00  0.00    +0.000 A 
ATOM    203  CE2 PHE A   3      -2.221   2.284   0.000  0.00  0.00    +0.000 A 
ATOM    204  CD2 PHE A   3      -2.951   2.697   0.000  0.00  0.00    +0.000 A 
ENDBRANCH 198 199
ENDBRANCH 160 198
ENDBRANCH 158 160
ENDBRANCH 156 159
BRANCH 156 205
ATOM    205  CB  THR A   4      -2.189   4.791   0.000  0.00  0.00    +0.000 C 
ATOM    206  OG1 THR A   4      -1.491   5.204   0.000  0.00  0.00    +0.000 OA
ATOM    207  CG2 THR A   4      -2.919   5.204   0.000  0.00  0.00    +0.000 C 
ENDBRANCH 156 205
ENDBRANCH 153 156
ENDBRANCH 152 154
BRANCH 152 208
ATOM    208  CB  SER A   5      -0.063   2.697   0.000  0.00  0.00    +0.000 C 
ATOM    209  OG  SER A   5       0.666   2.284   0.000  0.00  0.00    +0.000 OA
ENDBRANCH 152 208
ENDBRANCH 150 152
ENDBRANCH 148 149
BRANCH 148 210
ATOM    210  CB  ASP A   6       2.126   4.760   0.000  0.00  0.00    +0.000 C 
BRANCH 210 211
ATOM    211  CG  ASP A   6       2.824   5.172   0.000  0.00  0.00    +0.000 C 
ATOM    212  OD1 ASP A   6       2.824   6.029   0.000  0.00  0.00    +0.000 OA
ATOM    213  OD2 ASP A   6       3.554   4.791   0.000  0.00  0.00    +0.000 OA
ENDBRANCH 210 211
ENDBRANCH 148 210
ENDBRANCH 146 148
ENDBRANCH 144 145
BRANCH 144 214
ATOM    214  CB  VAL A   7       4.284   2.697   0.000  0.00  0.00    +0.000 C 
ATOM    215  CG1 VAL A   7       3.554   2.284   0.000  0.00  0.00    +0.000 C 
ATOM    216  CG2 VAL A   7       4.982   2.284   0.000  0.00  0.00    +0.000 C 
ENDBRANCH 144 214
ENDBRANCH 142 144
ENDBRANCH 140 143
BRANCH 140 217
ATOM    217  CB  SER A   8       6.441   4.760   0.000  0.00  0.00    +0.000 C 
ATOM    218  OG  SER A   8       7.139   5.172   0.000  0.00  0.00    +0.000 OA
ENDBRANCH 140 217
ENDBRANCH 137 140
ENDBRANCH 136 138
BRANCH 136 219
ATOM    219  C   UNK A   9       8.567   2.697   0.000  0.00  0.00    +0.000 C 
ATOM    220  O   UNK A   9       9.297   2.284   0.000  0.00  0.00    +0.000 OA
ENDBRANCH 136 219
ENDBRANCH 134 136
ENDBRANCH 132 135
BRANCH 132 221
ATOM    221  C   UNK A   9      10.757   4.760   0.000  0.00  0.00    +0.000 C 
BRANCH 221 222
ATOM    222  C   UNK A   9      11.455   5.172   0.000  0.00  0.00    +0.000 A 
ATOM    223  C   UNK A   9      12.184   4.760   0.000  0.00  0.00    +0.000 A 
ATOM    224  C   UNK A   9      12.883   5.172   0.000  0.00  0.00    +0.000 A 
ATOM    225  C   UNK A   9      12.883   6.029   0.000  0.00  0.00    +0.000 A 
ATOM    226  C   UNK A   9      12.153   6.441   0.000  0.00  0.00    +0.000 A 
ATOM    227  C   UNK A   9      11.455   5.997   0.000  0.00  0.00    +0.000 A 
ATOM    228  O   UNK A   9      13.612   6.441   0.000  0.00  0.00    +0.000 OA
ENDBRANCH 221 222
ENDBRANCH 132 221
ENDBRANCH 129 132
ENDBRANCH 128 130
BRANCH 128 229
ATOM    229  C   UNK A   9      13.612   3.966   0.000  0.00  0.00    +0.000 C 
BRANCH 229 230
ATOM    230  C   UNK A   9      14.342   3.585   0.000  0.00  0.00    +0.000 C 
ATOM    231  C   UNK A   9      15.040   4.030   0.000  0.00  0.00    +0.000 C 
ATOM    232  C   UNK A   9      14.374   2.760   0.000  0.00  0.00    +0.000 C 
ENDBRANCH 229 230
ENDBRANCH 128 229
ENDBRANCH 126 128
ENDBRANCH 124 125
BRANCH 124 233
ATOM    233  C   UNK A   9      14.405   1.079   0.000  0.00  0.00    +0.000 C 
BRANCH 233 234
ATOM    234  C   UNK A   9      14.437   0.254   0.000  0.00  0.00    +0.000 C 
BRANCH 234 235
ATOM    235  C   UNK A   9      15.167  -0.127   0.000  0.00  0.00    +0.000 C 
ATOM    236  O   UNK A   9      15.199  -0.952   0.000  0.00  0.00    +0.000 OA
ATOM    237  O   UNK A   9      15.865   0.317   0.000  0.00  0.00    +0.000 OA
ENDBRANCH 234 235
ENDBRANCH 233 234
ENDBRANCH 124 233
ENDBRANCH 121 124
ENDBRANCH 120 123
ENDBRANCH   2 120
TORSDOF 108
