REMARK  Name = 
REMARK  13 active torsions:
REMARK  status: ('A' for Active; 'I' for Inactive)
REMARK    1  A    between atoms: C_2  and  O_3
REMARK    2  A    between atoms: O_3  and  C_4
REMARK    3  A    between atoms: C_7  and  C_10
REMARK    4  A    between atoms: C_13  and  C_16
REMARK    5  A    between atoms: C_16  and  N_17
REMARK    6  A    between atoms: C_21  and  O_38
REMARK    7  A    between atoms: C_24  and  S_33
REMARK    8  A    between atoms: C_25  and  C_26
REMARK    9  A    between atoms: C_26  and  C_27
REMARK   10  A    between atoms: C_27  and  C_30
REMARK   11  A    between atoms: S_33  and  C_34
REMARK   12  A    between atoms: O_38  and  C_39
REMARK   13  A    between atoms: C_39  and  C_40
REMARK                            x       y       z     vdW  Elec       q    Type
REMARK                         _______ _______ _______ _____ _____    ______ ____
ROOT
ATOM      1  N   UNL     1       1.139  -0.030   0.000  0.00  0.00    +0.000 N 
ATOM      2  C   UNL     1       1.923  -0.285   0.000  0.00  0.00    +0.000 A 
ATOM      3  C   UNL     1       2.638   0.127   0.000  0.00  0.00    +0.000 A 
ATOM      4  C   UNL     1       3.352  -0.285   0.000  0.00  0.00    +0.000 A 
ATOM      5  C   UNL     1       3.352  -1.110   0.000  0.00  0.00    +0.000 A 
ATOM      6  C   UNL     1       2.638  -1.523   0.000  0.00  0.00    +0.000 A 
ATOM      7  C   UNL     1       1.923  -1.110   0.000  0.00  0.00    +0.000 A 
ATOM      8  C   UNL     1       1.139  -1.365   0.000  0.00  0.00    +0.000 A 
ATOM      9  C   UNL     1       0.654  -0.698   0.000  0.00  0.00    +0.000 A 
ENDROOT
BRANCH   1  10
ATOM     10  C   UNL     1       0.884   0.754   0.000  0.00  0.00    +0.000 C 
BRANCH  10  14
ATOM     11  C   UNL     1       2.540   2.593   0.000  0.00  0.00    +0.000 A 
ATOM     12  C   UNL     1       2.795   1.809   0.000  0.00  0.00    +0.000 A 
ATOM     13  C   UNL     1       2.243   1.196   0.000  0.00  0.00    +0.000 A 
ATOM     14  C   UNL     1       1.436   1.367   0.000  0.00  0.00    +0.000 A 
ATOM     15  C   UNL     1       1.181   2.152   0.000  0.00  0.00    +0.000 A 
ATOM     16  C   UNL     1       1.733   2.765   0.000  0.00  0.00    +0.000 A 
BRANCH  11  20
ATOM     17  C   UNL     1       4.196   4.433   0.000  0.00  0.00    +0.000 A 
ATOM     18  C   UNL     1       4.451   3.648   0.000  0.00  0.00    +0.000 A 
ATOM     19  C   UNL     1       3.899   3.035   0.000  0.00  0.00    +0.000 A 
ATOM     20  C   UNL     1       3.092   3.207   0.000  0.00  0.00    +0.000 A 
ATOM     21  C   UNL     1       2.837   3.991   0.000  0.00  0.00    +0.000 A 
ATOM     22  N   UNL     1       3.389   4.604   0.000  0.00  0.00    +0.000 NA
BRANCH  17  23
ATOM     23  O   UNL     1       4.748   5.046   0.000  0.00  0.00    +0.000 OA
BRANCH  23  25
ATOM     24  C   UNL     1       5.045   6.444   0.000  0.00  0.00    +0.000 C 
ATOM     25  C   UNL     1       4.493   5.830   0.000  0.00  0.00    +0.000 C 
ENDBRANCH  23  25
ENDBRANCH  17  23
ENDBRANCH  11  20
ENDBRANCH  10  14
ENDBRANCH   1  10
BRANCH   8  26
ATOM     26  S   UNL     1       0.884  -2.150   0.000  0.00  0.00    +0.000 S 
BRANCH  26  27
ATOM     27  C   UNL     1       0.077  -2.321   0.000  0.00  0.00    +0.000 C 
ATOM     28  C   UNL     1      -0.095  -1.515   0.000  0.00  0.00    +0.000 C 
ATOM     29  C   UNL     1       0.248  -3.128   0.000  0.00  0.00    +0.000 C 
ATOM     30  C   UNL     1      -0.730  -2.493   0.000  0.00  0.00    +0.000 C 
ENDBRANCH  26  27
ENDBRANCH   8  26
BRANCH   9  31
ATOM     31  C   UNL     1      -0.171  -0.698   0.000  0.00  0.00    +0.000 C 
BRANCH  31  32
ATOM     32  C   UNL     1      -0.584   0.017   0.000  0.00  0.00    +0.000 C 
ATOM     33  C   UNL     1       0.131   0.429   0.000  0.00  0.00    +0.000 C 
ATOM     34  C   UNL     1      -0.996   0.731   0.000  0.00  0.00    +0.000 C 
BRANCH  32  35
ATOM     35  C   UNL     1      -1.298  -0.396   0.000  0.00  0.00    +0.000 C 
ATOM     36  O   UNL     1      -1.298  -1.221   0.000  0.00  0.00    +0.000 OA
ATOM     37  O   UNL     1      -2.013   0.017   0.000  0.00  0.00    +0.000 OA
ENDBRANCH  32  35
ENDBRANCH  31  32
ENDBRANCH   9  31
BRANCH   5  38
ATOM     38  O   UNL     1       4.067  -1.523   0.000  0.00  0.00    +0.000 OA
BRANCH  38  39
ATOM     39  C   UNL     1       4.781  -1.110   0.000  0.00  0.00    +0.000 C 
BRANCH  39  40
ATOM     40  C   UNL     1       4.781  -0.285   0.000  0.00  0.00    +0.000 A 
ATOM     41  C   UNL     1       4.067   0.127   0.000  0.00  0.00    +0.000 A 
ATOM     42  C   UNL     1       4.067   0.952   0.000  0.00  0.00    +0.000 A 
ATOM     43  C   UNL     1       4.781   1.365   0.000  0.00  0.00    +0.000 A 
ATOM     44  C   UNL     1       5.496   0.952   0.000  0.00  0.00    +0.000 A 
ATOM     45  N   UNL     1       5.496   0.127   0.000  0.00  0.00    +0.000 NA
ATOM     46  C   UNL     1       4.781   2.190   0.000  0.00  0.00    +0.000 C 
ENDBRANCH  39  40
ENDBRANCH  38  39
ENDBRANCH   5  38
TORSDOF 13
