REMARK  Name = 
REMARK  2 active torsions:
REMARK  status: ('A' for Active; 'I' for Inactive)
REMARK    1  A    between atoms: C_6  and  C_8
REMARK    2  A    between atoms: C_10  and  C_15
REMARK                            x       y       z     vdW  Elec       q    Type
REMARK                         _______ _______ _______ _____ _____    ______ ____
ROOT
ATOM      1  C   UNL     1      -2.858  -4.125   0.000  0.00  0.00    +0.000 A 
ATOM      2  N   UNL     1      -2.858  -4.950   0.000  0.00  0.00    +0.000 NA
ATOM      3  C   UNL     1      -3.572  -5.362   0.000  0.00  0.00    +0.000 A 
ATOM      4  C   UNL     1      -4.287  -4.950   0.000  0.00  0.00    +0.000 A 
ATOM      5  O   UNL     1      -5.001  -5.362   0.000  0.00  0.00    +0.000 OA
ATOM      6  C   UNL     1      -4.287  -4.125   0.000  0.00  0.00    +0.000 A 
ATOM      7  C   UNL     1      -3.572  -3.712   0.000  0.00  0.00    +0.000 A 
ENDROOT
BRANCH   1  13
ATOM      8  N   UNL     1      -1.429  -1.650   0.000  0.00  0.00    +0.000 NA
ATOM      9  C   UNL     1      -1.429  -2.475   0.000  0.00  0.00    +0.000 A 
ATOM     10  N   UNL     1      -0.715  -2.888   0.000  0.00  0.00    +0.000 NA
ATOM     11  C   UNL     1      -0.715  -3.712   0.000  0.00  0.00    +0.000 A 
ATOM     12  C   UNL     1      -1.429  -4.125   0.000  0.00  0.00    +0.000 A 
ATOM     13  C   UNL     1      -2.143  -3.712   0.000  0.00  0.00    +0.000 A 
ATOM     14  N   UNL     1      -2.143  -2.888   0.000  0.00  0.00    +0.000 NA
ENDBRANCH   1  13
BRANCH   3  15
ATOM     15  C   UNL     1      -3.572  -6.188   0.000  0.00  0.00    +0.000 A 
ATOM     16  N   UNL     1      -2.858  -6.600   0.000  0.00  0.00    +0.000 NA
ATOM     17  C   UNL     1      -2.858  -7.425   0.000  0.00  0.00    +0.000 A 
ATOM     18  N   UNL     1      -2.143  -7.838   0.000  0.00  0.00    +0.000 NA
ATOM     19  N   UNL     1      -3.572  -7.838   0.000  0.00  0.00    +0.000 NA
ATOM     20  C   UNL     1      -4.287  -7.425   0.000  0.00  0.00    +0.000 A 
ATOM     21  C   UNL     1      -4.287  -6.600   0.000  0.00  0.00    +0.000 A 
ENDBRANCH   3  15
TORSDOF 2
