REMARK  Name = 
REMARK  14 active torsions:
REMARK  status: ('A' for Active; 'I' for Inactive)
REMARK    1  A    between atoms: C_2  and  C_4
REMARK    2  A    between atoms: C_4  and  C_5
REMARK    3  A    between atoms: C_4  and  N_64
REMARK    4  A    between atoms: C_11  and  C_12
REMARK    5  A    between atoms: C_14  and  C_17
REMARK    6  A    between atoms: C_26  and  C_56
REMARK    7  A    between atoms: C_32  and  C_34
REMARK    8  A    between atoms: C_37  and  C_39
REMARK    9  A    between atoms: C_44  and  C_46
REMARK   10  A    between atoms: C_46  and  C_47
REMARK   11  A    between atoms: C_46  and  N_50
REMARK   12  A    between atoms: C_51  and  O_53
REMARK   13  A    between atoms: C_59  and  C_61
REMARK   14  A    between atoms: C_65  and  O_67
REMARK                            x       y       z     vdW  Elec       q    Type
REMARK                         _______ _______ _______ _____ _____    ______ ____
ROOT
ATOM      1  C   UNL     1       5.077   0.034   0.000  0.00  0.00    +0.000 A 
ATOM      2  C   UNL     1       5.038   0.859   0.000  0.00  0.00    +0.000 A 
ATOM      3  C   UNL     1       4.304   1.237   0.000  0.00  0.00    +0.000 A 
ATOM      4  C   UNL     1       3.610   0.791   0.000  0.00  0.00    +0.000 A 
ATOM      5  C   UNL     1       3.650  -0.034   0.000  0.00  0.00    +0.000 A 
ATOM      6  C   UNL     1       4.383  -0.412   0.000  0.00  0.00    +0.000 A 
ATOM      7  C   UNL     1       2.878  -0.325   0.000  0.00  0.00    +0.000 A 
ATOM      8  C   UNL     1       2.362   0.318   0.000  0.00  0.00    +0.000 A 
ATOM      9  N   UNL     1       2.814   1.008   0.000  0.00  0.00    +0.000 N 
ATOM     10  C   UNL     1       2.443   1.745   0.000  0.00  0.00    +0.000 C 
ATOM     11  O   UNL     1       1.620   1.792   0.000  0.00  0.00    +0.000 OA
ATOM     12  C   UNL     1       1.167   1.102   0.000  0.00  0.00    +0.000 A 
ATOM     13  C   UNL     1       1.538   0.365   0.000  0.00  0.00    +0.000 A 
ATOM     14  C   UNL     1       1.085  -0.324   0.000  0.00  0.00    +0.000 A 
ATOM     15  C   UNL     1       0.262  -0.277   0.000  0.00  0.00    +0.000 A 
ATOM     16  C   UNL     1      -0.109   0.460   0.000  0.00  0.00    +0.000 A 
ATOM     17  C   UNL     1       0.344   1.149   0.000  0.00  0.00    +0.000 A 
ATOM     18  F   UNL     1       1.456  -1.061   0.000  0.00  0.00    +0.000 F 
ENDROOT
BRANCH   1  21
ATOM     19  C   UNL     1       6.749  -1.292   0.000  0.00  0.00    +0.000 A 
ATOM     20  N   UNL     1       5.935  -1.159   0.000  0.00  0.00    +0.000 NA
ATOM     21  C   UNL     1       5.810  -0.344   0.000  0.00  0.00    +0.000 A 
ATOM     22  C   UNL     1       6.547   0.027   0.000  0.00  0.00    +0.000 A 
ATOM     23  N   UNL     1       7.128  -0.559   0.000  0.00  0.00    +0.000 NA
BRANCH  19  30
ATOM     24  C   UNL     1       8.521  -1.581   0.000  0.00  0.00    +0.000 C 
ATOM     25  O   UNL     1       8.311  -0.783   0.000  0.00  0.00    +0.000 OA
ATOM     26  N   UNL     1       7.935  -2.162   0.000  0.00  0.00    +0.000 N 
ATOM     27  C   UNL     1       8.060  -2.977   0.000  0.00  0.00    +0.000 C 
ATOM     28  C   UNL     1       7.323  -3.348   0.000  0.00  0.00    +0.000 C 
ATOM     29  C   UNL     1       6.742  -2.762   0.000  0.00  0.00    +0.000 C 
ATOM     30  C   UNL     1       7.120  -2.029   0.000  0.00  0.00    +0.000 C 
BRANCH  24  31
ATOM     31  C   UNL     1       9.317  -1.799   0.000  0.00  0.00    +0.000 C 
BRANCH  31  32
ATOM     32  N   UNL     1       9.526  -2.597   0.000  0.00  0.00    +0.000 NA
ATOM     33  C   UNL     1      10.322  -2.814   0.000  0.00  0.00    +0.000 C 
ATOM     34  O   UNL     1      10.908  -2.233   0.000  0.00  0.00    +0.000 OA
BRANCH  33  35
ATOM     35  O   UNL     1      10.532  -3.612   0.000  0.00  0.00    +0.000 OA
ATOM     36  C   UNL     1       9.946  -4.192   0.000  0.00  0.00    +0.000 C 
ENDBRANCH  33  35
ENDBRANCH  31  32
BRANCH  31  38
ATOM     37  C   UNL     1      10.699  -1.436   0.000  0.00  0.00    +0.000 C 
ATOM     38  C   UNL     1       9.903  -1.218   0.000  0.00  0.00    +0.000 C 
ATOM     39  C   UNL     1       9.693  -0.420   0.000  0.00  0.00    +0.000 C 
ENDBRANCH  31  38
ENDBRANCH  24  31
ENDBRANCH  19  30
ENDBRANCH   1  21
BRANCH  16  40
ATOM     40  C   UNL     1      -0.933   0.507   0.000  0.00  0.00    +0.000 A 
ATOM     41  C   UNL     1      -1.455  -0.132   0.000  0.00  0.00    +0.000 A 
ATOM     42  N   UNL     1      -2.224   0.168   0.000  0.00  0.00    +0.000 NA
ATOM     43  C   UNL     1      -2.177   0.991   0.000  0.00  0.00    +0.000 A 
ATOM     44  N   UNL     1      -1.379   1.201   0.000  0.00  0.00    +0.000 NA
BRANCH  43  45
ATOM     45  C   UNL     1      -2.815   1.513   0.000  0.00  0.00    +0.000 C 
ATOM     46  C   UNL     1      -3.613   1.304   0.000  0.00  0.00    +0.000 C 
ATOM     47  C   UNL     1      -4.059   1.998   0.000  0.00  0.00    +0.000 C 
ATOM     48  C   UNL     1      -3.537   2.636   0.000  0.00  0.00    +0.000 C 
ATOM     49  N   UNL     1      -2.768   2.337   0.000  0.00  0.00    +0.000 N 
ATOM     50  C   UNL     1      -2.074   2.783   0.000  0.00  0.00    +0.000 C 
ATOM     51  O   UNL     1      -1.341   2.405   0.000  0.00  0.00    +0.000 OA
BRANCH  50  52
ATOM     52  C   UNL     1      -2.113   3.607   0.000  0.00  0.00    +0.000 C 
BRANCH  52  53
ATOM     53  C   UNL     1      -2.847   3.985   0.000  0.00  0.00    +0.000 C 
ATOM     54  C   UNL     1      -3.541   3.539   0.000  0.00  0.00    +0.000 C 
ATOM     55  C   UNL     1      -2.886   4.809   0.000  0.00  0.00    +0.000 C 
ENDBRANCH  52  53
BRANCH  52  56
ATOM     56  N   UNL     1      -1.419   4.053   0.000  0.00  0.00    +0.000 NA
ATOM     57  C   UNL     1      -1.458   4.877   0.000  0.00  0.00    +0.000 C 
ATOM     58  O   UNL     1      -2.192   5.255   0.000  0.00  0.00    +0.000 OA
BRANCH  57  59
ATOM     59  O   UNL     1      -0.764   5.323   0.000  0.00  0.00    +0.000 OA
ATOM     60  C   UNL     1      -0.031   4.945   0.000  0.00  0.00    +0.000 C 
ENDBRANCH  57  59
ENDBRANCH  52  56
ENDBRANCH  50  52
ENDBRANCH  43  45
ENDBRANCH  16  40
BRANCH  10  61
ATOM     61  C   UNL     1       2.896   2.434   0.000  0.00  0.00    +0.000 A 
ATOM     62  C   UNL     1       2.604   3.206   0.000  0.00  0.00    +0.000 A 
ATOM     63  N   UNL     1       3.248   3.722   0.000  0.00  0.00    +0.000 NA
ATOM     64  C   UNL     1       3.938   3.270   0.000  0.00  0.00    +0.000 A 
ATOM     65  S   UNL     1       3.720   2.474   0.000  0.00  0.00    +0.000 S 
BRANCH  64  66
ATOM     66  C   UNL     1       4.709   3.562   0.000  0.00  0.00    +0.000 C 
ATOM     67  C   UNL     1       5.231   4.200   0.000  0.00  0.00    +0.000 C 
ATOM     68  C   UNL     1       5.523   3.429   0.000  0.00  0.00    +0.000 C 
ENDBRANCH  64  66
ENDBRANCH  10  61
TORSDOF 14
