REMARK  Name = 
REMARK  0 active torsions:
REMARK  status: ('A' for Active; 'I' for Inactive)
REMARK                            x       y       z     vdW  Elec       q    Type
REMARK                         _______ _______ _______ _____ _____    ______ ____
ROOT
ATOM      1  C   UNL     1       2.674   0.063   0.000  0.00  0.00    +0.000 C 
ATOM      2  C   UNL     1       2.979  -0.704   0.000  0.00  0.00    +0.000 C 
ATOM      3  C   UNL     1       3.555  -0.113   0.000  0.00  0.00    +0.000 C 
ATOM      4  C   UNL     1       4.295  -0.479   0.000  0.00  0.00    +0.000 C 
ATOM      5  C   UNL     1       4.176  -1.295   0.000  0.00  0.00    +0.000 C 
ATOM      6  N   UNL     1       3.362  -1.434   0.000  0.00  0.00    +0.000 NA
ATOM      7  C   UNL     1       2.921  -2.131   0.000  0.00  0.00    +0.000 C 
ATOM      8  C   UNL     1       2.053  -2.120   0.000  0.00  0.00    +0.000 C 
ATOM      9  N   UNL     1       1.676  -2.854   0.000  0.00  0.00    +0.000 NA
ATOM     10  N   UNL     1       0.868  -3.017   0.000  0.00  0.00    +0.000 NA
ATOM     11  C   UNL     1       0.236  -2.487   0.000  0.00  0.00    +0.000 C 
ATOM     12  O   UNL     1      -0.516  -2.826   0.000  0.00  0.00    +0.000 OA
ATOM     13  C   UNL     1       0.257  -1.662   0.000  0.00  0.00    +0.000 A 
ATOM     14  C   UNL     1       0.914  -1.164   0.000  0.00  0.00    +0.000 A 
ATOM     15  C   UNL     1       0.861  -0.341   0.000  0.00  0.00    +0.000 A 
ATOM     16  N   UNL     1       1.628  -0.036   0.000  0.00  0.00    +0.000 NA
ATOM     17  C   UNL     1       2.155  -0.670   0.000  0.00  0.00    +0.000 A 
ATOM     18  C   UNL     1       1.714  -1.368   0.000  0.00  0.00    +0.000 A 
ATOM     19  C   UNL     1       0.122   0.025   0.000  0.00  0.00    +0.000 A 
ATOM     20  C   UNL     1      -0.565  -0.433   0.000  0.00  0.00    +0.000 A 
ATOM     21  F   UNL     1      -1.304  -0.067   0.000  0.00  0.00    +0.000 F 
ATOM     22  C   UNL     1      -0.512  -1.256   0.000  0.00  0.00    +0.000 A 
ENDROOT
TORSDOF 0
