REMARK  Name = 
REMARK  11 active torsions:
REMARK  status: ('A' for Active; 'I' for Inactive)
REMARK    1  A    between atoms: C_7  and  C_8
REMARK    2  A    between atoms: C_8  and  N_9
REMARK    3  A    between atoms: N_9  and  C_10
REMARK    4  A    between atoms: N_9  and  C_13
REMARK    5  A    between atoms: C_10  and  C_11
REMARK    6  A    between atoms: C_16  and  C_20
REMARK    7  A    between atoms: N_22  and  CA_23
REMARK    8  A    between atoms: CA_23  and  C_24
REMARK    9  A    between atoms: CA_23  and  C_31
REMARK   10  A    between atoms: C_24  and  C_25
REMARK   11  A    between atoms: C_25  and  C_26
REMARK                            x       y       z     vdW  Elec       q    Type
REMARK                         _______ _______ _______ _____ _____    ______ ____
ROOT
ATOM      1  C   UNL     1      -6.430  -5.362   0.000  0.00  0.00    +0.000 A 
ATOM      2  C   UNL     1      -6.430  -4.537   0.000  0.00  0.00    +0.000 A 
ATOM      3  C   UNL     1      -5.716  -4.125   0.000  0.00  0.00    +0.000 A 
ATOM      4  C   UNL     1      -5.001  -4.537   0.000  0.00  0.00    +0.000 A 
ATOM      5  C   UNL     1      -5.001  -5.362   0.000  0.00  0.00    +0.000 A 
ATOM      6  C   UNL     1      -5.716  -5.775   0.000  0.00  0.00    +0.000 A 
ATOM      7  F   UNL     1      -4.287  -5.775   0.000  0.00  0.00    +0.000 F 
ENDROOT
BRANCH   4   8
ATOM      8  C   UNL     1      -4.287  -4.125   0.000  0.00  0.00    +0.000 C 
ATOM      9  O   UNL     1      -4.287  -3.300   0.000  0.00  0.00    +0.000 OA
ATOM     10  N   UNL     1      -3.572  -4.537   0.000  0.00  0.00    +0.000 NA
BRANCH  10  11
ATOM     11  CA  UNL     1      -2.858  -4.125   0.000  0.00  0.00    +0.000 C 
BRANCH  11  12
ATOM     12  C   UNL     1      -2.858  -3.300   0.000  0.00  0.00    +0.000 C 
ATOM     13  O   UNL     1      -2.143  -2.888   0.000  0.00  0.00    +0.000 OA
ATOM     14  OXT UNL     1      -3.572  -2.888   0.000  0.00  0.00    +0.000 OA
ENDBRANCH  11  12
BRANCH  11  15
ATOM     15  C   UNL     1      -2.143  -4.537   0.000  0.00  0.00    +0.000 C 
BRANCH  15  16
ATOM     16  C   UNL     1      -1.429  -4.125   0.000  0.00  0.00    +0.000 C 
BRANCH  16  17
ATOM     17  C   UNL     1      -0.715  -4.537   0.000  0.00  0.00    +0.000 A 
ATOM     18  N   UNL     1       0.039  -4.202   0.000  0.00  0.00    +0.000 NA
ATOM     19  N   UNL     1       0.591  -4.815   0.000  0.00  0.00    +0.000 NA
ATOM     20  N   UNL     1       0.179  -5.529   0.000  0.00  0.00    +0.000 NA
ATOM     21  N   UNL     1      -0.628  -5.358   0.000  0.00  0.00    +0.000 NA
ENDBRANCH  16  17
ENDBRANCH  15  16
ENDBRANCH  11  15
ENDBRANCH  10  11
ENDBRANCH   4   8
BRANCH   1  22
ATOM     22  N   UNL     1      -7.145  -5.775   0.000  0.00  0.00    +0.000 N 
BRANCH  22  23
ATOM     23  C   UNL     1      -7.859  -5.362   0.000  0.00  0.00    +0.000 C 
BRANCH  23  24
ATOM     24  C   UNL     1      -7.859  -4.537   0.000  0.00  0.00    +0.000 C 
ATOM     25  C   UNL     1      -7.859  -3.712   0.000  0.00  0.00    +0.000 C 
ENDBRANCH  23  24
ENDBRANCH  22  23
BRANCH  22  26
ATOM     26  C   UNL     1      -7.145  -6.600   0.000  0.00  0.00    +0.000 C 
BRANCH  26  33
ATOM     27  C   UNL     1      -8.574  -5.775   0.000  0.00  0.00    +0.000 C 
ATOM     28  C   UNL     1      -8.574  -6.600   0.000  0.00  0.00    +0.000 A 
ATOM     29  C   UNL     1      -9.288  -7.013   0.000  0.00  0.00    +0.000 A 
ATOM     30  C   UNL     1      -9.288  -7.838   0.000  0.00  0.00    +0.000 A 
ATOM     31  C   UNL     1      -8.574  -8.250   0.000  0.00  0.00    +0.000 A 
ATOM     32  C   UNL     1      -7.859  -7.838   0.000  0.00  0.00    +0.000 A 
ATOM     33  C   UNL     1      -7.859  -7.013   0.000  0.00  0.00    +0.000 A 
ATOM     34  C   UNL     1      -8.574  -9.075   0.000  0.00  0.00    +0.000 A 
ATOM     35  O   UNL     1      -7.859  -9.488   0.000  0.00  0.00    +0.000 OA
ATOM     36  N   UNL     1      -9.288  -9.488   0.000  0.00  0.00    +0.000 NA
ATOM     37  C   UNL     1     -10.003  -9.075   0.000  0.00  0.00    +0.000 A 
ATOM     38  N   UNL     1     -10.003  -8.250   0.000  0.00  0.00    +0.000 NA
ATOM     39  C   UNL     1     -10.717  -9.488   0.000  0.00  0.00    +0.000 C 
ENDBRANCH  26  33
ENDBRANCH  22  26
ENDBRANCH   1  22
TORSDOF 11
