REMARK  Name = 
REMARK  5 active torsions:
REMARK  status: ('A' for Active; 'I' for Inactive)
REMARK    1  A    between atoms: C_4  and  C_11
REMARK    2  A    between atoms: C_11  and  N_12
REMARK    3  A    between atoms: N_12  and  C_13
REMARK    4  A    between atoms: C_13  and  C_14
REMARK    5  A    between atoms: C_23  and  C_26
REMARK                            x       y       z     vdW  Elec       q    Type
REMARK                         _______ _______ _______ _____ _____    ______ ____
ROOT
ATOM      1  C   UNL     1      -2.267  -3.278   0.000  0.00  0.00    +0.000 C 
ATOM      2  C   UNL     1      -2.522  -4.062   0.000  0.00  0.00    +0.000 C 
ATOM      3  C   UNL     1      -3.329  -4.234   0.000  0.00  0.00    +0.000 C 
ATOM      4  N   UNL     1      -3.881  -3.621   0.000  0.00  0.00    +0.000 N 
ATOM      5  C   UNL     1      -3.626  -2.836   0.000  0.00  0.00    +0.000 C 
ATOM      6  C   UNL     1      -2.819  -2.665   0.000  0.00  0.00    +0.000 C 
ATOM      7  C   UNL     1      -4.688  -3.792   0.000  0.00  0.00    +0.000 A 
ATOM      8  N   UNL     1      -4.943  -4.577   0.000  0.00  0.00    +0.000 NA
ATOM      9  C   UNL     1      -5.750  -4.748   0.000  0.00  0.00    +0.000 A 
ATOM     10  C   UNL     1      -6.302  -4.135   0.000  0.00  0.00    +0.000 A 
ATOM     11  C   UNL     1      -6.047  -3.351   0.000  0.00  0.00    +0.000 A 
ATOM     12  N   UNL     1      -5.240  -3.179   0.000  0.00  0.00    +0.000 NA
ENDROOT
BRANCH  10  13
ATOM     13  C   UNL     1      -7.109  -4.307   0.000  0.00  0.00    +0.000 C 
ATOM     14  O   UNL     1      -7.364  -5.091   0.000  0.00  0.00    +0.000 OA
ATOM     15  N   UNL     1      -7.661  -3.694   0.000  0.00  0.00    +0.000 NA
ATOM     16  O   UNL     1      -8.468  -3.865   0.000  0.00  0.00    +0.000 OA
ENDBRANCH  10  13
BRANCH   1  17
ATOM     17  C   UNL     1      -1.460  -3.106   0.000  0.00  0.00    +0.000 C 
BRANCH  17  18
ATOM     18  N   UNL     1      -1.205  -2.321   0.000  0.00  0.00    +0.000 NA
BRANCH  18  19
ATOM     19  C   UNL     1      -0.398  -2.150   0.000  0.00  0.00    +0.000 C 
BRANCH  19  23
ATOM     20  C   UNL     1      -0.398   0.754   0.000  0.00  0.00    +0.000 C 
ATOM     21  N   UNL     1      -0.143  -0.030   0.000  0.00  0.00    +0.000 N 
ATOM     22  C   UNL     1      -0.628  -0.698   0.000  0.00  0.00    +0.000 A 
ATOM     23  C   UNL     1      -0.143  -1.365   0.000  0.00  0.00    +0.000 A 
ATOM     24  C   UNL     1       0.641  -1.110   0.000  0.00  0.00    +0.000 A 
ATOM     25  C   UNL     1       0.641  -0.285   0.000  0.00  0.00    +0.000 A 
ATOM     26  C   UNL     1       1.356   0.127   0.000  0.00  0.00    +0.000 A 
ATOM     27  C   UNL     1       2.070  -0.285   0.000  0.00  0.00    +0.000 A 
ATOM     28  C   UNL     1       2.070  -1.110   0.000  0.00  0.00    +0.000 A 
ATOM     29  C   UNL     1       1.356  -1.523   0.000  0.00  0.00    +0.000 A 
ENDBRANCH  19  23
ENDBRANCH  18  19
ENDBRANCH  17  18
ENDBRANCH   1  17
TORSDOF 5
