REMARK  Name = 
REMARK  3 active torsions:
REMARK  status: ('A' for Active; 'I' for Inactive)
REMARK    1  A    between atoms: N_2  and  C_3
REMARK    2  A    between atoms: C_3  and  C_4
REMARK    3  A    between atoms: C_7  and  C_10
REMARK                            x       y       z     vdW  Elec       q    Type
REMARK                         _______ _______ _______ _____ _____    ______ ____
ROOT
ATOM      1  C   UNL     1       1.206   3.311   0.000  0.00  0.00    +0.000 A 
ATOM      2  C   UNL     1       1.516   2.546   0.000  0.00  0.00    +0.000 A 
ATOM      3  C   UNL     1       0.885   2.015   0.000  0.00  0.00    +0.000 A 
ATOM      4  C   UNL     1       0.908   1.190   0.000  0.00  0.00    +0.000 A 
ATOM      5  C   UNL     1       0.131   0.801   0.000  0.00  0.00    +0.000 A 
ATOM      6  C   UNL     1      -0.570   1.237   0.000  0.00  0.00    +0.000 A 
ATOM      7  C   UNL     1      -0.543   2.061   0.000  0.00  0.00    +0.000 A 
ATOM      8  C   UNL     1       0.185   2.450   0.000  0.00  0.00    +0.000 A 
ATOM      9  N   UNL     1       0.383   3.251   0.000  0.00  0.00    +0.000 NA
ATOM     10  F   UNL     1      -1.297   0.848   0.000  0.00  0.00    +0.000 F 
ATOM     11  C   UNL     1       1.567   0.693   0.000  0.00  0.00    +0.000 C 
ATOM     12  O   UNL     1       1.405  -0.116   0.000  0.00  0.00    +0.000 OA
ATOM     13  N   UNL     1       2.366   0.899   0.000  0.00  0.00    +0.000 NA
ATOM     14  C   UNL     1       2.703   1.652   0.000  0.00  0.00    +0.000 C 
ATOM     15  C   UNL     1       2.325   2.385   0.000  0.00  0.00    +0.000 C 
ENDROOT
BRANCH   1  19
ATOM     16  C   UNL     1       2.512   5.413   0.000  0.00  0.00    +0.000 A 
ATOM     17  C   UNL     1       2.901   4.685   0.000  0.00  0.00    +0.000 A 
ATOM     18  C   UNL     1       2.466   3.984   0.000  0.00  0.00    +0.000 A 
ATOM     19  C   UNL     1       1.641   4.011   0.000  0.00  0.00    +0.000 A 
ATOM     20  C   UNL     1       1.252   4.739   0.000  0.00  0.00    +0.000 A 
ATOM     21  C   UNL     1       1.688   5.439   0.000  0.00  0.00    +0.000 A 
BRANCH  16  22
ATOM     22  C   UNL     1       2.948   6.113   0.000  0.00  0.00    +0.000 C 
BRANCH  22  24
ATOM     23  C   UNL     1       2.994   7.542   0.000  0.00  0.00    +0.000 C 
ATOM     24  N   UNL     1       2.559   6.841   0.000  0.00  0.00    +0.000 NA
ENDBRANCH  22  24
ENDBRANCH  16  22
ENDBRANCH   1  19
TORSDOF 3
