REMARK  Name = 
REMARK  7 active torsions:
REMARK  status: ('A' for Active; 'I' for Inactive)
REMARK    1  A    between atoms: P_1  and  O_2
REMARK    2  A    between atoms: P_1  and  O_5
REMARK    3  A    between atoms: O_2  and  C_12
REMARK    4  A    between atoms: O_5  and  C_6
REMARK    5  A    between atoms: C_6  and  C_7
REMARK    6  A    between atoms: C_7  and  C_9
REMARK    7  A    between atoms: C_12  and  C_13
REMARK                            x       y       z     vdW  Elec       q    Type
REMARK                         _______ _______ _______ _____ _____    ______ ____
ROOT
ATOM      1  P   UNL     1      -0.356  -0.888   0.000  0.00  0.00    +0.000 P 
ATOM      2  O   UNL     1      -0.356  -0.063   0.000  0.00  0.00    +0.000 OA
ATOM      3  O   UNL     1      -0.356  -1.713   0.000  0.00  0.00    +0.000 OA
ENDROOT
BRANCH   1   4
ATOM      4  O   UNL     1      -1.169  -0.888   0.000  0.00  0.00    +0.000 OA
BRANCH   4   5
ATOM      5  C   UNL     1      -1.861  -0.424   0.000  0.00  0.00    +0.000 C 
BRANCH   5   6
ATOM      6  C   UNL     1      -1.861   0.440   0.000  0.00  0.00    +0.000 C 
ATOM      7  O   UNL     1      -1.044   0.440   0.000  0.00  0.00    +0.000 OA
BRANCH   6   8
ATOM      8  C   UNL     1      -1.861   1.249   0.000  0.00  0.00    +0.000 C 
ATOM      9  O   UNL     1      -1.193   1.713   0.000  0.00  0.00    +0.000 OA
ENDBRANCH   6   8
ENDBRANCH   5   6
ENDBRANCH   4   5
ENDBRANCH   1   4
BRANCH   1  10
ATOM     10  O   UNL     1       0.469  -0.888   0.000  0.00  0.00    +0.000 OA
BRANCH  10  11
ATOM     11  C   UNL     1       1.194  -1.281   0.000  0.00  0.00    +0.000 C 
BRANCH  11  12
ATOM     12  C   UNL     1       1.897  -0.849   0.000  0.00  0.00    +0.000 C 
ATOM     13  N   UNL     1       2.623  -1.242   0.000  0.00  0.00    +0.000 NA
ENDBRANCH  11  12
ENDBRANCH  10  11
ENDBRANCH   1  10
TORSDOF 7
