REMARK  Name = 
REMARK  8 active torsions:
REMARK  status: ('A' for Active; 'I' for Inactive)
REMARK    1  A    between atoms: N_3  and  C_11
REMARK    2  A    between atoms: C_11  and  C_12
REMARK    3  A    between atoms: C_18  and  C_20
REMARK    4  A    between atoms: C_21  and  C_22
REMARK    5  A    between atoms: C_21  and  C_40
REMARK    6  A    between atoms: C_25  and  N_28
REMARK    7  A    between atoms: N_29  and  C_30
REMARK    8  A    between atoms: C_32  and  C_37
REMARK                            x       y       z     vdW  Elec       q    Type
REMARK                         _______ _______ _______ _____ _____    ______ ____
ROOT
ATOM      1  C   UNL     1      -3.881  -3.621   0.000  0.00  0.00    +0.000 C 
ATOM      2  C   UNL     1      -4.688  -3.792   0.000  0.00  0.00    +0.000 C 
ENDROOT
BRANCH   1   9
ATOM      3  C   UNL     1      -1.205  -2.321   0.000  0.00  0.00    +0.000 C 
ATOM      4  C   UNL     1      -1.460  -3.106   0.000  0.00  0.00    +0.000 C 
ATOM      5  C   UNL     1      -2.267  -3.278   0.000  0.00  0.00    +0.000 C 
ATOM      6  N   UNL     1      -2.819  -2.665   0.000  0.00  0.00    +0.000 N 
ATOM      7  C   UNL     1      -2.564  -1.880   0.000  0.00  0.00    +0.000 C 
ATOM      8  C   UNL     1      -1.758  -1.708   0.000  0.00  0.00    +0.000 C 
ATOM      9  C   UNL     1      -3.626  -2.836   0.000  0.00  0.00    +0.000 C 
ATOM     10  O   UNL     1      -4.178  -2.223   0.000  0.00  0.00    +0.000 OA
BRANCH   3  11
ATOM     11  C   UNL     1      -0.398  -2.150   0.000  0.00  0.00    +0.000 C 
BRANCH  11  14
ATOM     12  C   UNL     1      -1.453  -0.698   0.000  0.00  0.00    +0.000 C 
ATOM     13  C   UNL     1      -0.628  -0.698   0.000  0.00  0.00    +0.000 A 
ATOM     14  N   UNL     1      -0.143  -1.365   0.000  0.00  0.00    +0.000 N 
ATOM     15  C   UNL     1       0.641  -1.110   0.000  0.00  0.00    +0.000 A 
ATOM     16  C   UNL     1       0.641  -0.285   0.000  0.00  0.00    +0.000 A 
ATOM     17  N   UNL     1      -0.143  -0.030   0.000  0.00  0.00    +0.000 NA
ATOM     18  C   UNL     1       1.356   0.127   0.000  0.00  0.00    +0.000 A 
ATOM     19  N   UNL     1       2.070  -0.285   0.000  0.00  0.00    +0.000 NA
ATOM     20  C   UNL     1       2.070  -1.110   0.000  0.00  0.00    +0.000 A 
ATOM     21  C   UNL     1       1.356  -1.523   0.000  0.00  0.00    +0.000 A 
ENDBRANCH  11  14
ENDBRANCH   3  11
ENDBRANCH   1   9
BRANCH   2  22
ATOM     22  C   UNL     1      -5.240  -3.179   0.000  0.00  0.00    +0.000 A 
ATOM     23  C   UNL     1      -6.047  -3.351   0.000  0.00  0.00    +0.000 A 
ATOM     24  C   UNL     1      -6.599  -2.738   0.000  0.00  0.00    +0.000 A 
ATOM     25  C   UNL     1      -6.344  -1.953   0.000  0.00  0.00    +0.000 A 
ATOM     26  C   UNL     1      -5.537  -1.781   0.000  0.00  0.00    +0.000 A 
ATOM     27  C   UNL     1      -4.985  -2.394   0.000  0.00  0.00    +0.000 A 
BRANCH  25  28
ATOM     28  N   UNL     1      -6.896  -1.340   0.000  0.00  0.00    +0.000 NA
ATOM     29  N   UNL     1      -7.703  -1.511   0.000  0.00  0.00    +0.000 NA
BRANCH  29  30
ATOM     30  C   UNL     1      -8.255  -0.898   0.000  0.00  0.00    +0.000 A 
ATOM     31  C   UNL     1      -9.062  -1.070   0.000  0.00  0.00    +0.000 A 
ATOM     32  C   UNL     1      -9.614  -0.457   0.000  0.00  0.00    +0.000 A 
ATOM     33  C   UNL     1      -9.359   0.328   0.000  0.00  0.00    +0.000 A 
ATOM     34  C   UNL     1      -8.553   0.499   0.000  0.00  0.00    +0.000 A 
ATOM     35  C   UNL     1      -8.000  -0.114   0.000  0.00  0.00    +0.000 A 
ATOM     36  O   UNL     1      -9.912   0.941   0.000  0.00  0.00    +0.000 OA
BRANCH  32  37
ATOM     37  C   UNL     1     -10.421  -0.628   0.000  0.00  0.00    +0.000 C 
ATOM     38  O   UNL     1     -10.973  -0.015   0.000  0.00  0.00    +0.000 OA
ATOM     39  O   UNL     1     -10.676  -1.413   0.000  0.00  0.00    +0.000 OA
ENDBRANCH  32  37
ENDBRANCH  29  30
ENDBRANCH  25  28
ENDBRANCH   2  22
BRANCH   2  40
ATOM     40  C   UNL     1      -4.943  -4.577   0.000  0.00  0.00    +0.000 A 
ATOM     41  C   UNL     1      -4.391  -5.190   0.000  0.00  0.00    +0.000 A 
ATOM     42  C   UNL     1      -4.646  -5.975   0.000  0.00  0.00    +0.000 A 
ATOM     43  C   UNL     1      -5.453  -6.146   0.000  0.00  0.00    +0.000 A 
ATOM     44  C   UNL     1      -6.005  -5.533   0.000  0.00  0.00    +0.000 A 
ATOM     45  C   UNL     1      -5.750  -4.748   0.000  0.00  0.00    +0.000 A 
ENDBRANCH   2  40
TORSDOF 8
