REMARK  Name = 
REMARK  4 active torsions:
REMARK  status: ('A' for Active; 'I' for Inactive)
REMARK    1  A    between atoms: C_1  and  O_7
REMARK    2  A    between atoms: C_4  and  C_6
REMARK    3  A    between atoms: O_7  and  C_14
REMARK    4  A    between atoms: C_9  and  O_15
REMARK                            x       y       z     vdW  Elec       q    Type
REMARK                         _______ _______ _______ _____ _____    ______ ____
ROOT
ATOM      1  C   UNL     1      -0.871  -0.120   0.000  0.00  0.00    +0.000 A 
ATOM      2  C   UNL     1       0.092   0.945   0.000  0.00  0.00    +0.000 A 
ATOM      3  C   UNL     1      -0.080   0.137   0.000  0.00  0.00    +0.000 A 
ATOM      4  C   UNL     1      -1.484   0.447   0.000  0.00  0.00    +0.000 A 
ATOM      5  C   UNL     1      -0.521   1.495   0.000  0.00  0.00    +0.000 A 
ATOM      6  C   UNL     1      -1.300   1.255   0.000  0.00  0.00    +0.000 A 
ENDROOT
BRANCH   2   9
ATOM      7  N   UNL     1       2.206   1.169   0.000  0.00  0.00    +0.000 NA
ATOM      8  C   UNL     1       1.965   1.959   0.000  0.00  0.00    +0.000 C 
ATOM      9  C   UNL     1       0.865   1.186   0.000  0.00  0.00    +0.000 C 
ATOM     10  C   UNL     1       1.140   1.959   0.000  0.00  0.00    +0.000 C 
ATOM     11  C   UNL     1       1.535   0.688   0.000  0.00  0.00    +0.000 C 
ATOM     12  O   UNL     1       2.446   2.630   0.000  0.00  0.00    +0.000 OA
ENDBRANCH   2   9
BRANCH   4  13
ATOM     13  O   UNL     1      -2.263   0.189   0.000  0.00  0.00    +0.000 OA
ATOM     14  C   UNL     1      -2.446  -0.619   0.000  0.00  0.00    +0.000 C 
ENDBRANCH   4  13
BRANCH   1  15
ATOM     15  O   UNL     1      -1.043  -0.928   0.000  0.00  0.00    +0.000 OA
BRANCH  15  16
ATOM     16  C   UNL     1      -0.435  -1.478   0.000  0.00  0.00    +0.000 C 
ATOM     17  C   UNL     1       0.384  -1.306   0.000  0.00  0.00    +0.000 C 
ATOM     18  C   UNL     1      -0.521  -2.286   0.000  0.00  0.00    +0.000 C 
ATOM     19  C   UNL     1       0.235  -2.630   0.000  0.00  0.00    +0.000 C 
ATOM     20  C   UNL     1       0.779  -2.028   0.000  0.00  0.00    +0.000 C 
ENDBRANCH  15  16
ENDBRANCH   1  15
TORSDOF 4
