REMARK  Name = 
REMARK  2 active torsions:
REMARK  status: ('A' for Active; 'I' for Inactive)
REMARK    1  A    between atoms: C_7  and  C_10
REMARK    2  A    between atoms: C_11  and  C_17
REMARK                            x       y       z     vdW  Elec       q    Type
REMARK                         _______ _______ _______ _____ _____    ______ ____
ROOT
ATOM      1  C   UNL     1       1.568  -1.425   0.000  0.00  0.00    +0.000 C 
ATOM      2  C   UNL     1       1.823  -0.641   0.000  0.00  0.00    +0.000 C 
ATOM      3  C   UNL     1       2.648  -0.641   0.000  0.00  0.00    +0.000 C 
ATOM      4  O   UNL     1       3.132   0.027   0.000  0.00  0.00    +0.000 OA
ATOM      5  N   UNL     1       2.903  -1.425   0.000  0.00  0.00    +0.000 NA
ATOM      6  C   UNL     1       2.235  -1.910   0.000  0.00  0.00    +0.000 C 
ATOM      7  O   UNL     1       2.235  -2.735   0.000  0.00  0.00    +0.000 OA
ENDROOT
BRANCH   2   8
ATOM      8  C   UNL     1       1.338   0.027   0.000  0.00  0.00    +0.000 A 
ATOM      9  C   UNL     1       0.513   0.027   0.000  0.00  0.00    +0.000 A 
ATOM     10  N   UNL     1       0.258   0.811   0.000  0.00  0.00    +0.000 N 
ATOM     11  C   UNL     1       0.925   1.296   0.000  0.00  0.00    +0.000 A 
ATOM     12  C   UNL     1       1.593   0.811   0.000  0.00  0.00    +0.000 A 
ATOM     13  C   UNL     1       2.346   1.147   0.000  0.00  0.00    +0.000 A 
ATOM     14  C   UNL     1       2.433   1.968   0.000  0.00  0.00    +0.000 A 
ATOM     15  C   UNL     1       1.765   2.453   0.000  0.00  0.00    +0.000 A 
ATOM     16  C   UNL     1       0.839   2.117   0.000  0.00  0.00    +0.000 A 
ATOM     17  C   UNL     1       0.085   2.453   0.000  0.00  0.00    +0.000 C 
ATOM     18  C   UNL     1      -0.582   1.968   0.000  0.00  0.00    +0.000 C 
ATOM     19  C   UNL     1      -0.496   1.147   0.000  0.00  0.00    +0.000 C 
ENDBRANCH   2   8
BRANCH   1  26
ATOM     20  C   UNL     1       0.528  -3.894   0.000  0.00  0.00    +0.000 A 
ATOM     21  C   UNL     1      -0.297  -3.894   0.000  0.00  0.00    +0.000 A 
ATOM     22  C   UNL     1      -0.709  -3.179   0.000  0.00  0.00    +0.000 A 
ATOM     23  C   UNL     1      -0.297  -2.465   0.000  0.00  0.00    +0.000 A 
ATOM     24  C   UNL     1       0.528  -2.465   0.000  0.00  0.00    +0.000 A 
ATOM     25  C   UNL     1       0.941  -3.179   0.000  0.00  0.00    +0.000 A 
ATOM     26  C   UNL     1       0.783  -1.680   0.000  0.00  0.00    +0.000 A 
ATOM     27  C   UNL     1       0.116  -1.195   0.000  0.00  0.00    +0.000 A 
ATOM     28  N   UNL     1      -0.552  -1.680   0.000  0.00  0.00    +0.000 NA
ENDBRANCH   1  26
TORSDOF 2
