REMARK  Name = 
REMARK  8 active torsions:
REMARK  status: ('A' for Active; 'I' for Inactive)
REMARK    1  A    between atoms: C_2  and  C_3
REMARK    2  A    between atoms: C_2  and  N_11
REMARK    3  A    between atoms: C_3  and  C_4
REMARK    4  A    between atoms: N_11  and  C_12
REMARK    5  A    between atoms: C_12  and  C_13
REMARK    6  A    between atoms: C_13  and  C_14
REMARK    7  A    between atoms: C_14  and  C_16
REMARK    8  A    between atoms: C_20  and  O_22
REMARK                            x       y       z     vdW  Elec       q    Type
REMARK                         _______ _______ _______ _____ _____    ______ ____
ROOT
ATOM      1  C   UNL     1       0.715  -3.712   0.000  0.00  0.00    +0.000 C 
ENDROOT
BRANCH   1   2
ATOM      2  N   UNL     1       0.000  -3.300   0.000  0.00  0.00    +0.000 NA
BRANCH   2   4
ATOM      3  C   UNL     1      -0.715  -4.537   0.000  0.00  0.00    +0.000 C 
ATOM      4  C   UNL     1      -0.715  -3.712   0.000  0.00  0.00    +0.000 C 
BRANCH   4   5
ATOM      5  C   UNL     1      -1.429  -3.300   0.000  0.00  0.00    +0.000 C 
ATOM      6  O   UNL     1      -1.429  -2.475   0.000  0.00  0.00    +0.000 OA
BRANCH   5   7
ATOM      7  C   UNL     1      -2.143  -3.712   0.000  0.00  0.00    +0.000 A 
ATOM      8  C   UNL     1      -2.143  -4.537   0.000  0.00  0.00    +0.000 A 
ATOM      9  C   UNL     1      -2.858  -4.950   0.000  0.00  0.00    +0.000 A 
ATOM     10  C   UNL     1      -3.572  -4.537   0.000  0.00  0.00    +0.000 A 
ATOM     11  C   UNL     1      -3.572  -3.712   0.000  0.00  0.00    +0.000 A 
ATOM     12  C   UNL     1      -2.858  -3.300   0.000  0.00  0.00    +0.000 A 
ENDBRANCH   5   7
ENDBRANCH   4   5
ENDBRANCH   2   4
ENDBRANCH   1   2
BRANCH   1  13
ATOM     13  C   UNL     1       1.429  -3.300   0.000  0.00  0.00    +0.000 C 
BRANCH  13  14
ATOM     14  C   UNL     1       2.143  -3.712   0.000  0.00  0.00    +0.000 C 
ATOM     15  O   UNL     1       2.143  -4.537   0.000  0.00  0.00    +0.000 OA
BRANCH  14  16
ATOM     16  C   UNL     1       2.858  -3.300   0.000  0.00  0.00    +0.000 A 
ATOM     17  C   UNL     1       2.858  -2.475   0.000  0.00  0.00    +0.000 A 
ATOM     18  C   UNL     1       3.572  -2.062   0.000  0.00  0.00    +0.000 A 
ATOM     19  C   UNL     1       4.287  -2.475   0.000  0.00  0.00    +0.000 A 
ATOM     20  C   UNL     1       4.287  -3.300   0.000  0.00  0.00    +0.000 A 
ATOM     21  C   UNL     1       3.572  -3.712   0.000  0.00  0.00    +0.000 A 
BRANCH  20  22
ATOM     22  O   UNL     1       5.001  -3.712   0.000  0.00  0.00    +0.000 OA
ATOM     23  C   UNL     1       5.716  -3.300   0.000  0.00  0.00    +0.000 C 
ENDBRANCH  20  22
ENDBRANCH  14  16
ENDBRANCH  13  14
ENDBRANCH   1  13
TORSDOF 8
