REMARK  Name = 
REMARK  5 active torsions:
REMARK  status: ('A' for Active; 'I' for Inactive)
REMARK    1  A    between atoms: C_4  and  C_5
REMARK    2  A    between atoms: C_4  and  C_10
REMARK    3  A    between atoms: C_6  and  C_11
REMARK    4  A    between atoms: C_9  and  C_11
REMARK    5  A    between atoms: C_10  and  C_14
REMARK                            x       y       z     vdW  Elec       q    Type
REMARK                         _______ _______ _______ _____ _____    ______ ____
ROOT
ATOM      1  O   UNL     1      -0.714  -1.388   0.000  0.00  0.00    +0.000 OA
ATOM      2  C   UNL     1      -0.714   1.087   0.000  0.00  0.00    +0.000 A 
ATOM      3  C   UNL     1       0.000  -0.151   0.000  0.00  0.00    +0.000 A 
ATOM      4  C   UNL     1       0.000   0.674   0.000  0.00  0.00    +0.000 A 
ATOM      5  C   UNL     1      -0.714  -0.563   0.000  0.00  0.00    +0.000 A 
ATOM      6  C   UNL     1      -1.429   0.674   0.000  0.00  0.00    +0.000 A 
ATOM      7  C   UNL     1      -1.429  -0.151   0.000  0.00  0.00    +0.000 A 
ENDROOT
BRANCH   2   8
ATOM      8  C   UNL     1      -0.714   1.911   0.000  0.00  0.00    +0.000 C 
ATOM      9  C   UNL     1       0.111   1.911   0.000  0.00  0.00    +0.000 C 
ATOM     10  C   UNL     1      -1.539   1.911   0.000  0.00  0.00    +0.000 C 
BRANCH   8  11
ATOM     11  C   UNL     1      -0.714   2.736   0.000  0.00  0.00    +0.000 C 
BRANCH  11  12
ATOM     12  C   UNL     1      -1.429   3.149   0.000  0.00  0.00    +0.000 C 
ATOM     13  C   UNL     1      -2.143   3.562   0.000  0.00  0.00    +0.000 C 
ATOM     14  C   UNL     1      -1.016   3.863   0.000  0.00  0.00    +0.000 C 
ATOM     15  C   UNL     1      -1.841   2.434   0.000  0.00  0.00    +0.000 C 
ENDBRANCH  11  12
ENDBRANCH   8  11
ENDBRANCH   2   8
BRANCH   3  16
ATOM     16  C   UNL     1       0.714  -0.563   0.000  0.00  0.00    +0.000 C 
BRANCH  16  19
ATOM     17 CL   UNL     1       2.143  -1.388   0.000  0.00  0.00    +0.000 Cl
ATOM     18 CL   UNL     1       0.714  -3.863   0.000  0.00  0.00    +0.000 Cl
ATOM     19  C   UNL     1       0.714  -1.388   0.000  0.00  0.00    +0.000 A 
ATOM     20  C   UNL     1       1.429  -1.801   0.000  0.00  0.00    +0.000 A 
ATOM     21  C   UNL     1       0.000  -1.801   0.000  0.00  0.00    +0.000 A 
ATOM     22  C   UNL     1       1.429  -2.626   0.000  0.00  0.00    +0.000 A 
ATOM     23  C   UNL     1       0.714  -3.038   0.000  0.00  0.00    +0.000 A 
ATOM     24  C   UNL     1       0.000  -2.626   0.000  0.00  0.00    +0.000 A 
ENDBRANCH  16  19
ENDBRANCH   3  16
TORSDOF 5
