REMARK  Name = 
REMARK  11 active torsions:
REMARK  status: ('A' for Active; 'I' for Inactive)
REMARK    1  A    between atoms: CG_2  and  CB_6
REMARK    2  A    between atoms: CB_6  and  CA_7
REMARK    3  A    between atoms: CA_7  and  C_8
REMARK    4  A    between atoms: CA_7  and  N_20
REMARK    5  A    between atoms: N_10  and  CA_11
REMARK    6  A    between atoms: CA_11  and  CB_12
REMARK    7  A    between atoms: CA_11  and  C_17
REMARK    8  A    between atoms: CB_12  and  CG_13
REMARK    9  A    between atoms: CG_13  and  CD_14
REMARK   10  A    between atoms: CD_14  and  CE_15
REMARK   11  A    between atoms: C_21  and  CA_23
REMARK                            x       y       z     vdW  Elec       q    Type
REMARK                         _______ _______ _______ _____ _____    ______ ____
ROOT
ATOM      1  CA  HIS A   2       1.221   0.714   0.000  0.00  0.00    +0.000 C 
ENDROOT
BRANCH   1   2
ATOM      2  N   HIS A   2       1.634   0.000   0.000  0.00  0.00    +0.000 NA
ATOM      3  C   GLY A   1       1.221  -0.714   0.000  0.00  0.00    +0.000 C 
ATOM      4  O   GLY A   1       0.396  -0.714   0.000  0.00  0.00    +0.000 OA
BRANCH   3   5
ATOM      5  CA  GLY A   1       1.634  -1.429   0.000  0.00  0.00    +0.000 C 
ATOM      6  N   GLY A   1       1.221  -2.143   0.000  0.00  0.00    +0.000 NA
ENDBRANCH   3   5
ENDBRANCH   1   2
BRANCH   1   7
ATOM      7  C   HIS A   2       0.396   0.714   0.000  0.00  0.00    +0.000 C 
ATOM      8  O   HIS A   2      -0.016   1.429   0.000  0.00  0.00    +0.000 OA
ATOM      9  N   LYS A   3      -0.016   0.000   0.000  0.00  0.00    +0.000 NA
BRANCH   9  10
ATOM     10  CA  LYS A   3      -0.841   0.000   0.000  0.00  0.00    +0.000 C 
BRANCH  10  11
ATOM     11  C   LYS A   3      -1.254   0.714   0.000  0.00  0.00    +0.000 C 
ATOM     12  O   LYS A   3      -2.079   0.714   0.000  0.00  0.00    +0.000 OA
ATOM     13  OXT LYS A   3      -0.841   1.429   0.000  0.00  0.00    +0.000 OA
ENDBRANCH  10  11
BRANCH  10  14
ATOM     14  CB  LYS A   3      -1.254  -0.714   0.000  0.00  0.00    +0.000 C 
BRANCH  14  15
ATOM     15  CG  LYS A   3      -2.079  -0.714   0.000  0.00  0.00    +0.000 C 
BRANCH  15  16
ATOM     16  CD  LYS A   3      -2.491  -1.429   0.000  0.00  0.00    +0.000 C 
BRANCH  16  17
ATOM     17  CE  LYS A   3      -3.316  -1.429   0.000  0.00  0.00    +0.000 C 
ATOM     18  NZ  LYS A   3      -3.728  -2.143   0.000  0.00  0.00    +0.000 NA
ENDBRANCH  16  17
ENDBRANCH  15  16
ENDBRANCH  14  15
ENDBRANCH  10  14
ENDBRANCH   9  10
ENDBRANCH   1   7
BRANCH   1  19
ATOM     19  CB  HIS A   2       1.634   1.429   0.000  0.00  0.00    +0.000 C 
BRANCH  19  21
ATOM     20  CD2 HIS A   2       2.944   0.761   0.000  0.00  0.00    +0.000 A 
ATOM     21  CG  HIS A   2       2.459   1.429   0.000  0.00  0.00    +0.000 A 
ATOM     22  ND1 HIS A   2       2.944   2.096   0.000  0.00  0.00    +0.000 NA
ATOM     23  CE1 HIS A   2       3.728   1.841   0.000  0.00  0.00    +0.000 A 
ATOM     24  NE2 HIS A   2       3.728   1.016   0.000  0.00  0.00    +0.000 NA
ENDBRANCH  19  21
ENDBRANCH   1  19
TORSDOF 11
REMARK  Name = 
REMARK  11 active torsions:
REMARK  status: ('A' for Active; 'I' for Inactive)
REMARK    1  A    between atoms: CG_2  and  CB_6
REMARK    2  A    between atoms: CB_6  and  CA_7
REMARK    3  A    between atoms: CA_7  and  C_8
REMARK    4  A    between atoms: CA_7  and  N_20
REMARK    5  A    between atoms: N_10  and  CA_11
REMARK    6  A    between atoms: CA_11  and  CB_12
REMARK    7  A    between atoms: CA_11  and  C_17
REMARK    8  A    between atoms: CB_12  and  CG_13
REMARK    9  A    between atoms: CG_13  and  CD_14
REMARK   10  A    between atoms: CD_14  and  CE_15
REMARK   11  A    between atoms: C_21  and  CA_23
REMARK                            x       y       z     vdW  Elec       q    Type
REMARK                         _______ _______ _______ _____ _____    ______ ____
ROOT
ATOM      1 CU   UNL     1      -0.428   2.143   0.000  0.00  0.00    +0.000 Cu
ENDROOT
TORSDOF 0
