REMARK  Name = 
REMARK  7 active torsions:
REMARK  status: ('A' for Active; 'I' for Inactive)
REMARK    1  A    between atoms: C_3  and  C_6
REMARK    2  A    between atoms: C_6  and  CA_12
REMARK    3  A    between atoms: CA_10  and  C_15
REMARK    4  A    between atoms: CA_10  and  N_18
REMARK    5  A    between atoms: CA_12  and  C_16
REMARK    6  A    between atoms: CA_12  and  N_18
REMARK    7  A    between atoms: CA_14  and  C_17
REMARK                            x       y       z     vdW  Elec       q    Type
REMARK                         _______ _______ _______ _____ _____    ______ ____
ROOT
ATOM      1  C   UNL     1      -0.661   1.937   0.000  0.00  0.00    +0.000 C 
ATOM      2  C   UNL     1      -0.916   1.152   0.000  0.00  0.00    +0.000 C 
ATOM      3  C   UNL     1       0.146   2.108   0.000  0.00  0.00    +0.000 C 
ATOM      4  C   UNL     1      -0.364   0.539   0.000  0.00  0.00    +0.000 C 
ATOM      5  C   UNL     1       1.523   1.495   0.000  0.00  0.00    +0.000 C 
ATOM      6  C   UNL     1       0.698   1.495   0.000  0.00  0.00    +0.000 C 
ATOM      7  C   UNL     1       0.443   0.711   0.000  0.00  0.00    +0.000 C 
ATOM      8  CA  UNL     1       1.778   0.711   0.000  0.00  0.00    +0.000 C 
ATOM      9  C   UNL     1       1.111  -0.599   0.000  0.00  0.00    +0.000 C 
ATOM     10  N   UNL     1       1.111   0.226   0.000  0.00  0.00    +0.000 N 
ATOM     11  O   UNL     1       1.825  -1.012   0.000  0.00  0.00    +0.000 OA
ENDROOT
BRANCH   8  12
ATOM     12  C   UNL     1       2.563   0.456   0.000  0.00  0.00    +0.000 C 
ATOM     13  O   UNL     1       3.176   1.008   0.000  0.00  0.00    +0.000 OA
ATOM     14  OXT UNL     1       2.734  -0.351   0.000  0.00  0.00    +0.000 OA
ENDBRANCH   8  12
BRANCH   9  16
ATOM     15  CB  UNL     1       0.396  -1.837   0.000  0.00  0.00    +0.000 C 
ATOM     16  CA  UNL     1       0.396  -1.012   0.000  0.00  0.00    +0.000 C 
BRANCH  16  17
ATOM     17  N   UNL     1      -0.318  -0.599   0.000  0.00  0.00    +0.000 NA
BRANCH  17  18
ATOM     18  CA  UNL     1      -1.033  -1.012   0.000  0.00  0.00    +0.000 C 
BRANCH  18  19
ATOM     19  C   UNL     1      -1.033  -1.837   0.000  0.00  0.00    +0.000 C 
ATOM     20  O   UNL     1      -0.318  -2.249   0.000  0.00  0.00    +0.000 OA
ATOM     21  OXT UNL     1      -1.747  -2.249   0.000  0.00  0.00    +0.000 OA
ENDBRANCH  18  19
BRANCH  18  22
ATOM     22  C   UNL     1      -1.747  -0.599   0.000  0.00  0.00    +0.000 C 
BRANCH  22  24
ATOM     23  C   UNL     1      -3.176  -0.599   0.000  0.00  0.00    +0.000 C 
ATOM     24  C   UNL     1      -2.462  -1.012   0.000  0.00  0.00    +0.000 C 
ENDBRANCH  22  24
ENDBRANCH  18  22
ENDBRANCH  17  18
ENDBRANCH  16  17
ENDBRANCH   9  16
TORSDOF 7
