REMARK  Name = 
REMARK  8 active torsions:
REMARK  status: ('A' for Active; 'I' for Inactive)
REMARK    1  A    between atoms: C_3  and  N_7
REMARK    2  A    between atoms: C_8  and  C_10
REMARK    3  A    between atoms: C_10  and  C_11
REMARK    4  A    between atoms: C_11  and  C_12
REMARK    5  A    between atoms: C_12  and  C_13
REMARK    6  A    between atoms: C_13  and  C_14
REMARK    7  A    between atoms: C_14  and  C_15
REMARK    8  A    between atoms: C_15  and  C_16
REMARK                            x       y       z     vdW  Elec       q    Type
REMARK                         _______ _______ _______ _____ _____    ______ ____
ROOT
ATOM      1  C   UNL     1       0.000   2.475   0.000  0.00  0.00    +0.000 C 
ENDROOT
BRANCH   1   3
ATOM      2  N   UNL     1      -1.429   2.475   0.000  0.00  0.00    +0.000 NA
ATOM      3  C   UNL     1      -0.715   2.062   0.000  0.00  0.00    +0.000 C 
ATOM      4  O   UNL     1      -0.715   1.238   0.000  0.00  0.00    +0.000 OA
BRANCH   2   7
ATOM      5  C   UNL     1      -3.572   2.062   0.000  0.00  0.00    +0.000 A 
ATOM      6  C   UNL     1      -2.858   2.475   0.000  0.00  0.00    +0.000 A 
ATOM      7  C   UNL     1      -2.143   2.062   0.000  0.00  0.00    +0.000 A 
ATOM      8  C   UNL     1      -2.143   1.238   0.000  0.00  0.00    +0.000 A 
ATOM      9  N   UNL     1      -2.858   0.825   0.000  0.00  0.00    +0.000 NA
ATOM     10  C   UNL     1      -3.572   1.238   0.000  0.00  0.00    +0.000 A 
ENDBRANCH   2   7
ENDBRANCH   1   3
BRANCH   1  11
ATOM     11  C   UNL     1       0.715   2.062   0.000  0.00  0.00    +0.000 C 
BRANCH  11  12
ATOM     12  C   UNL     1       1.429   2.475   0.000  0.00  0.00    +0.000 C 
BRANCH  12  13
ATOM     13  C   UNL     1       2.143   2.062   0.000  0.00  0.00    +0.000 C 
BRANCH  13  14
ATOM     14  C   UNL     1       2.858   2.475   0.000  0.00  0.00    +0.000 C 
BRANCH  14  15
ATOM     15  C   UNL     1       3.572   2.062   0.000  0.00  0.00    +0.000 C 
BRANCH  15  16
ATOM     16  C   UNL     1       4.287   2.475   0.000  0.00  0.00    +0.000 C 
ATOM     17  O   UNL     1       4.287   3.300   0.000  0.00  0.00    +0.000 OA
ATOM     18  N   UNL     1       5.001   2.062   0.000  0.00  0.00    +0.000 NA
ATOM     19  O   UNL     1       5.716   2.475   0.000  0.00  0.00    +0.000 OA
ENDBRANCH  15  16
ENDBRANCH  14  15
ENDBRANCH  13  14
ENDBRANCH  12  13
ENDBRANCH  11  12
ENDBRANCH   1  11
TORSDOF 8
