REMARK  Name = 
REMARK  4 active torsions:
REMARK  status: ('A' for Active; 'I' for Inactive)
REMARK    1  A    between atoms: C_3  and  C_22
REMARK    2  A    between atoms: C_4  and  O_26
REMARK    3  A    between atoms: C_18  and  C_21
REMARK    4  A    between atoms: C_21  and  O_26
REMARK                            x       y       z     vdW  Elec       q    Type
REMARK                         _______ _______ _______ _____ _____    ______ ____
ROOT
ATOM      1  C   UNL     1       4.362   2.028   0.000  0.00  0.00    +0.000 A 
ATOM      2  C   UNL     1       4.323   1.204   0.000  0.00  0.00    +0.000 A 
ATOM      3  C   UNL     1      -0.824   1.603   0.000  0.00  0.00    +0.000 C 
ATOM      4  C   UNL     1       3.668   2.474   0.000  0.00  0.00    +0.000 A 
ATOM      5  C   UNL     1       3.590   0.826   0.000  0.00  0.00    +0.000 A 
ATOM      6  C   UNL     1       1.566   3.171   0.000  0.00  0.00    +0.000 C 
ATOM      7  C   UNL     1      -0.371   0.913   0.000  0.00  0.00    +0.000 C 
ATOM      8  C   UNL     1      -0.453   2.340   0.000  0.00  0.00    +0.000 C 
ATOM      9  C   UNL     1       0.742   3.124   0.000  0.00  0.00    +0.000 C 
ATOM     10  C   UNL     1       0.905   0.271   0.000  0.00  0.00    +0.000 C 
ATOM     11  C   UNL     1       2.935   2.096   0.000  0.00  0.00    +0.000 A 
ATOM     12  C   UNL     1       2.018   2.481   0.000  0.00  0.00    +0.000 A 
ATOM     13  C   UNL     1       2.896   1.272   0.000  0.00  0.00    +0.000 A 
ATOM     14  C   UNL     1       1.729   0.318   0.000  0.00  0.00    +0.000 C 
ATOM     15  C   UNL     1       1.647   1.744   0.000  0.00  0.00    +0.000 A 
ATOM     16  C   UNL     1       0.824   1.697   0.000  0.00  0.00    +0.000 C 
ATOM     17  C   UNL     1       0.453   0.960   0.000  0.00  0.00    +0.000 C 
ATOM     18  N   UNL     1       0.371   2.387   0.000  0.00  0.00    +0.000 NA
ATOM     19  N   UNL     1       2.100   1.055   0.000  0.00  0.00    +0.000 N 
ENDROOT
BRANCH  17  21
ATOM     20  C   UNL     1       0.534  -0.466   0.000  0.00  0.00    +0.000 C 
ATOM     21  C   UNL     1       0.082   0.223   0.000  0.00  0.00    +0.000 C 
ENDBRANCH  17  21
BRANCH  14  22
ATOM     22  C   UNL     1       2.182  -0.372   0.000  0.00  0.00    +0.000 C 
ATOM     23  O   UNL     1       3.005  -0.325   0.000  0.00  0.00    +0.000 OA
BRANCH  22  24
ATOM     24  O   UNL     1       1.811  -1.109   0.000  0.00  0.00    +0.000 OA
BRANCH  24  26
ATOM     25  C   UNL     1       1.892  -2.535   0.000  0.00  0.00    +0.000 C 
ATOM     26  C   UNL     1       2.263  -1.799   0.000  0.00  0.00    +0.000 C 
ENDBRANCH  24  26
ENDBRANCH  22  24
ENDBRANCH  14  22
TORSDOF 4
