REMARK  Name = 
REMARK  15 active torsions:
REMARK  status: ('A' for Active; 'I' for Inactive)
REMARK    1  A    between atoms: C_2  and  C_3
REMARK    2  A    between atoms: C_11  and  C_80
REMARK    3  A    between atoms: C_15  and  C_77
REMARK    4  A    between atoms: C_19  and  C_72
REMARK    5  A    between atoms: C_31  and  C_65
REMARK    6  A    between atoms: C_35  and  C_60
REMARK    7  A    between atoms: C_39  and  C_56
REMARK    8  A    between atoms: C_43  and  C_47
REMARK    9  A    between atoms: C_47  and  C_48
REMARK   10  A    between atoms: C_48  and  C_50
REMARK   11  A    between atoms: C_50  and  C_51
REMARK   12  A    between atoms: C_60  and  C_61
REMARK   13  A    between atoms: C_65  and  C_66
REMARK   14  A    between atoms: C_72  and  C_73
REMARK   15  A    between atoms: C_80  and  C_82
REMARK                            x       y       z     vdW  Elec       q    Type
REMARK                         _______ _______ _______ _____ _____    ______ ____
ROOT
ATOM      1  C   UNL     1       2.665  -0.782   0.000  0.00  0.00    +0.000 C 
ATOM      2  C   UNL     1       1.971  -0.336   0.000  0.00  0.00    +0.000 C 
ATOM      3  O   UNL     1       2.010   0.488   0.000  0.00  0.00    +0.000 OA
ATOM      4  N   UNL     1       1.238  -0.715   0.000  0.00  0.00    +0.000 N 
ATOM      5  C   UNL     1       0.825   0.000   0.000  0.00  0.00    +0.000 C 
ATOM      6  C   UNL     1       0.000   0.000   0.000  0.00  0.00    +0.000 C 
ATOM      7  O   UNL     1      -0.412   0.715   0.000  0.00  0.00    +0.000 OA
ATOM      8  N   UNL     1      -0.412  -0.715   0.000  0.00  0.00    +0.000 N 
ATOM      9  C   UNL     1      -1.146  -0.336   0.000  0.00  0.00    +0.000 C 
ATOM     10  C   UNL     1      -1.840  -0.782   0.000  0.00  0.00    +0.000 C 
ATOM     11  O   UNL     1      -2.573  -0.404   0.000  0.00  0.00    +0.000 OA
ATOM     12  N   UNL     1      -1.801  -1.607   0.000  0.00  0.00    +0.000 NA
ATOM     13  C   UNL     1      -2.622  -1.685   0.000  0.00  0.00    +0.000 C 
ATOM     14  C   UNL     1      -2.965  -2.435   0.000  0.00  0.00    +0.000 C 
ATOM     15  O   UNL     1      -3.786  -2.514   0.000  0.00  0.00    +0.000 OA
ATOM     16  N   UNL     1      -2.486  -3.107   0.000  0.00  0.00    +0.000 N 
ATOM     17  C   UNL     1      -3.135  -3.617   0.000  0.00  0.00    +0.000 C 
ATOM     18  C   UNL     1      -3.017  -4.434   0.000  0.00  0.00    +0.000 C 
ATOM     19  O   UNL     1      -3.666  -4.944   0.000  0.00  0.00    +0.000 OA
ATOM     20  N   UNL     1      -2.251  -4.741   0.000  0.00  0.00    +0.000 NA
ATOM     21  C   UNL     1      -2.521  -5.520   0.000  0.00  0.00    +0.000 C 
ATOM     22  C   UNL     1      -1.981  -6.144   0.000  0.00  0.00    +0.000 C 
ATOM     23  O   UNL     1      -2.251  -6.923   0.000  0.00  0.00    +0.000 OA
ATOM     24  N   UNL     1      -1.171  -5.988   0.000  0.00  0.00    +0.000 NA
ATOM     25  C   UNL     1      -0.976  -6.789   0.000  0.00  0.00    +0.000 C 
ATOM     26  C   UNL     1      -0.185  -7.022   0.000  0.00  0.00    +0.000 C 
ATOM     27  O   UNL     1       0.010  -7.824   0.000  0.00  0.00    +0.000 OA
ATOM     28  N   UNL     1       0.412  -6.452   0.000  0.00  0.00    +0.000 N 
ATOM     29  C   UNL     1       1.010  -7.022   0.000  0.00  0.00    +0.000 C 
ATOM     30  C   UNL     1       1.801  -6.789   0.000  0.00  0.00    +0.000 C 
ATOM     31  O   UNL     1       2.398  -7.359   0.000  0.00  0.00    +0.000 OA
ATOM     32  N   UNL     1       1.996  -5.988   0.000  0.00  0.00    +0.000 N 
ATOM     33  C   UNL     1       2.806  -6.144   0.000  0.00  0.00    +0.000 C 
ATOM     34  C   UNL     1       3.346  -5.520   0.000  0.00  0.00    +0.000 C 
ATOM     35  O   UNL     1       4.156  -5.676   0.000  0.00  0.00    +0.000 OA
ATOM     36  N   UNL     1       3.076  -4.741   0.000  0.00  0.00    +0.000 N 
ATOM     37  C   UNL     1       3.842  -4.434   0.000  0.00  0.00    +0.000 C 
ATOM     38  C   UNL     1       3.959  -3.617   0.000  0.00  0.00    +0.000 C 
ATOM     39  O   UNL     1       4.725  -3.311   0.000  0.00  0.00    +0.000 OA
ATOM     40  N   UNL     1       3.311  -3.107   0.000  0.00  0.00    +0.000 N 
ATOM     41  C   UNL     1       3.790  -2.435   0.000  0.00  0.00    +0.000 C 
ATOM     42  C   UNL     1       3.447  -1.685   0.000  0.00  0.00    +0.000 C 
ATOM     43  O   UNL     1       3.925  -1.013   0.000  0.00  0.00    +0.000 OA
ATOM     44  N   UNL     1       2.626  -1.607   0.000  0.00  0.00    +0.000 NA
ATOM     45  C   UNL     1       2.494  -3.225   0.000  0.00  0.00    +0.000 C 
ATOM     46  C   UNL     1       2.326  -4.398   0.000  0.00  0.00    +0.000 C 
ATOM     47  C   UNL     1       1.550  -5.294   0.000  0.00  0.00    +0.000 C 
ATOM     48  C   UNL     1       0.412  -5.628   0.000  0.00  0.00    +0.000 C 
ATOM     49  C   UNL     1      -1.573  -7.359   0.000  0.00  0.00    +0.000 C 
ATOM     50  C   UNL     1      -3.331  -5.676   0.000  0.00  0.00    +0.000 C 
ATOM     51  C   UNL     1      -1.669  -3.225   0.000  0.00  0.00    +0.000 C 
ATOM     52  C   UNL     1      -0.180  -1.506   0.000  0.00  0.00    +0.000 C 
ATOM     53  C   UNL     1       1.005  -1.506   0.000  0.00  0.00    +0.000 C 
ENDROOT
BRANCH  13  54
ATOM     54  C   UNL     1      -3.100  -1.013   0.000  0.00  0.00    +0.000 C 
ATOM     55  C   UNL     1      -3.922  -1.091   0.000  0.00  0.00    +0.000 C 
ATOM     56  C   UNL     1      -3.006  -0.193   0.000  0.00  0.00    +0.000 C 
ENDBRANCH  13  54
BRANCH  37  57
ATOM     57  C   UNL     1       4.491  -4.944   0.000  0.00  0.00    +0.000 C 
ATOM     58  C   UNL     1       5.256  -4.637   0.000  0.00  0.00    +0.000 C 
ATOM     59  C   UNL     1       4.631  -5.757   0.000  0.00  0.00    +0.000 C 
ENDBRANCH  37  57
BRANCH   1  61
ATOM     60  C   UNL     1       3.437   0.420   0.000  0.00  0.00    +0.000 C 
ATOM     61  C   UNL     1       3.398  -0.404   0.000  0.00  0.00    +0.000 C 
ENDBRANCH   1  61
BRANCH   9  62
ATOM     62  C   UNL     1      -1.185   0.488   0.000  0.00  0.00    +0.000 C 
ATOM     63  C   UNL     1      -0.663   1.126   0.000  0.00  0.00    +0.000 C 
BRANCH  62  64
ATOM     64  C   UNL     1      -1.918   0.866   0.000  0.00  0.00    +0.000 C 
ATOM     65  C   UNL     1      -1.958   1.690   0.000  0.00  0.00    +0.000 C 
ENDBRANCH  62  64
ENDBRANCH   9  62
BRANCH  41  66
ATOM     66  C   UNL     1       4.611  -2.514   0.000  0.00  0.00    +0.000 C 
ATOM     67  O   UNL     1       5.169  -3.122   0.000  0.00  0.00    +0.000 OA
BRANCH  66  68
ATOM     68  C   UNL     1       5.089  -1.842   0.000  0.00  0.00    +0.000 C 
ATOM     69  C   UNL     1       5.911  -1.920   0.000  0.00  0.00    +0.000 C 
BRANCH  68  70
ATOM     70  C   UNL     1       4.747  -1.091   0.000  0.00  0.00    +0.000 C 
BRANCH  70  71
ATOM     71  C   UNL     1       5.225  -0.419   0.000  0.00  0.00    +0.000 C 
ATOM     72  C   UNL     1       6.046  -0.498   0.000  0.00  0.00    +0.000 C 
ATOM     73  C   UNL     1       6.525   0.174   0.000  0.00  0.00    +0.000 C 
ENDBRANCH  70  71
ENDBRANCH  68  70
ENDBRANCH  66  68
ENDBRANCH  41  66
BRANCH  17  74
ATOM     74  C   UNL     1      -3.900  -3.311   0.000  0.00  0.00    +0.000 C 
BRANCH  74  75
ATOM     75  C   UNL     1      -4.549  -3.821   0.000  0.00  0.00    +0.000 C 
ATOM     76  C   UNL     1      -4.431  -4.637   0.000  0.00  0.00    +0.000 C 
ATOM     77  C   UNL     1      -5.315  -3.514   0.000  0.00  0.00    +0.000 C 
ENDBRANCH  74  75
ENDBRANCH  17  74
BRANCH  29  78
ATOM     78  C   UNL     1       0.815  -7.824   0.000  0.00  0.00    +0.000 C 
BRANCH  78  79
ATOM     79  C   UNL     1       1.412  -8.393   0.000  0.00  0.00    +0.000 C 
ATOM     80  C   UNL     1       2.204  -8.160   0.000  0.00  0.00    +0.000 C 
ATOM     81  C   UNL     1       1.218  -9.195   0.000  0.00  0.00    +0.000 C 
ENDBRANCH  78  79
ENDBRANCH  29  78
BRANCH  33  82
ATOM     82  C   UNL     1       3.076  -6.923   0.000  0.00  0.00    +0.000 C 
BRANCH  82  83
ATOM     83  C   UNL     1       3.886  -7.080   0.000  0.00  0.00    +0.000 C 
ATOM     84  C   UNL     1       4.426  -6.456   0.000  0.00  0.00    +0.000 C 
ATOM     85  C   UNL     1       4.155  -7.859   0.000  0.00  0.00    +0.000 C 
ENDBRANCH  82  83
ENDBRANCH  33  82
TORSDOF 15
