REMARK  Name = 
REMARK  2 active torsions:
REMARK  status: ('A' for Active; 'I' for Inactive)
REMARK    1  A    between atoms: C_9  and  C_10
REMARK    2  A    between atoms: C_9  and  C_12
REMARK                            x       y       z     vdW  Elec       q    Type
REMARK                         _______ _______ _______ _____ _____    ______ ____
ROOT
ATOM      1  C   UNL     1      -2.104   0.990   0.000  0.00  0.00    +0.000 A 
ATOM      2  C   UNL     1      -2.104   0.165   0.000  0.00  0.00    +0.000 A 
ATOM      3  C   UNL     1      -1.361  -0.247   0.000  0.00  0.00    +0.000 A 
ATOM      4  C   UNL     1      -0.660   0.165   0.000  0.00  0.00    +0.000 A 
ATOM      5  C   UNL     1      -0.660   0.990   0.000  0.00  0.00    +0.000 A 
ATOM      6  C   UNL     1      -1.361   1.403   0.000  0.00  0.00    +0.000 A 
ATOM      7  C   UNL     1       0.124  -0.083   0.000  0.00  0.00    +0.000 C 
ATOM      8  C   UNL     1       0.124   1.238   0.000  0.00  0.00    +0.000 C 
ATOM      9  C   UNL     1       0.619   0.578   0.000  0.00  0.00    +0.000 C 
ENDROOT
BRANCH   9  10
ATOM     10  C   UNL     1       1.031  -0.124   0.000  0.00  0.00    +0.000 A 
ATOM     11  C   UNL     1       1.856  -0.124   0.000  0.00  0.00    +0.000 A 
ATOM     12  N   UNL     1       0.784  -0.907   0.000  0.00  0.00    +0.000 NA
ATOM     13  C   UNL     1       1.444  -1.403   0.000  0.00  0.00    +0.000 A 
ATOM     14  N   UNL     1       2.104  -0.907   0.000  0.00  0.00    +0.000 NA
ENDBRANCH   9  10
BRANCH   9  16
ATOM     15  C   UNL     1       1.856   1.320   0.000  0.00  0.00    +0.000 C 
ATOM     16  C   UNL     1       1.031   1.320   0.000  0.00  0.00    +0.000 C 
ENDBRANCH   9  16
TORSDOF 2
