REMARK  Name = 
REMARK  4 active torsions:
REMARK  status: ('A' for Active; 'I' for Inactive)
REMARK    1  A    between atoms: C_3  and  N_4
REMARK    2  A    between atoms: N_4  and  C_5
REMARK    3  A    between atoms: C_5  and  C_6
REMARK    4  A    between atoms: C_6  and  N_7
REMARK                            x       y       z     vdW  Elec       q    Type
REMARK                         _______ _______ _______ _____ _____    ______ ____
ROOT
ATOM      1 CL   UNL     1      -1.429   0.000   0.000  0.00  0.00    +0.000 Cl
ATOM      2  C   UNL     1      -0.715  -0.412   0.000  0.00  0.00    +0.000 C 
ATOM      3  C   UNL     1      -0.715  -1.238   0.000  0.00  0.00    +0.000 C 
ATOM      4  C   UNL     1       0.000  -1.650   0.000  0.00  0.00    +0.000 C 
ATOM      5  O   UNL     1       0.000  -2.475   0.000  0.00  0.00    +0.000 OA
ATOM      6  C   UNL     1       0.715  -1.238   0.000  0.00  0.00    +0.000 A 
ATOM      7  C   UNL     1       0.715  -0.412   0.000  0.00  0.00    +0.000 A 
ATOM      8  C   UNL     1       1.429   0.000   0.000  0.00  0.00    +0.000 A 
ATOM      9  C   UNL     1       2.143  -0.412   0.000  0.00  0.00    +0.000 A 
ATOM     10  C   UNL     1       2.143  -1.238   0.000  0.00  0.00    +0.000 A 
ATOM     11  N   UNL     1       1.429  -1.650   0.000  0.00  0.00    +0.000 NA
ATOM     12  C   UNL     1       0.000   0.000   0.000  0.00  0.00    +0.000 C 
ATOM     13  O   UNL     1       0.000   0.825   0.000  0.00  0.00    +0.000 OA
ENDROOT
BRANCH   3  14
ATOM     14  N   UNL     1      -1.429  -1.650   0.000  0.00  0.00    +0.000 NA
BRANCH  14  15
ATOM     15  C   UNL     1      -1.429  -2.475   0.000  0.00  0.00    +0.000 C 
BRANCH  15  16
ATOM     16  C   UNL     1      -2.143  -2.888   0.000  0.00  0.00    +0.000 C 
BRANCH  16  17
ATOM     17  N   UNL     1      -2.143  -3.712   0.000  0.00  0.00    +0.000 NA
ATOM     18  C   UNL     1      -1.429  -4.125   0.000  0.00  0.00    +0.000 C 
ATOM     19  C   UNL     1      -1.429  -4.950   0.000  0.00  0.00    +0.000 C 
ATOM     20  O   UNL     1      -2.143  -5.362   0.000  0.00  0.00    +0.000 OA
ATOM     21  C   UNL     1      -2.858  -4.950   0.000  0.00  0.00    +0.000 C 
ATOM     22  C   UNL     1      -2.858  -4.125   0.000  0.00  0.00    +0.000 C 
ENDBRANCH  16  17
ENDBRANCH  15  16
ENDBRANCH  14  15
ENDBRANCH   3  14
TORSDOF 4
