REMARK  Name = 
REMARK  6 active torsions:
REMARK  status: ('A' for Active; 'I' for Inactive)
REMARK    1  A    between atoms: C_2  and  C_4
REMARK    2  A    between atoms: C_4  and  C_5
REMARK    3  A    between atoms: C_5  and  C_6
REMARK    4  A    between atoms: C_10  and  C_12
REMARK    5  A    between atoms: C_12  and  C_13
REMARK    6  A    between atoms: C_13  and  C_14
REMARK                            x       y       z     vdW  Elec       q    Type
REMARK                         _______ _______ _______ _____ _____    ______ ____
ROOT
ATOM      1  C   UNL     1      -0.635  -0.275   0.000  0.00  0.00    +0.000 C 
ENDROOT
BRANCH   1   3
ATOM      2  C   UNL     1      -2.064  -0.275   0.000  0.00  0.00    +0.000 C 
ATOM      3  C   UNL     1      -1.350   0.138   0.000  0.00  0.00    +0.000 C 
ATOM      4  O   UNL     1      -1.350   0.963   0.000  0.00  0.00    +0.000 OA
ENDBRANCH   1   3
BRANCH   1   5
ATOM      5  C   UNL     1       0.079   0.138   0.000  0.00  0.00    +0.000 C 
BRANCH   5   6
ATOM      6  C   UNL     1       0.794  -0.275   0.000  0.00  0.00    +0.000 C 
ATOM      7  O   UNL     1       0.794  -1.100   0.000  0.00  0.00    +0.000 OA
ATOM      8  O   UNL     1       1.508   0.138   0.000  0.00  0.00    +0.000 OA
ENDBRANCH   5   6
ENDBRANCH   1   5
TORSDOF 3
REMARK  Name = 
REMARK  6 active torsions:
REMARK  status: ('A' for Active; 'I' for Inactive)
REMARK    1  A    between atoms: C_2  and  C_4
REMARK    2  A    between atoms: C_4  and  C_5
REMARK    3  A    between atoms: C_5  and  C_6
REMARK    4  A    between atoms: C_10  and  C_12
REMARK    5  A    between atoms: C_12  and  C_13
REMARK    6  A    between atoms: C_13  and  C_14
REMARK                            x       y       z     vdW  Elec       q    Type
REMARK                         _______ _______ _______ _____ _____    ______ ____
ROOT
ATOM      1  C   UNL     1       6.009  -0.206   0.000  0.00  0.00    +0.000 C 
ENDROOT
BRANCH   1   3
ATOM      2  C   UNL     1       4.580  -0.206   0.000  0.00  0.00    +0.000 C 
ATOM      3  C   UNL     1       5.294   0.206   0.000  0.00  0.00    +0.000 C 
ATOM      4  O   UNL     1       5.294   1.031   0.000  0.00  0.00    +0.000 OA
ENDBRANCH   1   3
BRANCH   1   5
ATOM      5  C   UNL     1       6.723   0.206   0.000  0.00  0.00    +0.000 C 
BRANCH   5   6
ATOM      6  C   UNL     1       7.438  -0.206   0.000  0.00  0.00    +0.000 C 
ATOM      7  O   UNL     1       8.152   0.206   0.000  0.00  0.00    +0.000 OA
ATOM      8  O   UNL     1       7.438  -1.031   0.000  0.00  0.00    +0.000 OA
ENDBRANCH   5   6
ENDBRANCH   1   5
TORSDOF 3
REMARK  Name = 
REMARK  6 active torsions:
REMARK  status: ('A' for Active; 'I' for Inactive)
REMARK    1  A    between atoms: C_2  and  C_4
REMARK    2  A    between atoms: C_4  and  C_5
REMARK    3  A    between atoms: C_5  and  C_6
REMARK    4  A    between atoms: C_10  and  C_12
REMARK    5  A    between atoms: C_12  and  C_13
REMARK    6  A    between atoms: C_13  and  C_14
REMARK                            x       y       z     vdW  Elec       q    Type
REMARK                         _______ _______ _______ _____ _____    ______ ____
ROOT
ATOM      1 CA   UNL     1       2.223   0.550   0.000  0.00  0.00    +0.000 Ca
ENDROOT
TORSDOF 0
