REMARK  Name = 
REMARK  8 active torsions:
REMARK  status: ('A' for Active; 'I' for Inactive)
REMARK    1  A    between atoms: C_2  and  O_5
REMARK    2  A    between atoms: O_5  and  C_6
REMARK    3  A    between atoms: N_8  and  C_9
REMARK    4  A    between atoms: C_19  and  C_43
REMARK    5  A    between atoms: C_25  and  O_30
REMARK    6  A    between atoms: O_30  and  C_31
REMARK    7  A    between atoms: N_45  and  S_46
REMARK    8  A    between atoms: S_46  and  C_49
REMARK                            x       y       z     vdW  Elec       q    Type
REMARK                         _______ _______ _______ _____ _____    ______ ____
ROOT
ATOM      1  C   UNL     1       1.371  -5.955   0.000  0.00  0.00    +0.000 C 
ATOM      2  C   UNL     1       1.984  -6.507   0.000  0.00  0.00    +0.000 C 
ATOM      3  C   UNL     1       2.319  -7.261   0.000  0.00  0.00    +0.000 C 
ATOM      4  C   UNL     1       2.319  -8.086   0.000  0.00  0.00    +0.000 C 
ATOM      5  C   UNL     1       1.984  -8.840   0.000  0.00  0.00    +0.000 C 
ATOM      6  C   UNL     1       1.371  -9.392   0.000  0.00  0.00    +0.000 C 
ATOM      7  C   UNL     1       0.586  -9.647   0.000  0.00  0.00    +0.000 C 
ATOM      8  C   UNL     1      -0.235  -9.560   0.000  0.00  0.00    +0.000 C 
ATOM      9  C   UNL     1      -0.949  -9.148   0.000  0.00  0.00    +0.000 C 
ATOM     10  C   UNL     1      -1.770  -9.234   0.000  0.00  0.00    +0.000 C 
ATOM     11  C   UNL     1      -1.434  -8.481   0.000  0.00  0.00    +0.000 C 
ATOM     12  N   UNL     1      -1.605  -7.674   0.000  0.00  0.00    +0.000 NA
ATOM     13  C   UNL     1      -1.434  -6.867   0.000  0.00  0.00    +0.000 C 
ATOM     14  O   UNL     1      -2.188  -6.531   0.000  0.00  0.00    +0.000 OA
ATOM     15  C   UNL     1      -0.949  -6.199   0.000  0.00  0.00    +0.000 C 
ATOM     16  C   UNL     1      -1.562  -5.647   0.000  0.00  0.00    +0.000 C 
ATOM     17  C   UNL     1      -1.227  -4.894   0.000  0.00  0.00    +0.000 C 
ATOM     18  C   UNL     1      -0.406  -4.980   0.000  0.00  0.00    +0.000 C 
ATOM     19  N   UNL     1      -0.235  -5.787   0.000  0.00  0.00    +0.000 N 
ATOM     20  C   UNL     1       0.586  -5.700   0.000  0.00  0.00    +0.000 C 
ATOM     21  O   UNL     1       0.672  -4.880   0.000  0.00  0.00    +0.000 OA
ENDROOT
BRANCH   1  24
ATOM     22  C   UNL     1       2.608  -5.241   0.000  0.00  0.00    +0.000 C 
ATOM     23  O   UNL     1       3.021  -4.526   0.000  0.00  0.00    +0.000 OA
ATOM     24  N   UNL     1       1.783  -5.241   0.000  0.00  0.00    +0.000 NA
BRANCH  22  25
ATOM     25  O   UNL     1       3.021  -5.955   0.000  0.00  0.00    +0.000 OA
BRANCH  25  27
ATOM     26  C   UNL     1       4.670  -5.955   0.000  0.00  0.00    +0.000 C 
ATOM     27  C   UNL     1       3.845  -5.955   0.000  0.00  0.00    +0.000 C 
ATOM     28  C   UNL     1       3.845  -6.780   0.000  0.00  0.00    +0.000 C 
ATOM     29  C   UNL     1       3.845  -5.130   0.000  0.00  0.00    +0.000 C 
ENDBRANCH  25  27
ENDBRANCH  22  25
ENDBRANCH   1  24
BRANCH  11  30
ATOM     30  C   UNL     1      -2.254  -8.394   0.000  0.00  0.00    +0.000 C 
ATOM     31  O   UNL     1      -2.590  -7.641   0.000  0.00  0.00    +0.000 OA
ATOM     32  N   UNL     1      -2.739  -9.062   0.000  0.00  0.00    +0.000 NA
BRANCH  32  33
ATOM     33  S   UNL     1      -3.560  -8.976   0.000  0.00  0.00    +0.000 S 
ATOM     34  O   UNL     1      -3.474  -8.155   0.000  0.00  0.00    +0.000 OA
ATOM     35  O   UNL     1      -3.646  -9.796   0.000  0.00  0.00    +0.000 OA
BRANCH  33  36
ATOM     36  C   UNL     1      -4.380  -8.889   0.000  0.00  0.00    +0.000 C 
ATOM     37  C   UNL     1      -5.134  -9.225   0.000  0.00  0.00    +0.000 C 
ATOM     38  C   UNL     1      -5.048  -8.404   0.000  0.00  0.00    +0.000 C 
ENDBRANCH  33  36
ENDBRANCH  32  33
ENDBRANCH  11  30
BRANCH  17  39
ATOM     39  O   UNL     1      -1.639  -4.179   0.000  0.00  0.00    +0.000 OA
BRANCH  39  40
ATOM     40  C   UNL     1      -1.227  -3.465   0.000  0.00  0.00    +0.000 C 
ATOM     41  O   UNL     1      -1.639  -2.750   0.000  0.00  0.00    +0.000 OA
ATOM     42  N   UNL     1      -0.402  -3.465   0.000  0.00  0.00    +0.000 N 
ATOM     43  C   UNL     1       0.083  -4.132   0.000  0.00  0.00    +0.000 C 
ATOM     44  C   UNL     1       0.868  -3.877   0.000  0.00  0.00    +0.000 A 
ATOM     45  C   UNL     1       1.583  -4.290   0.000  0.00  0.00    +0.000 A 
ATOM     46  C   UNL     1       2.297  -3.877   0.000  0.00  0.00    +0.000 A 
ATOM     47  C   UNL     1       2.297  -3.052   0.000  0.00  0.00    +0.000 A 
ATOM     48  C   UNL     1       1.583  -2.639   0.000  0.00  0.00    +0.000 A 
ATOM     49  C   UNL     1       0.868  -3.052   0.000  0.00  0.00    +0.000 A 
ATOM     50  C   UNL     1       0.083  -2.797   0.000  0.00  0.00    +0.000 C 
ATOM     51  F   UNL     1       1.583  -1.815   0.000  0.00  0.00    +0.000 F 
ENDBRANCH  39  40
ENDBRANCH  17  39
TORSDOF 8
