REMARK  Name = 
REMARK  7 active torsions:
REMARK  status: ('A' for Active; 'I' for Inactive)
REMARK    1  A    between atoms: C_1  and  O_21
REMARK    2  A    between atoms: O_21  and  C_22
REMARK    3  A    between atoms: C_22  and  C_23
REMARK    4  A    between atoms: C_23  and  C_24
REMARK    5  A    between atoms: C_24  and  C_25
REMARK    6  A    between atoms: C_25  and  C_26
REMARK    7  A    between atoms: C_26  and  C_27
REMARK                            x       y       z     vdW  Elec       q    Type
REMARK                         _______ _______ _______ _____ _____    ______ ____
ROOT
ATOM      1  C   UNL     1      -0.279  -1.345   0.000  0.00  0.00    +0.000 C 
ATOM      2  C   UNL     1      -0.279  -0.519   0.000  0.00  0.00    +0.000 C 
ATOM      3  C   UNL     1       0.436  -0.109   0.000  0.00  0.00    +0.000 C 
ATOM      4  C   UNL     1       0.436  -1.759   0.000  0.00  0.00    +0.000 C 
ATOM      5  C   UNL     1       1.151  -1.345   0.000  0.00  0.00    +0.000 C 
ATOM      6  C   UNL     1       1.866  -1.759   0.000  0.00  0.00    +0.000 C 
ATOM      7  C   UNL     1       2.581  -1.345   0.000  0.00  0.00    +0.000 C 
ATOM      8  C   UNL     1       2.581  -0.519   0.000  0.00  0.00    +0.000 C 
ATOM      9  C   UNL     1       3.296  -0.109   0.000  0.00  0.00    +0.000 C 
ATOM     10  C   UNL     1       4.079  -0.361   0.000  0.00  0.00    +0.000 C 
ATOM     11  C   UNL     1       4.565   0.305   0.000  0.00  0.00    +0.000 C 
ATOM     12  C   UNL     1       4.079   0.972   0.000  0.00  0.00    +0.000 C 
ATOM     13  C   UNL     1       3.296   0.716   0.000  0.00  0.00    +0.000 C 
ATOM     14  C   UNL     1       3.296   1.541   0.000  0.00  0.00    +0.000 C 
ATOM     15  C   UNL     1       2.581   1.131   0.000  0.00  0.00    +0.000 C 
ATOM     16  C   UNL     1       1.866   0.716   0.000  0.00  0.00    +0.000 C 
ATOM     17  C   UNL     1       1.866  -0.109   0.000  0.00  0.00    +0.000 C 
ATOM     18  C   UNL     1       1.151  -0.519   0.000  0.00  0.00    +0.000 C 
ATOM     19  C   UNL     1       1.151   0.305   0.000  0.00  0.00    +0.000 C 
ATOM     20  O   UNL     1       4.335   1.759   0.000  0.00  0.00    +0.000 OA
ENDROOT
BRANCH   1  21
ATOM     21  O   UNL     1      -0.990  -1.759   0.000  0.00  0.00    +0.000 OA
BRANCH  21  22
ATOM     22  C   UNL     1      -1.705  -1.345   0.000  0.00  0.00    +0.000 C 
ATOM     23  O   UNL     1      -1.705  -0.519   0.000  0.00  0.00    +0.000 OA
BRANCH  22  24
ATOM     24  C   UNL     1      -2.420  -1.759   0.000  0.00  0.00    +0.000 C 
BRANCH  24  25
ATOM     25  C   UNL     1      -3.135  -1.345   0.000  0.00  0.00    +0.000 C 
BRANCH  25  26
ATOM     26  C   UNL     1      -3.135  -0.519   0.000  0.00  0.00    +0.000 C 
BRANCH  26  27
ATOM     27  C   UNL     1      -3.850  -0.109   0.000  0.00  0.00    +0.000 C 
BRANCH  27  28
ATOM     28  C   UNL     1      -3.850   0.716   0.000  0.00  0.00    +0.000 C 
ATOM     29  C   UNL     1      -4.565   1.131   0.000  0.00  0.00    +0.000 C 
ENDBRANCH  27  28
ENDBRANCH  26  27
ENDBRANCH  25  26
ENDBRANCH  24  25
ENDBRANCH  22  24
ENDBRANCH  21  22
ENDBRANCH   1  21
TORSDOF 7
