REMARK  Name = 
REMARK  1 active torsions:
REMARK  status: ('A' for Active; 'I' for Inactive)
REMARK    1  A    between atoms: C_3  and  C_5
REMARK                            x       y       z     vdW  Elec       q    Type
REMARK                         _______ _______ _______ _____ _____    ______ ____
ROOT
ATOM      1  S   UNL     1      -1.027  -1.389   0.000  0.00  0.00    +0.000 S 
ATOM      2  N   UNL     1      -0.309  -0.982   0.000  0.00  0.00    +0.000 N 
ATOM      3  C   UNL     1      -0.309  -0.168   0.000  0.00  0.00    +0.000 C 
ATOM      4  C   UNL     1      -1.027   0.238   0.000  0.00  0.00    +0.000 C 
ATOM      5  C   UNL     1      -1.720  -0.982   0.000  0.00  0.00    +0.000 A 
ATOM      6  C   UNL     1      -1.720  -0.168   0.000  0.00  0.00    +0.000 A 
ATOM      7  O   UNL     1      -1.027   1.076   0.000  0.00  0.00    +0.000 OA
ATOM      8  C   UNL     1       0.433  -1.412   0.000  0.00  0.00    +0.000 C 
ATOM      9  C   UNL     1      -2.438   0.238   0.000  0.00  0.00    +0.000 A 
ATOM     10  C   UNL     1      -2.438  -1.389   0.000  0.00  0.00    +0.000 A 
ATOM     11  C   UNL     1      -3.156  -0.168   0.000  0.00  0.00    +0.000 A 
ATOM     12  C   UNL     1      -3.156  -0.982   0.000  0.00  0.00    +0.000 A 
ATOM     13  O   UNL     1      -0.617  -2.111   0.000  0.00  0.00    +0.000 OA
ATOM     14  O   UNL     1      -1.447  -2.111   0.000  0.00  0.00    +0.000 OA
ENDROOT
BRANCH   3  15
ATOM     15  C   UNL     1       0.433   0.262   0.000  0.00  0.00    +0.000 C 
ATOM     16  C   UNL     1       1.877   0.235   0.000  0.00  0.00    +0.000 A 
ATOM     17  N   UNL     1       1.151  -0.168   0.000  0.00  0.00    +0.000 NA
ATOM     18  N   UNL     1       2.667  -0.022   0.000  0.00  0.00    +0.000 NA
ATOM     19  C   UNL     1       1.878   1.066   0.000  0.00  0.00    +0.000 A 
ATOM     20  O   UNL     1       3.156   0.649   0.000  0.00  0.00    +0.000 OA
ATOM     21  C   UNL     1       2.668   1.321   0.000  0.00  0.00    +0.000 A 
ATOM     22  O   UNL     1       0.433   1.076   0.000  0.00  0.00    +0.000 OA
ATOM     23  C   UNL     1       2.926   2.111   0.000  0.00  0.00    +0.000 C 
ENDBRANCH   3  15
TORSDOF 1
