REMARK  Name = 
REMARK  2 active torsions:
REMARK  status: ('A' for Active; 'I' for Inactive)
REMARK    1  A    between atoms: C_3  and  C_4
REMARK    2  A    between atoms: C_9  and  C_10
REMARK                            x       y       z     vdW  Elec       q    Type
REMARK                         _______ _______ _______ _____ _____    ______ ____
ROOT
ATOM      1 MG   UNL     1      -0.271   2.201   0.000  0.00  0.00    +0.000 Mg
ENDROOT
TORSDOF 0
REMARK  Name = 
REMARK  2 active torsions:
REMARK  status: ('A' for Active; 'I' for Inactive)
REMARK    1  A    between atoms: C_3  and  C_4
REMARK    2  A    between atoms: C_9  and  C_10
REMARK                            x       y       z     vdW  Elec       q    Type
REMARK                         _______ _______ _______ _____ _____    ______ ____
ROOT
ATOM      1  O   UNL     1       0.385   1.058   0.000  0.00  0.00    +0.000 OA
ATOM      2  C   UNL     1       0.385   0.290   0.000  0.00  0.00    +0.000 C 
ATOM      3  C   UNL     1      -0.279  -0.096   0.000  0.00  0.00    +0.000 C 
ENDROOT
BRANCH   2   4
ATOM      4  C   UNL     1       1.001  -0.259   0.000  0.00  0.00    +0.000 C 
ATOM      5  O   UNL     1       0.792  -1.058   0.000  0.00  0.00    +0.000 OA
ATOM      6  O   UNL     1       1.787   0.000   0.000  0.00  0.00    +0.000 OA
ENDBRANCH   2   4
TORSDOF 1
REMARK  Name = 
REMARK  2 active torsions:
REMARK  status: ('A' for Active; 'I' for Inactive)
REMARK    1  A    between atoms: C_3  and  C_4
REMARK    2  A    between atoms: C_9  and  C_10
REMARK                            x       y       z     vdW  Elec       q    Type
REMARK                         _______ _______ _______ _____ _____    ______ ____
ROOT
ATOM      1  O   UNL     1       1.984   3.113   0.000  0.00  0.00    +0.000 OA
ATOM      2  C   UNL     1       1.984   2.346   0.000  0.00  0.00    +0.000 C 
ATOM      3  C   UNL     1       1.320   1.960   0.000  0.00  0.00    +0.000 C 
ENDROOT
BRANCH   2   4
ATOM      4  C   UNL     1       2.600   1.797   0.000  0.00  0.00    +0.000 C 
ATOM      5  O   UNL     1       2.391   0.998   0.000  0.00  0.00    +0.000 OA
ATOM      6  O   UNL     1       3.386   2.056   0.000  0.00  0.00    +0.000 OA
ENDBRANCH   2   4
TORSDOF 1
