REMARK  Name = 
REMARK  7 active torsions:
REMARK  status: ('A' for Active; 'I' for Inactive)
REMARK    1  A    between atoms: C_1  and  C_2
REMARK    2  A    between atoms: C_2  and  C_4
REMARK    3  A    between atoms: C_4  and  C_5
REMARK    4  A    between atoms: C_5  and  S_6
REMARK    5  A    between atoms: S_6  and  C_7
REMARK    6  A    between atoms: C_7  and  C_8
REMARK    7  A    between atoms: C_8  and  N_9
REMARK                            x       y       z     vdW  Elec       q    Type
REMARK                         _______ _______ _______ _____ _____    ______ ____
ROOT
ATOM      1  C   UNK     1       0.715  -0.206   0.000  0.00  0.00    +0.000 C 
ENDROOT
BRANCH   1   2
ATOM      2  C   UNK     1       1.430   0.206   0.000  0.00  0.00    +0.000 C 
BRANCH   2   3
ATOM      3  C   UNK     1       2.145  -0.206   0.000  0.00  0.00    +0.000 C 
ATOM      4  N   UNK     1       2.145  -1.030   0.000  0.00  0.00    +0.000 NA
BRANCH   3   5
ATOM      5  C   UNK     1       2.860   0.206   0.000  0.00  0.00    +0.000 C 
ATOM      6  O   UNK     1       2.860   1.030   0.000  0.00  0.00    +0.000 OA
ATOM      7  O   UNK     1       3.570  -0.206   0.000  0.00  0.00    +0.000 OA
ENDBRANCH   3   5
ENDBRANCH   2   3
ENDBRANCH   1   2
BRANCH   1   8
ATOM      8  S   UNK     1       0.000   0.206   0.000  0.00  0.00    +0.000 S 
BRANCH   8   9
ATOM      9  C   UNK     1      -0.715  -0.206   0.000  0.00  0.00    +0.000 C 
BRANCH   9  10
ATOM     10  C   UNK     1      -1.430   0.206   0.000  0.00  0.00    +0.000 C 
BRANCH  10  11
ATOM     11  N   UNK     1      -2.145  -0.206   0.000  0.00  0.00    +0.000 NA
ATOM     12  C   UNK     1      -2.855   0.206   0.000  0.00  0.00    +0.000 C 
ATOM     13  C   UNK     1      -3.570  -0.206   0.000  0.00  0.00    +0.000 C 
ATOM     14  N   UNK     1      -2.855   1.030   0.000  0.00  0.00    +0.000 NA
ENDBRANCH  10  11
ENDBRANCH   9  10
ENDBRANCH   8   9
ENDBRANCH   1   8
TORSDOF 7
