REMARK  Name = 
REMARK  2 active torsions:
REMARK  status: ('A' for Active; 'I' for Inactive)
REMARK    1  A    between atoms: C_7  and  C_16
REMARK    2  A    between atoms: C_11  and  O_22
REMARK                            x       y       z     vdW  Elec       q    Type
REMARK                         _______ _______ _______ _____ _____    ______ ____
ROOT
ATOM      1  C   UNL     1      -2.501  -1.238   0.000  0.00  0.00    +0.000 A 
ATOM      2  C   UNL     1      -1.786   0.000   0.000  0.00  0.00    +0.000 A 
ATOM      3  C   UNL     1      -2.501  -0.412   0.000  0.00  0.00    +0.000 A 
ATOM      4  C   UNL     1      -1.786  -1.650   0.000  0.00  0.00    +0.000 A 
ATOM      5  C   UNL     1      -1.072  -0.412   0.000  0.00  0.00    +0.000 A 
ATOM      6  C   UNL     1      -1.072  -1.238   0.000  0.00  0.00    +0.000 A 
ATOM      7  C   UNL     1      -0.357  -1.650   0.000  0.00  0.00    +0.000 A 
ATOM      8  C   UNL     1       0.357  -1.238   0.000  0.00  0.00    +0.000 A 
ATOM      9  C   UNL     1       0.357  -0.412   0.000  0.00  0.00    +0.000 A 
ATOM     10  O   UNL     1      -3.215   0.000   0.000  0.00  0.00    +0.000 OA
ATOM     11  O   UNL     1      -1.786  -2.475   0.000  0.00  0.00    +0.000 OA
ATOM     12  O   UNL     1      -0.357  -2.475   0.000  0.00  0.00    +0.000 OA
ATOM     13  O   UNL     1       1.072  -1.650   0.000  0.00  0.00    +0.000 OA
ATOM     14  O   UNL     1      -0.357   0.000   0.000  0.00  0.00    +0.000 OA
ENDROOT
BRANCH   9  18
ATOM     15  C   UNL     1       1.786  -0.412   0.000  0.00  0.00    +0.000 A 
ATOM     16  C   UNL     1       2.501   0.000   0.000  0.00  0.00    +0.000 A 
ATOM     17  C   UNL     1       1.072   0.825   0.000  0.00  0.00    +0.000 A 
ATOM     18  C   UNL     1       1.072   0.000   0.000  0.00  0.00    +0.000 A 
ATOM     19  C   UNL     1       2.501   0.825   0.000  0.00  0.00    +0.000 A 
ATOM     20  C   UNL     1       1.786   1.238   0.000  0.00  0.00    +0.000 A 
ATOM     21  O   UNL     1       3.215   1.238   0.000  0.00  0.00    +0.000 OA
BRANCH  20  23
ATOM     22  C   UNL     1       2.501   2.475   0.000  0.00  0.00    +0.000 C 
ATOM     23  O   UNL     1       1.786   2.062   0.000  0.00  0.00    +0.000 OA
ENDBRANCH  20  23
ENDBRANCH   9  18
TORSDOF 2
