REMARK  Name = 
REMARK  10 active torsions:
REMARK  status: ('A' for Active; 'I' for Inactive)
REMARK    1  A    between atoms: C_2  and  N_4
REMARK    2  A    between atoms: N_7  and  C_10
REMARK    3  A    between atoms: C_13  and  N_16
REMARK    4  A    between atoms: N_19  and  C_22
REMARK    5  A    between atoms: C_25  and  O_28
REMARK    6  A    between atoms: O_28  and  C_29
REMARK    7  A    between atoms: C_29  and  C_30
REMARK    8  A    between atoms: C_33  and  C_35
REMARK    9  A    between atoms: C_33  and  C_41
REMARK   10  A    between atoms: C_35  and  N_36
REMARK                            x       y       z     vdW  Elec       q    Type
REMARK                         _______ _______ _______ _____ _____    ______ ____
ROOT
ATOM      1  C   UNL     1       6.857 -12.272   0.000  0.00  0.00    +0.000 A 
ATOM      2  C   UNL     1       7.193 -13.026   0.000  0.00  0.00    +0.000 A 
ATOM      3  C   UNL     1       6.708 -13.693   0.000  0.00  0.00    +0.000 A 
ATOM      4  C   UNL     1       5.887 -13.607   0.000  0.00  0.00    +0.000 A 
ATOM      5  C   UNL     1       5.552 -12.853   0.000  0.00  0.00    +0.000 A 
ATOM      6  C   UNL     1       6.037 -12.186   0.000  0.00  0.00    +0.000 A 
ENDROOT
BRANCH   1  10
ATOM      7  N   UNL     1       8.312 -10.270   0.000  0.00  0.00    +0.000 N 
ATOM      8  C   UNL     1       8.648 -11.024   0.000  0.00  0.00    +0.000 C 
ATOM      9  C   UNL     1       8.163 -11.691   0.000  0.00  0.00    +0.000 C 
ATOM     10  N   UNL     1       7.342 -11.605   0.000  0.00  0.00    +0.000 N 
ATOM     11  C   UNL     1       7.006 -10.851   0.000  0.00  0.00    +0.000 C 
ATOM     12  C   UNL     1       7.491 -10.184   0.000  0.00  0.00    +0.000 C 
BRANCH   7  16
ATOM     13  C   UNL     1       9.767  -8.268   0.000  0.00  0.00    +0.000 A 
ATOM     14  C   UNL     1      10.102  -9.021   0.000  0.00  0.00    +0.000 A 
ATOM     15  C   UNL     1       9.617  -9.689   0.000  0.00  0.00    +0.000 A 
ATOM     16  C   UNL     1       8.797  -9.602   0.000  0.00  0.00    +0.000 A 
ATOM     17  C   UNL     1       8.461  -8.849   0.000  0.00  0.00    +0.000 A 
ATOM     18  C   UNL     1       8.946  -8.181   0.000  0.00  0.00    +0.000 A 
BRANCH  13  22
ATOM     19  N   UNL     1      10.664  -6.330   0.000  0.00  0.00    +0.000 N 
ATOM     20  C   UNL     1      11.332  -6.815   0.000  0.00  0.00    +0.000 C 
ATOM     21  C   UNL     1      11.077  -7.600   0.000  0.00  0.00    +0.000 C 
ATOM     22  N   UNL     1      10.252  -7.600   0.000  0.00  0.00    +0.000 N 
ATOM     23  C   UNL     1       9.997  -6.815   0.000  0.00  0.00    +0.000 C 
ATOM     24  O   UNL     1       9.212  -6.561   0.000  0.00  0.00    +0.000 OA
BRANCH  19  26
ATOM     25  C   UNL     1      11.379  -5.093   0.000  0.00  0.00    +0.000 C 
ATOM     26  C   UNL     1      10.664  -5.505   0.000  0.00  0.00    +0.000 C 
ATOM     27  C   UNL     1       9.950  -5.093   0.000  0.00  0.00    +0.000 C 
ENDBRANCH  19  26
ENDBRANCH  13  22
ENDBRANCH   7  16
ENDBRANCH   1  10
BRANCH   4  28
ATOM     28  O   UNL     1       5.402 -14.274   0.000  0.00  0.00    +0.000 OA
BRANCH  28  29
ATOM     29  C   UNL     1       4.582 -14.188   0.000  0.00  0.00    +0.000 C 
BRANCH  29  30
ATOM     30  C   UNL     1       4.097 -14.856   0.000  0.00  0.00    +0.000 C 
ATOM     31  O   UNL     1       4.352 -15.640   0.000  0.00  0.00    +0.000 OA
ATOM     32  C   UNL     1       3.684 -16.125   0.000  0.00  0.00    +0.000 C 
ATOM     33  C   UNL     1       3.017 -15.640   0.000  0.00  0.00    +0.000 C 
ATOM     34  O   UNL     1       3.272 -14.856   0.000  0.00  0.00    +0.000 OA
BRANCH  33  35
ATOM     35  C   UNL     1       2.208 -15.477   0.000  0.00  0.00    +0.000 A 
ATOM     36  C   UNL     1       1.663 -16.096   0.000  0.00  0.00    +0.000 A 
ATOM     37  C   UNL     1       0.854 -15.933   0.000  0.00  0.00    +0.000 A 
ATOM     38  C   UNL     1       0.591 -15.151   0.000  0.00  0.00    +0.000 A 
ATOM     39  C   UNL     1       1.137 -14.532   0.000  0.00  0.00    +0.000 A 
ATOM     40  C   UNL     1       1.945 -14.695   0.000  0.00  0.00    +0.000 A 
ATOM     41  F   UNL     1       2.491 -14.076   0.000  0.00  0.00    +0.000 F 
ATOM     42  F   UNL     1      -0.218 -14.988   0.000  0.00  0.00    +0.000 F 
ENDBRANCH  33  35
BRANCH  33  43
ATOM     43  C   UNL     1       2.459 -16.247   0.000  0.00  0.00    +0.000 C 
BRANCH  43  44
ATOM     44  N   UNL     1       2.705 -17.035   0.000  0.00  0.00    +0.000 N 
ATOM     45  C   UNL     1       3.487 -17.298   0.000  0.00  0.00    +0.000 A 
ATOM     46  N   UNL     1       3.479 -18.123   0.000  0.00  0.00    +0.000 NA
ATOM     47  C   UNL     1       2.691 -18.370   0.000  0.00  0.00    +0.000 A 
ATOM     48  N   UNL     1       2.213 -17.697   0.000  0.00  0.00    +0.000 NA
ENDBRANCH  43  44
ENDBRANCH  33  43
ENDBRANCH  29  30
ENDBRANCH  28  29
ENDBRANCH   4  28
TORSDOF 10
