REMARK  Name = 
REMARK  6 active torsions:
REMARK  status: ('A' for Active; 'I' for Inactive)
REMARK    1  A    between atoms: C_2  and  C_3
REMARK    2  A    between atoms: C_3  and  C_4
REMARK    3  A    between atoms: C_6  and  C_14
REMARK    4  A    between atoms: C_7  and  C_9
REMARK    5  A    between atoms: C_9  and  C_10
REMARK    6  A    between atoms: C_10  and  C_11
REMARK                            x       y       z     vdW  Elec       q    Type
REMARK                         _______ _______ _______ _____ _____    ______ ____
ROOT
ATOM      1  C   UNL     1       0.568   1.114   0.000  0.00  0.00    +0.000 A 
ATOM      2  C   UNL     1       1.235   0.629   0.000  0.00  0.00    +0.000 A 
ATOM      3  C   UNL     1       0.980  -0.155   0.000  0.00  0.00    +0.000 A 
ATOM      4  C   UNL     1       0.155  -0.155   0.000  0.00  0.00    +0.000 A 
ATOM      5  O   UNL     1      -0.100   0.629   0.000  0.00  0.00    +0.000 OA
ATOM      6  C   UNL     1       2.020   0.884   0.000  0.00  0.00    +0.000 C 
ENDROOT
BRANCH   3   7
ATOM      7  C   UNL     1       1.465  -0.823   0.000  0.00  0.00    +0.000 C 
ATOM      8  O   UNL     1       1.130  -1.576   0.000  0.00  0.00    +0.000 OA
ATOM      9  O   UNL     1       2.286  -0.737   0.000  0.00  0.00    +0.000 OA
ENDBRANCH   3   7
BRANCH   1  10
ATOM     10  C   UNL     1       0.568   1.939   0.000  0.00  0.00    +0.000 C 
BRANCH  10  12
ATOM     11  C   UNL     1       1.282   3.177   0.000  0.00  0.00    +0.000 C 
ATOM     12  C   UNL     1       1.282   2.352   0.000  0.00  0.00    +0.000 C 
ENDBRANCH  10  12
ENDBRANCH   1  10
BRANCH   4  13
ATOM     13  C   UNL     1      -0.330  -0.823   0.000  0.00  0.00    +0.000 C 
BRANCH  13  14
ATOM     14  C   UNL     1       0.006  -1.576   0.000  0.00  0.00    +0.000 C 
BRANCH  14  15
ATOM     15  C   UNL     1      -0.479  -2.244   0.000  0.00  0.00    +0.000 C 
ATOM     16  O   UNL     1      -0.143  -2.998   0.000  0.00  0.00    +0.000 OA
ATOM     17  O   UNL     1      -1.300  -2.158   0.000  0.00  0.00    +0.000 OA
ENDBRANCH  14  15
ENDBRANCH  13  14
ENDBRANCH   4  13
TORSDOF 6
