REMARK  Name = 
REMARK  75 active torsions:
REMARK  status: ('A' for Active; 'I' for Inactive)
REMARK    1  A    between atoms: CG1_23  and  CB_55
REMARK    2  A    between atoms: CG_24  and  CB_27
REMARK    3  A    between atoms: CG_24  and  CD_32
REMARK    4  A    between atoms: CB_27  and  CA_60
REMARK    5  A    between atoms: CB_30  and  CG_31
REMARK    6  A    between atoms: CB_30  and  CA_61
REMARK    7  A    between atoms: CG_31  and  CD_77
REMARK    8  A    between atoms: CD_32  and  NE_111
REMARK    9  A    between atoms: CB_35  and  CG_47
REMARK   10  A    between atoms: CB_35  and  CA_62
REMARK   11  A    between atoms: CB_36  and  CG_48
REMARK   12  A    between atoms: CB_36  and  CA_63
REMARK   13  A    between atoms: CB_37  and  CG_49
REMARK   14  A    between atoms: CB_37  and  CA_64
REMARK   15  A    between atoms: CB_38  and  CG_50
REMARK   16  A    between atoms: CB_38  and  CA_65
REMARK   17  A    between atoms: CB_39  and  CG_51
REMARK   18  A    between atoms: CB_39  and  CA_66
REMARK   19  A    between atoms: CB_40  and  CA_67
REMARK   20  A    between atoms: CB_40  and  CG_73
REMARK   21  A    between atoms: CB_41  and  CA_68
REMARK   22  A    between atoms: CB_41  and  CG_78
REMARK   23  A    between atoms: CB_42  and  CA_69
REMARK   24  A    between atoms: CB_42  and  CG_79
REMARK   25  A    between atoms: CA_43  and  C_74
REMARK   26  A    between atoms: CA_43  and  N_112
REMARK   27  A    between atoms: CA_44  and  C_75
REMARK   28  A    between atoms: CA_44  and  N_114
REMARK   29  A    between atoms: CA_45  and  C_76
REMARK   30  A    between atoms: CA_45  and  N_113
REMARK   31  A    between atoms: CB_46  and  CA_70
REMARK   32  A    between atoms: CB_52  and  CA_80
REMARK   33  A    between atoms: CB_53  and  CA_81
REMARK   34  A    between atoms: CB_54  and  CA_82
REMARK   35  A    between atoms: CB_55  and  CA_83
REMARK   36  A    between atoms: CA_56  and  C_85
REMARK   37  A    between atoms: CA_56  and  N_115
REMARK   38  A    between atoms: CA_57  and  C_86
REMARK   39  A    between atoms: CA_57  and  N_116
REMARK   40  A    between atoms: CA_58  and  C_87
REMARK   41  A    between atoms: CA_58  and  N_117
REMARK   42  A    between atoms: CB_59  and  CA_84
REMARK   43  A    between atoms: CA_60  and  C_90
REMARK   44  A    between atoms: CA_60  and  N_118
REMARK   45  A    between atoms: CA_61  and  C_89
REMARK   46  A    between atoms: CA_61  and  N_119
REMARK   47  A    between atoms: CA_62  and  C_88
REMARK   48  A    between atoms: CA_62  and  N_126
REMARK   49  A    between atoms: CA_63  and  C_92
REMARK   50  A    between atoms: CA_63  and  N_121
REMARK   51  A    between atoms: CA_64  and  C_93
REMARK   52  A    between atoms: CA_64  and  N_120
REMARK   53  A    between atoms: CA_65  and  C_91
REMARK   54  A    between atoms: CA_65  and  N_123
REMARK   55  A    between atoms: CA_66  and  C_96
REMARK   56  A    between atoms: CA_66  and  N_124
REMARK   57  A    between atoms: CA_67  and  C_94
REMARK   58  A    between atoms: CA_67  and  N_122
REMARK   59  A    between atoms: CA_68  and  C_95
REMARK   60  A    between atoms: CA_68  and  N_125
REMARK   61  A    between atoms: CA_69  and  C_105
REMARK   62  A    between atoms: CA_69  and  N_127
REMARK   63  A    between atoms: CA_70  and  C_97
REMARK   64  A    between atoms: CA_70  and  N_128
REMARK   65  A    between atoms: CA_71  and  C_98
REMARK   66  A    between atoms: CA_72  and  C_99
REMARK   67  A    between atoms: CA_80  and  C_100
REMARK   68  A    between atoms: CA_81  and  C_101
REMARK   69  A    between atoms: CA_81  and  N_129
REMARK   70  A    between atoms: CA_82  and  C_102
REMARK   71  A    between atoms: CA_82  and  N_130
REMARK   72  A    between atoms: CA_83  and  C_103
REMARK   73  A    between atoms: CA_83  and  N_131
REMARK   74  A    between atoms: CA_84  and  C_104
REMARK   75  A    between atoms: CA_84  and  N_132
REMARK                            x       y       z     vdW  Elec       q    Type
REMARK                         _______ _______ _______ _____ _____    ______ ____
ROOT
ATOM      1  CG  PRO A  13      -8.960   5.538   0.000  0.00  0.00    +0.000 C 
ATOM      2  CB  PRO A  13      -8.548   4.824   0.000  0.00  0.00    +0.000 C 
ATOM      3  CD  PRO A  13      -8.408   6.151   0.000  0.00  0.00    +0.000 C 
ATOM      4  CA  PRO A  13      -7.741   4.995   0.000  0.00  0.00    +0.000 C 
ATOM      5  C   ILE A  12      -6.940   6.228   0.000  0.00  0.00    +0.000 C 
ATOM      6  N   PRO A  13      -7.655   5.816   0.000  0.00  0.00    +0.000 N 
ATOM      7  O   ILE A  12      -6.226   5.816   0.000  0.00  0.00    +0.000 OA
ENDROOT
BRANCH   4   8
ATOM      8  C   PRO A  13      -7.128   4.443   0.000  0.00  0.00    +0.000 C 
ATOM      9  N   ALA A  14      -7.299   3.636   0.000  0.00  0.00    +0.000 NA
ATOM     10  O   PRO A  13      -6.343   4.698   0.000  0.00  0.00    +0.000 OA
BRANCH   9  12
ATOM     11  CB  ALA A  14      -5.902   3.339   0.000  0.00  0.00    +0.000 C 
ATOM     12  CA  ALA A  14      -6.686   3.084   0.000  0.00  0.00    +0.000 C 
BRANCH  12  13
ATOM     13  C   ALA A  14      -6.858   2.277   0.000  0.00  0.00    +0.000 C 
ATOM     14  N   LEU A  15      -6.245   1.725   0.000  0.00  0.00    +0.000 NA
ATOM     15  O   ALA A  14      -7.642   2.532   0.000  0.00  0.00    +0.000 OA
BRANCH  14  16
ATOM     16  CA  LEU A  15      -6.416   0.918   0.000  0.00  0.00    +0.000 C 
BRANCH  16  17
ATOM     17  C   LEU A  15      -5.803   0.366   0.000  0.00  0.00    +0.000 C 
ATOM     18  N   ASP A  16      -5.019   0.621   0.000  0.00  0.00    +0.000 NA
ATOM     19  O   LEU A  15      -5.975  -0.441   0.000  0.00  0.00    +0.000 OA
BRANCH  18  20
ATOM     20  CA  ASP A  16      -4.405   0.069   0.000  0.00  0.00    +0.000 C 
BRANCH  20  21
ATOM     21  C   ASP A  16      -4.577  -0.738   0.000  0.00  0.00    +0.000 C 
ATOM     22  N   SER A  17      -3.964  -1.290   0.000  0.00  0.00    +0.000 NA
ATOM     23  O   ASP A  16      -5.362  -0.993   0.000  0.00  0.00    +0.000 OA
BRANCH  22  24
ATOM     24  CA  SER A  17      -4.135  -2.097   0.000  0.00  0.00    +0.000 C 
BRANCH  24  25
ATOM     25  C   SER A  17      -3.522  -2.649   0.000  0.00  0.00    +0.000 C 
ATOM     26  N   LEU A  18      -3.694  -3.456   0.000  0.00  0.00    +0.000 NA
ATOM     27  O   SER A  17      -2.738  -2.394   0.000  0.00  0.00    +0.000 OA
BRANCH  26  28
ATOM     28  CA  LEU A  18      -3.081  -4.008   0.000  0.00  0.00    +0.000 C 
BRANCH  28  29
ATOM     29  C   LEU A  18      -2.296  -3.753   0.000  0.00  0.00    +0.000 C 
ATOM     30  N   THR A  19      -1.683  -4.305   0.000  0.00  0.00    +0.000 NA
ATOM     31  O   LEU A  18      -2.124  -2.946   0.000  0.00  0.00    +0.000 OA
BRANCH  30  32
ATOM     32  CA  THR A  19      -0.898  -4.050   0.000  0.00  0.00    +0.000 C 
BRANCH  32  37
ATOM     33  CG  PRO A  20      -1.124  -6.565   0.000  0.00  0.00    +0.000 C 
ATOM     34  CB  PRO A  20      -0.317  -6.737   0.000  0.00  0.00    +0.000 C 
ATOM     35  CD  PRO A  20      -1.210  -5.745   0.000  0.00  0.00    +0.000 C 
ATOM     36  CA  PRO A  20       0.095  -6.022   0.000  0.00  0.00    +0.000 C 
ATOM     37  C   THR A  19      -0.285  -4.602   0.000  0.00  0.00    +0.000 C 
ATOM     38  N   PRO A  20      -0.457  -5.409   0.000  0.00  0.00    +0.000 N 
ATOM     39  O   THR A  19       0.499  -4.347   0.000  0.00  0.00    +0.000 OA
BRANCH  36  40
ATOM     40  C   PRO A  20       0.916  -5.936   0.000  0.00  0.00    +0.000 C 
ATOM     41  N   ALA A  21       1.401  -6.603   0.000  0.00  0.00    +0.000 NA
ATOM     42  O   PRO A  20       1.251  -5.182   0.000  0.00  0.00    +0.000 OA
BRANCH  41  44
ATOM     43  CB  ALA A  21       2.557  -5.763   0.000  0.00  0.00    +0.000 C 
ATOM     44  CA  ALA A  21       2.221  -6.517   0.000  0.00  0.00    +0.000 C 
BRANCH  44  45
ATOM     45  C   ALA A  21       2.706  -7.185   0.000  0.00  0.00    +0.000 C 
ATOM     46  N   ASN A  22       3.526  -7.098   0.000  0.00  0.00    +0.000 NA
ATOM     47  O   ALA A  21       2.370  -7.938   0.000  0.00  0.00    +0.000 OA
BRANCH  46  48
ATOM     48  CA  ASN A  22       4.011  -7.766   0.000  0.00  0.00    +0.000 C 
BRANCH  48  49
ATOM     49  C   ASN A  22       4.832  -7.680   0.000  0.00  0.00    +0.000 C 
ATOM     50  N   GLU A  23       5.167  -6.926   0.000  0.00  0.00    +0.000 NA
ATOM     51  O   ASN A  22       5.317  -8.347   0.000  0.00  0.00    +0.000 OA
BRANCH  50  52
ATOM     52  CA  GLU A  23       5.988  -6.840   0.000  0.00  0.00    +0.000 C 
BRANCH  52  53
ATOM     53  C   GLU A  23       6.473  -7.507   0.000  0.00  0.00    +0.000 C 
ATOM     54  N   ASP A  24       7.293  -7.421   0.000  0.00  0.00    +0.000 NA
ATOM     55  O   GLU A  23       5.758  -7.920   0.000  0.00  0.00    +0.000 OA
BRANCH  54  56
ATOM     56  CA  ASP A  24       7.778  -8.088   0.000  0.00  0.00    +0.000 C 
BRANCH  56  57
ATOM     57  C   ASP A  24       8.599  -8.002   0.000  0.00  0.00    +0.000 C 
ATOM     58  O   ASP A  24       9.084  -8.669   0.000  0.00  0.00    +0.000 OA
ATOM     59  OXT ASP A  24       8.934  -7.248   0.000  0.00  0.00    +0.000 OA
ENDBRANCH  56  57
BRANCH  56  60
ATOM     60  CB  ASP A  24       7.443  -8.842   0.000  0.00  0.00    +0.000 C 
BRANCH  60  61
ATOM     61  CG  ASP A  24       6.622  -8.928   0.000  0.00  0.00    +0.000 C 
ATOM     62  OD1 ASP A  24       6.287  -9.682   0.000  0.00  0.00    +0.000 OA
ATOM     63  OD2 ASP A  24       6.137  -8.261   0.000  0.00  0.00    +0.000 OA
ENDBRANCH  60  61
ENDBRANCH  56  60
ENDBRANCH  54  56
ENDBRANCH  52  53
BRANCH  52  64
ATOM     64  CB  GLU A  23       6.323  -6.086   0.000  0.00  0.00    +0.000 C 
BRANCH  64  65
ATOM     65  CG  GLU A  23       7.144  -6.000   0.000  0.00  0.00    +0.000 C 
BRANCH  65  66
ATOM     66  CD  GLU A  23       7.479  -5.246   0.000  0.00  0.00    +0.000 C 
ATOM     67  OE1 GLU A  23       6.995  -4.579   0.000  0.00  0.00    +0.000 OA
ATOM     68  OE2 GLU A  23       8.300  -5.160   0.000  0.00  0.00    +0.000 OA
ENDBRANCH  65  66
ENDBRANCH  64  65
ENDBRANCH  52  64
ENDBRANCH  50  52
ENDBRANCH  48  49
BRANCH  48  69
ATOM     69  CB  ASN A  22       3.676  -8.520   0.000  0.00  0.00    +0.000 C 
BRANCH  69  70
ATOM     70  CG  ASN A  22       4.161  -9.187   0.000  0.00  0.00    +0.000 C 
ATOM     71  ND2 ASN A  22       3.825  -9.941   0.000  0.00  0.00    +0.000 NA
ATOM     72  OD1 ASN A  22       4.981  -9.101   0.000  0.00  0.00    +0.000 OA
ENDBRANCH  69  70
ENDBRANCH  48  69
ENDBRANCH  46  48
ENDBRANCH  44  45
ENDBRANCH  41  44
ENDBRANCH  36  40
ENDBRANCH  32  37
BRANCH  32  74
ATOM     73  CG2 THR A  19      -1.340  -2.691   0.000  0.00  0.00    +0.000 C 
ATOM     74  CB  THR A  19      -0.727  -3.243   0.000  0.00  0.00    +0.000 C 
ATOM     75  OG1 THR A  19       0.058  -2.988   0.000  0.00  0.00    +0.000 OA
ENDBRANCH  32  74
ENDBRANCH  30  32
ENDBRANCH  28  29
BRANCH  28  76
ATOM     76  CB  LEU A  18      -3.252  -4.815   0.000  0.00  0.00    +0.000 C 
BRANCH  76  79
ATOM     77  CD1 LEU A  18      -4.208  -5.877   0.000  0.00  0.00    +0.000 C 
ATOM     78  CD2 LEU A  18      -4.650  -4.518   0.000  0.00  0.00    +0.000 C 
ATOM     79  CG  LEU A  18      -4.037  -5.070   0.000  0.00  0.00    +0.000 C 
ENDBRANCH  76  79
ENDBRANCH  28  76
ENDBRANCH  26  28
ENDBRANCH  24  25
BRANCH  24  80
ATOM     80  CB  SER A  17      -4.920  -2.352   0.000  0.00  0.00    +0.000 C 
ATOM     81  OG  SER A  17      -5.533  -1.800   0.000  0.00  0.00    +0.000 OA
ENDBRANCH  24  80
ENDBRANCH  22  24
ENDBRANCH  20  21
BRANCH  20  82
ATOM     82  CB  ASP A  16      -3.621   0.324   0.000  0.00  0.00    +0.000 C 
BRANCH  82  83
ATOM     83  CG  ASP A  16      -3.449   1.131   0.000  0.00  0.00    +0.000 C 
ATOM     84  OD1 ASP A  16      -4.062   1.683   0.000  0.00  0.00    +0.000 OA
ATOM     85  OD2 ASP A  16      -2.665   1.386   0.000  0.00  0.00    +0.000 OA
ENDBRANCH  82  83
ENDBRANCH  20  82
ENDBRANCH  18  20
ENDBRANCH  16  17
BRANCH  16  86
ATOM     86  CB  LEU A  15      -7.201   0.663   0.000  0.00  0.00    +0.000 C 
BRANCH  86  89
ATOM     87  CD1 LEU A  15      -8.598   0.960   0.000  0.00  0.00    +0.000 C 
ATOM     88  CD2 LEU A  15      -7.642   2.022   0.000  0.00  0.00    +0.000 C 
ATOM     89  CG  LEU A  15      -7.814   1.215   0.000  0.00  0.00    +0.000 C 
ENDBRANCH  86  89
ENDBRANCH  16  86
ENDBRANCH  14  16
ENDBRANCH  12  13
ENDBRANCH   9  12
ENDBRANCH   4   8
BRANCH   5  90
ATOM     90  CA  ILE A  12      -6.940   7.053   0.000  0.00  0.00    +0.000 C 
BRANCH  90  92
ATOM     91  C   VAL A  11      -6.226   8.291   0.000  0.00  0.00    +0.000 C 
ATOM     92  N   ILE A  12      -6.226   7.466   0.000  0.00  0.00    +0.000 NA
ATOM     93  O   VAL A  11      -6.940   8.703   0.000  0.00  0.00    +0.000 OA
BRANCH  91  94
ATOM     94  CA  VAL A  11      -5.511   8.703   0.000  0.00  0.00    +0.000 C 
BRANCH  94  97
ATOM     95  CG1 VAL A  11      -6.226   9.941   0.000  0.00  0.00    +0.000 C 
ATOM     96  CG2 VAL A  11      -4.797   9.941   0.000  0.00  0.00    +0.000 C 
ATOM     97  CB  VAL A  11      -5.511   9.528   0.000  0.00  0.00    +0.000 C 
ENDBRANCH  94  97
BRANCH  94  99
ATOM     98  C   ARG A  10      -4.082   8.703   0.000  0.00  0.00    +0.000 C 
ATOM     99  N   VAL A  11      -4.797   8.291   0.000  0.00  0.00    +0.000 NA
ATOM    100  O   ARG A  10      -4.082   9.528   0.000  0.00  0.00    +0.000 OA
BRANCH  98 101
ATOM    101  CA  ARG A  10      -3.368   8.291   0.000  0.00  0.00    +0.000 C 
BRANCH 101 103
ATOM    102  C   LEU A   9      -2.653   7.053   0.000  0.00  0.00    +0.000 C 
ATOM    103  N   ARG A  10      -3.368   7.466   0.000  0.00  0.00    +0.000 NA
ATOM    104  O   LEU A   9      -1.939   7.466   0.000  0.00  0.00    +0.000 OA
BRANCH 102 105
ATOM    105  CA  LEU A   9      -2.653   6.228   0.000  0.00  0.00    +0.000 C 
BRANCH 105 107
ATOM    106  C   LEU A   8      -1.939   4.991   0.000  0.00  0.00    +0.000 C 
ATOM    107  N   LEU A   9      -1.939   5.816   0.000  0.00  0.00    +0.000 NA
ATOM    108  O   LEU A   8      -2.275   4.237   0.000  0.00  0.00    +0.000 OA
BRANCH 106 109
ATOM    109  CA  LEU A   8      -1.224   4.578   0.000  0.00  0.00    +0.000 C 
BRANCH 109 111
ATOM    110  C   ALA A   7      -0.510   3.341   0.000  0.00  0.00    +0.000 C 
ATOM    111  N   LEU A   8      -1.224   3.753   0.000  0.00  0.00    +0.000 NA
ATOM    112  O   ALA A   7      -0.510   2.516   0.000  0.00  0.00    +0.000 OA
BRANCH 110 114
ATOM    113  CB  ALA A   7       0.204   4.578   0.000  0.00  0.00    +0.000 C 
ATOM    114  CA  ALA A   7       0.204   3.753   0.000  0.00  0.00    +0.000 C 
BRANCH 114 116
ATOM    115  C   VAL A   6       1.633   3.753   0.000  0.00  0.00    +0.000 C 
ATOM    116  N   ALA A   7       0.919   3.341   0.000  0.00  0.00    +0.000 NA
ATOM    117  O   VAL A   6       1.633   4.578   0.000  0.00  0.00    +0.000 OA
BRANCH 115 118
ATOM    118  CA  VAL A   6       2.348   3.341   0.000  0.00  0.00    +0.000 C 
BRANCH 118 121
ATOM    119  CG1 VAL A   6       3.062   4.578   0.000  0.00  0.00    +0.000 C 
ATOM    120  CG2 VAL A   6       3.777   3.341   0.000  0.00  0.00    +0.000 C 
ATOM    121  CB  VAL A   6       3.062   3.753   0.000  0.00  0.00    +0.000 C 
ENDBRANCH 118 121
BRANCH 118 123
ATOM    122  C   GLY A   5       3.062   2.103   0.000  0.00  0.00    +0.000 C 
ATOM    123  N   VAL A   6       2.348   2.516   0.000  0.00  0.00    +0.000 NA
ATOM    124  O   GLY A   5       3.777   2.516   0.000  0.00  0.00    +0.000 OA
BRANCH 122 125
ATOM    125  CA  GLY A   5       3.062   1.278   0.000  0.00  0.00    +0.000 C 
BRANCH 125 127
ATOM    126  C   GLY A   4       3.777   0.041   0.000  0.00  0.00    +0.000 C 
ATOM    127  N   GLY A   5       3.777   0.866   0.000  0.00  0.00    +0.000 NA
ATOM    128  O   GLY A   4       3.062  -0.372   0.000  0.00  0.00    +0.000 OA
BRANCH 126 129
ATOM    129  CA  GLY A   4       4.491  -0.372   0.000  0.00  0.00    +0.000 C 
BRANCH 129 131
ATOM    130  C   GLY A   3       3.777  -1.609   0.000  0.00  0.00    +0.000 C 
ATOM    131  N   GLY A   4       4.491  -1.197   0.000  0.00  0.00    +0.000 NA
ATOM    132  O   GLY A   3       3.062  -1.197   0.000  0.00  0.00    +0.000 OA
BRANCH 130 133
ATOM    133  CA  GLY A   3       3.777  -2.434   0.000  0.00  0.00    +0.000 C 
BRANCH 133 135
ATOM    134  C   LEU A   2       2.348  -2.434   0.000  0.00  0.00    +0.000 C 
ATOM    135  N   GLY A   3       3.062  -2.847   0.000  0.00  0.00    +0.000 NA
ATOM    136  O   LEU A   2       2.348  -1.609   0.000  0.00  0.00    +0.000 OA
BRANCH 134 137
ATOM    137  CA  LEU A   2       1.633  -2.847   0.000  0.00  0.00    +0.000 C 
BRANCH 137 139
ATOM    138  C   VAL A   1       0.919  -1.609   0.000  0.00  0.00    +0.000 C 
ATOM    139  N   LEU A   2       0.919  -2.434   0.000  0.00  0.00    +0.000 NA
ATOM    140  O   VAL A   1       1.633  -1.197   0.000  0.00  0.00    +0.000 OA
BRANCH 138 141
ATOM    141  CA  VAL A   1       0.204  -1.197   0.000  0.00  0.00    +0.000 C 
ATOM    142  N   VAL A   1      -0.510  -1.609   0.000  0.00  0.00    +0.000 NA
BRANCH 141 145
ATOM    143  CG1 VAL A   1      -0.510   0.041   0.000  0.00  0.00    +0.000 C 
ATOM    144  CG2 VAL A   1       0.919   0.041   0.000  0.00  0.00    +0.000 C 
ATOM    145  CB  VAL A   1       0.204  -0.372   0.000  0.00  0.00    +0.000 C 
ENDBRANCH 141 145
ENDBRANCH 138 141
ENDBRANCH 137 139
BRANCH 137 146
ATOM    146  CB  LEU A   2       1.633  -3.672   0.000  0.00  0.00    +0.000 C 
BRANCH 146 149
ATOM    147  CD1 LEU A   2       0.919  -4.909   0.000  0.00  0.00    +0.000 C 
ATOM    148  CD2 LEU A   2       0.204  -3.672   0.000  0.00  0.00    +0.000 C 
ATOM    149  CG  LEU A   2       0.919  -4.084   0.000  0.00  0.00    +0.000 C 
ENDBRANCH 146 149
ENDBRANCH 137 146
ENDBRANCH 134 137
ENDBRANCH 133 135
ENDBRANCH 130 133
ENDBRANCH 129 131
ENDBRANCH 126 129
ENDBRANCH 125 127
ENDBRANCH 122 125
ENDBRANCH 118 123
ENDBRANCH 115 118
ENDBRANCH 114 116
ENDBRANCH 110 114
ENDBRANCH 109 111
BRANCH 109 150
ATOM    150  CB  LEU A   8      -0.510   4.991   0.000  0.00  0.00    +0.000 C 
BRANCH 150 153
ATOM    151  CD1 LEU A   8      -1.224   6.228   0.000  0.00  0.00    +0.000 C 
ATOM    152  CD2 LEU A   8       0.204   6.228   0.000  0.00  0.00    +0.000 C 
ATOM    153  CG  LEU A   8      -0.510   5.816   0.000  0.00  0.00    +0.000 C 
ENDBRANCH 150 153
ENDBRANCH 109 150
ENDBRANCH 106 109
ENDBRANCH 105 107
BRANCH 105 154
ATOM    154  CB  LEU A   9      -3.368   5.816   0.000  0.00  0.00    +0.000 C 
BRANCH 154 157
ATOM    155  CD1 LEU A   9      -2.653   4.578   0.000  0.00  0.00    +0.000 C 
ATOM    156  CD2 LEU A   9      -4.082   4.578   0.000  0.00  0.00    +0.000 C 
ATOM    157  CG  LEU A   9      -3.368   4.991   0.000  0.00  0.00    +0.000 C 
ENDBRANCH 154 157
ENDBRANCH 105 154
ENDBRANCH 102 105
ENDBRANCH 101 103
BRANCH 101 158
ATOM    158  CB  ARG A  10      -2.653   8.703   0.000  0.00  0.00    +0.000 C 
BRANCH 158 159
ATOM    159  CG  ARG A  10      -1.939   8.291   0.000  0.00  0.00    +0.000 C 
BRANCH 159 160
ATOM    160  CD  ARG A  10      -1.224   8.703   0.000  0.00  0.00    +0.000 C 
BRANCH 160 164
ATOM    161  CZ  ARG A  10       0.204   8.703   0.000  0.00  0.00    +0.000 C 
ATOM    162  NH1 ARG A  10       0.919   8.291   0.000  0.00  0.00    +0.000 NA
ATOM    163  NH2 ARG A  10       0.204   9.528   0.000  0.00  0.00    +0.000 NA
ATOM    164  NE  ARG A  10      -0.510   8.291   0.000  0.00  0.00    +0.000 NA
ENDBRANCH 160 164
ENDBRANCH 159 160
ENDBRANCH 158 159
ENDBRANCH 101 158
ENDBRANCH  98 101
ENDBRANCH  94  99
ENDBRANCH  91  94
ENDBRANCH  90  92
BRANCH  90 166
ATOM    165  CG2 ILE A  12      -7.655   8.291   0.000  0.00  0.00    +0.000 C 
ATOM    166  CB  ILE A  12      -7.655   7.466   0.000  0.00  0.00    +0.000 C 
BRANCH 166 168
ATOM    167  CD1 ILE A  12      -9.084   7.466   0.000  0.00  0.00    +0.000 C 
ATOM    168  CG1 ILE A  12      -8.369   7.053   0.000  0.00  0.00    +0.000 C 
ENDBRANCH 166 168
ENDBRANCH  90 166
ENDBRANCH   5  90
TORSDOF 75
