REMARK  Name = 
REMARK  7 active torsions:
REMARK  status: ('A' for Active; 'I' for Inactive)
REMARK    1  A    between atoms: C_2  and  C_3
REMARK    2  A    between atoms: C_2  and  N_14
REMARK    3  A    between atoms: C_7  and  O_11
REMARK    4  A    between atoms: C_8  and  O_9
REMARK    5  A    between atoms: N_14  and  C_15
REMARK    6  A    between atoms: C_17  and  N_25
REMARK    7  A    between atoms: C_20  and  S_21
REMARK                            x       y       z     vdW  Elec       q    Type
REMARK                         _______ _______ _______ _____ _____    ______ ____
ROOT
ATOM      1  C   UNL     1       0.691   0.619   0.000  0.00  0.00    +0.000 A 
ATOM      2  C   UNL     1      -0.024   1.031   0.000  0.00  0.00    +0.000 A 
ATOM      3  C   UNL     1      -0.024   1.856   0.000  0.00  0.00    +0.000 A 
ATOM      4  C   UNL     1       0.691   2.269   0.000  0.00  0.00    +0.000 A 
ATOM      5  C   UNL     1       1.405   1.856   0.000  0.00  0.00    +0.000 A 
ATOM      6  C   UNL     1       1.405   1.031   0.000  0.00  0.00    +0.000 A 
ENDROOT
BRANCH   3   7
ATOM      7  N   UNL     1      -0.738   2.269   0.000  0.00  0.00    +0.000 N 
ATOM      8  C   UNL     1      -1.453   1.856   0.000  0.00  0.00    +0.000 C 
ATOM      9  C   UNL     1      -2.167   2.269   0.000  0.00  0.00    +0.000 C 
ATOM     10  N   UNL     1      -2.167   3.094   0.000  0.00  0.00    +0.000 NA
ATOM     11  C   UNL     1      -1.453   3.506   0.000  0.00  0.00    +0.000 C 
ATOM     12  C   UNL     1      -0.738   3.094   0.000  0.00  0.00    +0.000 C 
ENDBRANCH   3   7
BRANCH   6  13
ATOM     13  S   UNL     1       2.120   0.619   0.000  0.00  0.00    +0.000 S 
ATOM     14  O   UNL     1       2.834   0.206   0.000  0.00  0.00    +0.000 OA
ATOM     15  O   UNL     1       1.707  -0.096   0.000  0.00  0.00    +0.000 OA
ATOM     16  C   UNL     1       2.532   1.333   0.000  0.00  0.00    +0.000 C 
ENDBRANCH   6  13
BRANCH   1  17
ATOM     17  N   UNL     1       0.691  -0.206   0.000  0.00  0.00    +0.000 NA
BRANCH  17  19
ATOM     18  C   UNL     1      -0.738  -0.206   0.000  0.00  0.00    +0.000 C 
ATOM     19  C   UNL     1      -0.024  -0.619   0.000  0.00  0.00    +0.000 C 
BRANCH  19  20
ATOM     20  C   UNL     1      -0.024  -1.444   0.000  0.00  0.00    +0.000 A 
ATOM     21  C   UNL     1       0.691  -1.856   0.000  0.00  0.00    +0.000 A 
ATOM     22  C   UNL     1       0.691  -2.681   0.000  0.00  0.00    +0.000 A 
ATOM     23  C   UNL     1      -0.024  -3.094   0.000  0.00  0.00    +0.000 A 
ATOM     24  C   UNL     1      -0.738  -2.681   0.000  0.00  0.00    +0.000 A 
ATOM     25  C   UNL     1      -0.738  -1.856   0.000  0.00  0.00    +0.000 A 
ATOM     26 CL   UNL     1       1.405  -3.094   0.000  0.00  0.00    +0.000 Cl
BRANCH  24  27
ATOM     27  O   UNL     1      -1.453  -3.094   0.000  0.00  0.00    +0.000 OA
ATOM     28  C   UNL     1      -1.453  -3.919   0.000  0.00  0.00    +0.000 C 
ENDBRANCH  24  27
BRANCH  25  29
ATOM     29  O   UNL     1      -1.453  -1.444   0.000  0.00  0.00    +0.000 OA
ATOM     30  C   UNL     1      -1.453  -0.619   0.000  0.00  0.00    +0.000 C 
ENDBRANCH  25  29
ENDBRANCH  19  20
ENDBRANCH  17  19
ENDBRANCH   1  17
TORSDOF 7
REMARK  Name = 
REMARK  7 active torsions:
REMARK  status: ('A' for Active; 'I' for Inactive)
REMARK    1  A    between atoms: C_2  and  C_3
REMARK    2  A    between atoms: C_2  and  N_14
REMARK    3  A    between atoms: C_7  and  O_11
REMARK    4  A    between atoms: C_8  and  O_9
REMARK    5  A    between atoms: N_14  and  C_15
REMARK    6  A    between atoms: C_17  and  N_25
REMARK    7  A    between atoms: C_20  and  S_21
REMARK                            x       y       z     vdW  Elec       q    Type
REMARK                         _______ _______ _______ _____ _____    ______ ____
ROOT
ATOM      1 CL   UNL     1       4.838   0.000   0.000  0.00  0.00    +0.000 Cl
ENDROOT
TORSDOF 0
