REMARK  Name = 
REMARK  8 active torsions:
REMARK  status: ('A' for Active; 'I' for Inactive)
REMARK    1  A    between atoms: N_4  and  C_16
REMARK    2  A    between atoms: C_11  and  N_12
REMARK    3  A    between atoms: C_16  and  C_17
REMARK    4  A    between atoms: C_16  and  C_18
REMARK    5  A    between atoms: C_18  and  S_19
REMARK    6  A    between atoms: C_22  and  O_25
REMARK    7  A    between atoms: C_23  and  O_26
REMARK    8  A    between atoms: O_26  and  C_27
REMARK                            x       y       z     vdW  Elec       q    Type
REMARK                         _______ _______ _______ _____ _____    ______ ____
ROOT
ATOM      1  C   UNL     1       1.153   1.066   0.000  0.00  0.00    +0.000 C 
ENDROOT
BRANCH   1   5
ATOM      2  C   UNL     1      -0.951   1.479   0.000  0.00  0.00    +0.000 A 
ATOM      3  C   UNL     1      -0.951   0.654   0.000  0.00  0.00    +0.000 A 
ATOM      4  C   UNL     1      -0.166   0.399   0.000  0.00  0.00    +0.000 C 
ATOM      5  N   UNL     1       0.319   1.066   0.000  0.00  0.00    +0.000 N 
ATOM      6  C   UNL     1      -0.166   1.734   0.000  0.00  0.00    +0.000 C 
ATOM      7  O   UNL     1       0.087   2.511   0.000  0.00  0.00    +0.000 OA
ATOM      8  O   UNL     1       0.087  -0.379   0.000  0.00  0.00    +0.000 OA
ATOM      9  C   UNL     1      -1.665   1.891   0.000  0.00  0.00    +0.000 A 
ATOM     10  C   UNL     1      -2.380   1.479   0.000  0.00  0.00    +0.000 A 
ATOM     11  C   UNL     1      -2.380   0.654   0.000  0.00  0.00    +0.000 A 
ATOM     12  C   UNL     1      -1.665   0.241   0.000  0.00  0.00    +0.000 A 
BRANCH  12  13
ATOM     13  N   UNL     1      -1.665  -0.583   0.000  0.00  0.00    +0.000 NA
ATOM     14  C   UNL     1      -2.380  -0.996   0.000  0.00  0.00    +0.000 C 
ATOM     15  C   UNL     1      -3.105  -0.577   0.000  0.00  0.00    +0.000 C 
ATOM     16  O   UNL     1      -2.380  -1.821   0.000  0.00  0.00    +0.000 OA
ENDBRANCH  12  13
ENDBRANCH   1   5
BRANCH   1  17
ATOM     17  C   UNL     1       1.566   0.352   0.000  0.00  0.00    +0.000 A 
ATOM     18  C   UNL     1       2.379   0.352   0.000  0.00  0.00    +0.000 A 
ATOM     19  C   UNL     1       2.792  -0.362   0.000  0.00  0.00    +0.000 A 
ATOM     20  C   UNL     1       2.379  -1.077   0.000  0.00  0.00    +0.000 A 
ATOM     21  C   UNL     1       1.566  -1.077   0.000  0.00  0.00    +0.000 A 
ATOM     22  C   UNL     1       1.153  -0.362   0.000  0.00  0.00    +0.000 A 
BRANCH  20  23
ATOM     23  O   UNL     1       2.795  -1.798   0.000  0.00  0.00    +0.000 OA
ATOM     24  C   UNL     1       2.387  -2.504   0.000  0.00  0.00    +0.000 C 
ENDBRANCH  20  23
BRANCH  21  25
ATOM     25  O   UNL     1       1.153  -1.791   0.000  0.00  0.00    +0.000 OA
BRANCH  25  26
ATOM     26  C   UNL     1       0.341  -1.792   0.000  0.00  0.00    +0.000 C 
ATOM     27  C   UNL     1      -0.075  -2.511   0.000  0.00  0.00    +0.000 C 
ENDBRANCH  25  26
ENDBRANCH  21  25
ENDBRANCH   1  17
BRANCH   1  28
ATOM     28  C   UNL     1       1.566   1.781   0.000  0.00  0.00    +0.000 C 
BRANCH  28  29
ATOM     29  S   UNL     1       2.390   1.781   0.000  0.00  0.00    +0.000 S 
ATOM     30  C   UNL     1       2.803   2.495   0.000  0.00  0.00    +0.000 C 
ATOM     31  O   UNL     1       3.105   1.368   0.000  0.00  0.00    +0.000 OA
ATOM     32  O   UNL     1       2.390   0.956   0.000  0.00  0.00    +0.000 OA
ENDBRANCH  28  29
ENDBRANCH   1  28
TORSDOF 8
