REMARK  Name = 
REMARK  9 active torsions:
REMARK  status: ('A' for Active; 'I' for Inactive)
REMARK    1  A    between atoms: C_2  and  N_3
REMARK    2  A    between atoms: C_9  and  N_11
REMARK    3  A    between atoms: N_11  and  C_12
REMARK    4  A    between atoms: N_19  and  C_29
REMARK    5  A    between atoms: C_21  and  C_22
REMARK    6  A    between atoms: N_24  and  S_25
REMARK    7  A    between atoms: C_29  and  C_30
REMARK    8  A    between atoms: C_30  and  O_31
REMARK    9  A    between atoms: O_31  and  C_32
REMARK                            x       y       z     vdW  Elec       q    Type
REMARK                         _______ _______ _______ _____ _____    ______ ____
ROOT
ATOM      1  N   UNL     1      -0.378  -0.688   0.000  0.00  0.00    +0.000 N 
ATOM      2  C   UNL     1      -1.185  -0.860   0.000  0.00  0.00    +0.000 C 
ATOM      3  C   UNL     1      -0.123   0.096   0.000  0.00  0.00    +0.000 A 
ATOM      4  N   UNL     1      -0.675   0.709   0.000  0.00  0.00    +0.000 NA
ATOM      5  C   UNL     1      -0.420   1.494   0.000  0.00  0.00    +0.000 A 
ATOM      6  C   UNL     1       0.387   1.666   0.000  0.00  0.00    +0.000 A 
ATOM      7  C   UNL     1       0.939   1.052   0.000  0.00  0.00    +0.000 A 
ATOM      8  N   UNL     1       0.684   0.268   0.000  0.00  0.00    +0.000 NA
ATOM      9  N   UNL     1       0.473   2.486   0.000  0.00  0.00    +0.000 N 
ATOM     10  N   UNL     1      -0.281   2.822   0.000  0.00  0.00    +0.000 NA
ATOM     11  C   UNL     1      -0.833   2.208   0.000  0.00  0.00    +0.000 A 
ENDROOT
BRANCH  11  12
ATOM     12  C   UNL     1      -1.653   2.295   0.000  0.00  0.00    +0.000 C 
ATOM     13  O   UNL     1      -2.138   1.627   0.000  0.00  0.00    +0.000 OA
ATOM     14  N   UNL     1      -1.989   3.048   0.000  0.00  0.00    +0.000 NA
BRANCH  14  15
ATOM     15  S   UNL     1      -1.504   3.716   0.000  0.00  0.00    +0.000 S 
ATOM     16  O   UNL     1      -0.836   3.231   0.000  0.00  0.00    +0.000 OA
ATOM     17  O   UNL     1      -2.171   4.201   0.000  0.00  0.00    +0.000 OA
ATOM     18  C   UNL     1      -1.019   4.383   0.000  0.00  0.00    +0.000 C 
ENDBRANCH  14  15
ENDBRANCH  11  12
BRANCH   1  20
ATOM     19  C   UNL     1      -0.081  -2.086   0.000  0.00  0.00    +0.000 C 
ATOM     20  C   UNL     1       0.174  -1.301   0.000  0.00  0.00    +0.000 C 
ENDBRANCH   1  20
BRANCH   7  21
ATOM     21  N   UNL     1       1.746   1.224   0.000  0.00  0.00    +0.000 NA
BRANCH  21  22
ATOM     22  C   UNL     1       2.298   0.611   0.000  0.00  0.00    +0.000 A 
ATOM     23  C   UNL     1       3.105   0.782   0.000  0.00  0.00    +0.000 A 
ATOM     24  C   UNL     1       3.657   0.169   0.000  0.00  0.00    +0.000 A 
ATOM     25  C   UNL     1       3.402  -0.615   0.000  0.00  0.00    +0.000 A 
ATOM     26  C   UNL     1       2.595  -0.787   0.000  0.00  0.00    +0.000 A 
ATOM     27  N   UNL     1       2.043  -0.174   0.000  0.00  0.00    +0.000 NA
ATOM     28  C   UNL     1       4.464   0.341   0.000  0.00  0.00    +0.000 C 
ENDBRANCH  21  22
ENDBRANCH   7  21
BRANCH   9  29
ATOM     29  C   UNL     1       1.188   2.898   0.000  0.00  0.00    +0.000 C 
BRANCH  29  30
ATOM     30  C   UNL     1       1.902   2.486   0.000  0.00  0.00    +0.000 C 
BRANCH  30  31
ATOM     31  O   UNL     1       2.616   2.898   0.000  0.00  0.00    +0.000 OA
BRANCH  31  32
ATOM     32  C   UNL     1       3.331   2.486   0.000  0.00  0.00    +0.000 C 
ATOM     33  C   UNL     1       4.045   2.898   0.000  0.00  0.00    +0.000 C 
ENDBRANCH  31  32
ENDBRANCH  30  31
ENDBRANCH  29  30
ENDBRANCH   9  29
TORSDOF 9
