REMARK  Name = 
REMARK  6 active torsions:
REMARK  status: ('A' for Active; 'I' for Inactive)
REMARK    1  A    between atoms: O_2  and  C_8
REMARK    2  A    between atoms: O_2  and  C_16
REMARK    3  A    between atoms: N_6  and  CA_14
REMARK    4  A    between atoms: C_7  and  C_11
REMARK    5  A    between atoms: CA_14  and  C_24
REMARK    6  A    between atoms: C_15  and  C_17
REMARK                            x       y       z     vdW  Elec       q    Type
REMARK                         _______ _______ _______ _____ _____    ______ ____
ROOT
ATOM      1  C   UNL     1      -1.072   1.650   0.000  0.00  0.00    +0.000 C 
ATOM      2  CA  UNL     1      -0.357   2.062   0.000  0.00  0.00    +0.000 C 
ENDROOT
BRANCH   1   3
ATOM      3  C   UNL     1      -1.072   0.825   0.000  0.00  0.00    +0.000 A 
ATOM      4  C   UNL     1      -1.072  -0.825   0.000  0.00  0.00    +0.000 A 
ATOM      5  C   UNL     1      -0.357   0.412   0.000  0.00  0.00    +0.000 A 
ATOM      6  C   UNL     1      -1.786   0.412   0.000  0.00  0.00    +0.000 A 
ATOM      7  C   UNL     1      -0.357  -0.412   0.000  0.00  0.00    +0.000 A 
ATOM      8  C   UNL     1      -1.786  -0.412   0.000  0.00  0.00    +0.000 A 
BRANCH   4   9
ATOM      9  O   UNL     1      -1.072  -1.650   0.000  0.00  0.00    +0.000 OA
BRANCH   9  11
ATOM     10 BR   UNL     1      -2.501  -0.825   0.000  0.00  0.00    +0.000 Br
ATOM     11  C   UNL     1      -1.786  -2.062   0.000  0.00  0.00    +0.000 A 
ATOM     12  C   UNL     1      -2.501  -1.650   0.000  0.00  0.00    +0.000 A 
ATOM     13  C   UNL     1      -1.786  -2.888   0.000  0.00  0.00    +0.000 A 
ATOM     14  C   UNL     1      -3.215  -2.062   0.000  0.00  0.00    +0.000 A 
ATOM     15  C   UNL     1      -2.501  -3.300   0.000  0.00  0.00    +0.000 A 
ATOM     16  C   UNL     1      -3.215  -2.888   0.000  0.00  0.00    +0.000 A 
ENDBRANCH   9  11
ENDBRANCH   4   9
ENDBRANCH   1   3
BRANCH   2  18
ATOM     17  O   UNL     1       1.072   2.888   0.000  0.00  0.00    +0.000 OA
ATOM     18  N   UNL     1       0.357   1.650   0.000  0.00  0.00    +0.000 N 
ATOM     19  C   UNL     1       1.072   2.062   0.000  0.00  0.00    +0.000 C 
ATOM     20  H   UNL     1       0.357   1.139   0.000  0.00  0.00    +0.000 HD
BRANCH  19  21
ATOM     21  C   UNL     1       1.786   1.650   0.000  0.00  0.00    +0.000 A 
ATOM     22  C   UNL     1       2.501   2.062   0.000  0.00  0.00    +0.000 A 
ATOM     23  C   UNL     1       1.786   0.825   0.000  0.00  0.00    +0.000 A 
ATOM     24  C   UNL     1       3.215   1.650   0.000  0.00  0.00    +0.000 A 
ATOM     25  C   UNL     1       2.501   0.412   0.000  0.00  0.00    +0.000 A 
ATOM     26  C   UNL     1       3.215   0.825   0.000  0.00  0.00    +0.000 A 
ENDBRANCH  19  21
ENDBRANCH   2  18
BRANCH   2  29
ATOM     27  O   UNL     1       0.357   3.300   0.000  0.00  0.00    +0.000 OA
ATOM     28  OXT UNL     1      -1.072   3.300   0.000  0.00  0.00    +0.000 OA
ATOM     29  C   UNL     1      -0.357   2.888   0.000  0.00  0.00    +0.000 C 
ENDBRANCH   2  29
TORSDOF 6
