REMARK  Name = 
REMARK  7 active torsions:
REMARK  status: ('A' for Active; 'I' for Inactive)
REMARK    1  A    between atoms: P_1  and  O_2
REMARK    2  A    between atoms: O_2  and  C_3
REMARK    3  A    between atoms: C_3  and  N_4
REMARK    4  A    between atoms: N_25  and  C_26
REMARK    5  A    between atoms: C_28  and  O_36
REMARK    6  A    between atoms: C_29  and  O_34
REMARK    7  A    between atoms: C_30  and  O_32
REMARK                            x       y       z     vdW  Elec       q    Type
REMARK                         _______ _______ _______ _____ _____    ______ ____
ROOT
ATOM      1  N   UNL     1      -3.160   1.236   0.000  0.00  0.00    +0.000 N 
ATOM      2  C   UNL     1      -3.874   0.823   0.000  0.00  0.00    +0.000 C 
ATOM      3  C   UNL     1      -3.874  -0.002   0.000  0.00  0.00    +0.000 C 
ATOM      4  O   UNL     1      -3.160  -0.414   0.000  0.00  0.00    +0.000 OA
ATOM      5  C   UNL     1      -2.445  -0.002   0.000  0.00  0.00    +0.000 A 
ATOM      6  C   UNL     1      -2.445   0.823   0.000  0.00  0.00    +0.000 A 
ATOM      7  C   UNL     1      -1.731  -0.414   0.000  0.00  0.00    +0.000 A 
ATOM      8  C   UNL     1      -1.016  -0.002   0.000  0.00  0.00    +0.000 A 
ATOM      9  C   UNL     1      -1.016   0.823   0.000  0.00  0.00    +0.000 A 
ATOM     10  N   UNL     1      -1.731   1.236   0.000  0.00  0.00    +0.000 NA
ATOM     11  O   UNL     1      -4.589   1.236   0.000  0.00  0.00    +0.000 OA
ATOM     12  C   UNL     1      -4.699  -0.002   0.000  0.00  0.00    +0.000 C 
ATOM     13  C   UNL     1      -4.088  -0.798   0.000  0.00  0.00    +0.000 C 
ATOM     14  N   UNL     1      -0.302   1.236   0.000  0.00  0.00    +0.000 NA
ATOM     15  C   UNL     1       0.412   0.823   0.000  0.00  0.00    +0.000 A 
ATOM     16  N   UNL     1       0.412  -0.002   0.000  0.00  0.00    +0.000 NA
ATOM     17  C   UNL     1       1.127  -0.414   0.000  0.00  0.00    +0.000 A 
ATOM     18  N   UNL     1       1.841  -0.002   0.000  0.00  0.00    +0.000 NA
ATOM     19  C   UNL     1       1.841   0.823   0.000  0.00  0.00    +0.000 A 
ATOM     20  C   UNL     1       1.127   1.236   0.000  0.00  0.00    +0.000 A 
ATOM     21  F   UNL     1       1.127   2.061   0.000  0.00  0.00    +0.000 F 
ATOM     22  N   UNL     1       1.127  -1.239   0.000  0.00  0.00    +0.000 NA
ENDROOT
BRANCH  22  23
ATOM     23  C   UNL     1       1.841  -1.651   0.000  0.00  0.00    +0.000 A 
ATOM     24  C   UNL     1       1.841  -2.477   0.000  0.00  0.00    +0.000 A 
ATOM     25  C   UNL     1       2.556  -2.889   0.000  0.00  0.00    +0.000 A 
ATOM     26  C   UNL     1       3.270  -2.477   0.000  0.00  0.00    +0.000 A 
ATOM     27  C   UNL     1       3.270  -1.651   0.000  0.00  0.00    +0.000 A 
ATOM     28  C   UNL     1       2.556  -1.239   0.000  0.00  0.00    +0.000 A 
BRANCH  27  29
ATOM     29  O   UNL     1       3.985  -1.239   0.000  0.00  0.00    +0.000 OA
ATOM     30  C   UNL     1       4.699  -1.651   0.000  0.00  0.00    +0.000 C 
ENDBRANCH  27  29
BRANCH  26  31
ATOM     31  O   UNL     1       3.985  -2.889   0.000  0.00  0.00    +0.000 OA
ATOM     32  C   UNL     1       3.985  -3.714   0.000  0.00  0.00    +0.000 C 
ENDBRANCH  26  31
BRANCH  25  33
ATOM     33  O   UNL     1       2.556  -3.714   0.000  0.00  0.00    +0.000 OA
ATOM     34  C   UNL     1       1.841  -4.127   0.000  0.00  0.00    +0.000 C 
ENDBRANCH  25  33
ENDBRANCH  22  23
BRANCH   1  35
ATOM     35  C   UNL     1      -3.160   2.061   0.000  0.00  0.00    +0.000 C 
BRANCH  35  36
ATOM     36  O   UNL     1      -3.874   2.473   0.000  0.00  0.00    +0.000 OA
BRANCH  36  37
ATOM     37  P   UNL     1      -3.874   3.298   0.000  0.00  0.00    +0.000 P 
ATOM     38  O   UNL     1      -4.589   3.711   0.000  0.00  0.00    +0.000 OA
ATOM     39  O   UNL     1      -3.160   3.711   0.000  0.00  0.00    +0.000 OA
ATOM     40  O   UNL     1      -3.879   4.127   0.000  0.00  0.00    +0.000 OA
ENDBRANCH  36  37
ENDBRANCH  35  36
ENDBRANCH   1  35
TORSDOF 7
