REMARK  Name = 
REMARK  10 active torsions:
REMARK  status: ('A' for Active; 'I' for Inactive)
REMARK    1  A    between atoms: O_2  and  C_3
REMARK    2  A    between atoms: C_17  and  O_26
REMARK    3  A    between atoms: C_18  and  O_24
REMARK    4  A    between atoms: C_19  and  C_20
REMARK    5  A    between atoms: C_20  and  O_22
REMARK    6  A    between atoms: O_26  and  C_27
REMARK    7  A    between atoms: C_27  and  C_29
REMARK    8  A    between atoms: C_31  and  O_39
REMARK    9  A    between atoms: C_32  and  O_37
REMARK   10  A    between atoms: C_33  and  O_35
REMARK                            x       y       z     vdW  Elec       q    Type
REMARK                         _______ _______ _______ _____ _____    ______ ____
ROOT
ATOM      1  C   UNL     1       6.408   0.060   0.000  0.00  0.00    +0.000 A 
ATOM      2  C   UNL     1       6.340   0.883   0.000  0.00  0.00    +0.000 A 
ATOM      3  C   UNL     1       5.594   1.235   0.000  0.00  0.00    +0.000 A 
ATOM      4  C   UNL     1       4.916   0.765   0.000  0.00  0.00    +0.000 A 
ATOM      5  C   UNL     1       4.984  -0.058   0.000  0.00  0.00    +0.000 A 
ATOM      6  C   UNL     1       5.730  -0.410   0.000  0.00  0.00    +0.000 A 
ATOM      7  C   UNL     1       4.223  -0.377   0.000  0.00  0.00    +0.000 A 
ATOM      8  C   UNL     1       3.684   0.249   0.000  0.00  0.00    +0.000 A 
ATOM      9  N   UNL     1       4.113   0.954   0.000  0.00  0.00    +0.000 NA
ATOM     10  C   UNL     1       2.874   0.095   0.000  0.00  0.00    +0.000 C 
ATOM     11  C   UNL     1       2.336   0.720   0.000  0.00  0.00    +0.000 C 
ATOM     12  C   UNL     1       1.525   0.566   0.000  0.00  0.00    +0.000 C 
ATOM     13  C   UNL     1       1.253  -0.213   0.000  0.00  0.00    +0.000 C 
ATOM     14  C   UNL     1       0.442  -0.366   0.000  0.00  0.00    +0.000 C 
ATOM     15  C   UNL     1      -0.096   0.259   0.000  0.00  0.00    +0.000 C 
ATOM     16  C   UNL     1       0.176   1.038   0.000  0.00  0.00    +0.000 C 
ATOM     17  C   UNL     1       0.987   1.191   0.000  0.00  0.00    +0.000 C 
ATOM     18  C   UNL     1       1.791  -0.838   0.000  0.00  0.00    +0.000 C 
ATOM     19  N   UNL     1       2.602  -0.684   0.000  0.00  0.00    +0.000 NA
ATOM     20  C   UNL     1       3.140  -1.309   0.000  0.00  0.00    +0.000 C 
ATOM     21  C   UNL     1       3.951  -1.155   0.000  0.00  0.00    +0.000 C 
ENDROOT
BRANCH  17  22
ATOM     22  C   UNL     1       1.259   1.970   0.000  0.00  0.00    +0.000 C 
ATOM     23  O   UNL     1       2.069   2.124   0.000  0.00  0.00    +0.000 OA
BRANCH  22  24
ATOM     24  O   UNL     1       0.720   2.595   0.000  0.00  0.00    +0.000 OA
ATOM     25  C   UNL     1       0.993   3.374   0.000  0.00  0.00    +0.000 C 
ENDBRANCH  22  24
ENDBRANCH  17  22
BRANCH  16  26
ATOM     26  O   UNL     1      -0.362   1.663   0.000  0.00  0.00    +0.000 OA
ATOM     27  C   UNL     1      -0.090   2.442   0.000  0.00  0.00    +0.000 C 
ENDBRANCH  16  26
BRANCH   1  29
ATOM     28  C   UNL     1       7.832   0.178   0.000  0.00  0.00    +0.000 C 
ATOM     29  O   UNL     1       7.154  -0.292   0.000  0.00  0.00    +0.000 OA
ENDBRANCH   1  29
BRANCH  15  30
ATOM     30  O   UNL     1      -0.907   0.105   0.000  0.00  0.00    +0.000 OA
BRANCH  30  31
ATOM     31  C   UNL     1      -1.179  -0.674   0.000  0.00  0.00    +0.000 C 
ATOM     32  O   UNL     1      -0.640  -1.299   0.000  0.00  0.00    +0.000 OA
BRANCH  31  33
ATOM     33  C   UNL     1      -1.989  -0.828   0.000  0.00  0.00    +0.000 A 
ATOM     34  C   UNL     1      -2.261  -1.606   0.000  0.00  0.00    +0.000 A 
ATOM     35  C   UNL     1      -3.072  -1.760   0.000  0.00  0.00    +0.000 A 
ATOM     36  C   UNL     1      -3.610  -1.135   0.000  0.00  0.00    +0.000 A 
ATOM     37  C   UNL     1      -3.338  -0.356   0.000  0.00  0.00    +0.000 A 
ATOM     38  C   UNL     1      -2.528  -0.202   0.000  0.00  0.00    +0.000 A 
BRANCH  35  39
ATOM     39  O   UNL     1      -3.344  -2.539   0.000  0.00  0.00    +0.000 OA
ATOM     40  C   UNL     1      -4.155  -2.693   0.000  0.00  0.00    +0.000 C 
ENDBRANCH  35  39
BRANCH  37  41
ATOM     41  O   UNL     1      -3.877   0.269   0.000  0.00  0.00    +0.000 OA
ATOM     42  C   UNL     1      -3.604   1.048   0.000  0.00  0.00    +0.000 C 
ENDBRANCH  37  41
BRANCH  36  43
ATOM     43  O   UNL     1      -4.421  -1.289   0.000  0.00  0.00    +0.000 OA
ATOM     44  C   UNL     1      -4.693  -2.067   0.000  0.00  0.00    +0.000 C 
ENDBRANCH  36  43
ENDBRANCH  31  33
ENDBRANCH  30  31
ENDBRANCH  15  30
TORSDOF 10
