REMARK  Name = 
REMARK  21 active torsions:
REMARK  status: ('A' for Active; 'I' for Inactive)
REMARK    1  A    between atoms: C_2  and  O_3
REMARK    2  A    between atoms: O_3  and  C_4
REMARK    3  A    between atoms: C_4  and  C_5
REMARK    4  A    between atoms: N_11  and  C_12
REMARK    5  A    between atoms: C_12  and  C_13
REMARK    6  A    between atoms: C_13  and  C_14
REMARK    7  A    between atoms: C_14  and  C_15
REMARK    8  A    between atoms: C_15  and  C_16
REMARK    9  A    between atoms: C_16  and  N_17
REMARK   10  A    between atoms: C_16  and  C_40
REMARK   11  A    between atoms: C_18  and  C_19
REMARK   12  A    between atoms: C_19  and  C_20
REMARK   13  A    between atoms: C_19  and  N_31
REMARK   14  A    between atoms: C_20  and  C_21
REMARK   15  A    between atoms: C_21  and  O_22
REMARK   16  A    between atoms: O_22  and  C_23
REMARK   17  A    between atoms: C_23  and  C_24
REMARK   18  A    between atoms: C_32  and  O_33
REMARK   19  A    between atoms: O_33  and  C_34
REMARK   20  A    between atoms: C_40  and  O_41
REMARK   21  A    between atoms: O_41  and  C_42
REMARK                            x       y       z     vdW  Elec       q    Type
REMARK                         _______ _______ _______ _____ _____    ______ ____
ROOT
ATOM      1  C   UNL     1       0.357  -0.357   0.000  0.00  0.00    +0.000 C 
ENDROOT
BRANCH   1   2
ATOM      2  N   UNL     1       1.072   0.055   0.000  0.00  0.00    +0.000 NA
ATOM      3  C   UNL     1       1.786  -0.357   0.000  0.00  0.00    +0.000 C 
ATOM      4  O   UNL     1       1.786  -1.182   0.000  0.00  0.00    +0.000 OA
BRANCH   3   5
ATOM      5  C   UNL     1       2.501   0.055   0.000  0.00  0.00    +0.000 C 
BRANCH   5   6
ATOM      6  N   UNL     1       2.501   0.880   0.000  0.00  0.00    +0.000 NA
ATOM      7  C   UNL     1       1.786   1.293   0.000  0.00  0.00    +0.000 C 
ATOM      8  O   UNL     1       1.072   0.880   0.000  0.00  0.00    +0.000 OA
BRANCH   7   9
ATOM      9  O   UNL     1       1.786   2.118   0.000  0.00  0.00    +0.000 OA
BRANCH   9  10
ATOM     10  C   UNL     1       2.501   2.530   0.000  0.00  0.00    +0.000 C 
ATOM     11  C   UNL     1       2.913   1.816   0.000  0.00  0.00    +0.000 C 
ATOM     12  C   UNL     1       2.088   3.245   0.000  0.00  0.00    +0.000 C 
ATOM     13  C   UNL     1       3.215   2.943   0.000  0.00  0.00    +0.000 C 
ENDBRANCH   9  10
ENDBRANCH   7   9
ENDBRANCH   5   6
BRANCH   5  14
ATOM     14  C   UNL     1       3.215  -0.357   0.000  0.00  0.00    +0.000 C 
BRANCH  14  15
ATOM     15  C   UNL     1       3.929   0.055   0.000  0.00  0.00    +0.000 C 
ATOM     16  O   UNL     1       3.929   0.880   0.000  0.00  0.00    +0.000 OA
BRANCH  15  17
ATOM     17  O   UNL     1       4.644  -0.357   0.000  0.00  0.00    +0.000 OA
BRANCH  17  18
ATOM     18  C   UNL     1       5.359   0.055   0.000  0.00  0.00    +0.000 C 
BRANCH  18  19
ATOM     19  C   UNL     1       6.073  -0.357   0.000  0.00  0.00    +0.000 A 
ATOM     20  C   UNL     1       6.787   0.055   0.000  0.00  0.00    +0.000 A 
ATOM     21  C   UNL     1       7.502  -0.357   0.000  0.00  0.00    +0.000 A 
ATOM     22  C   UNL     1       7.502  -1.182   0.000  0.00  0.00    +0.000 A 
ATOM     23  C   UNL     1       6.787  -1.595   0.000  0.00  0.00    +0.000 A 
ATOM     24  C   UNL     1       6.073  -1.182   0.000  0.00  0.00    +0.000 A 
ENDBRANCH  18  19
ENDBRANCH  17  18
ENDBRANCH  15  17
ENDBRANCH  14  15
ENDBRANCH   5  14
ENDBRANCH   3   5
ENDBRANCH   1   2
BRANCH   1  25
ATOM     25  C   UNL     1       0.357  -1.182   0.000  0.00  0.00    +0.000 C 
ATOM     26  O   UNL     1       1.072  -1.595   0.000  0.00  0.00    +0.000 OA
BRANCH  25  27
ATOM     27  O   UNL     1      -0.357  -1.595   0.000  0.00  0.00    +0.000 OA
BRANCH  27  28
ATOM     28  C   UNL     1      -0.357  -2.420   0.000  0.00  0.00    +0.000 C 
ATOM     29  C   UNL     1      -1.182  -2.420   0.000  0.00  0.00    +0.000 C 
ATOM     30  C   UNL     1       0.468  -2.420   0.000  0.00  0.00    +0.000 C 
ATOM     31  C   UNL     1      -0.357  -3.245   0.000  0.00  0.00    +0.000 C 
ENDBRANCH  27  28
ENDBRANCH  25  27
ENDBRANCH   1  25
BRANCH   1  32
ATOM     32  C   UNL     1      -0.357   0.055   0.000  0.00  0.00    +0.000 C 
BRANCH  32  33
ATOM     33  C   UNL     1      -1.072  -0.357   0.000  0.00  0.00    +0.000 C 
BRANCH  33  34
ATOM     34  C   UNL     1      -1.786   0.055   0.000  0.00  0.00    +0.000 C 
BRANCH  34  35
ATOM     35  C   UNL     1      -2.501  -0.357   0.000  0.00  0.00    +0.000 C 
BRANCH  35  38
ATOM     36  O   UNL     1      -3.929  -1.182   0.000  0.00  0.00    +0.000 OA
ATOM     37  C   UNL     1      -3.929  -0.357   0.000  0.00  0.00    +0.000 C 
ATOM     38  N   UNL     1      -3.215   0.055   0.000  0.00  0.00    +0.000 NA
BRANCH  37  39
ATOM     39  O   UNL     1      -4.644   0.055   0.000  0.00  0.00    +0.000 OA
BRANCH  39  40
ATOM     40  C   UNL     1      -5.359  -0.357   0.000  0.00  0.00    +0.000 C 
BRANCH  40  41
ATOM     41  C   UNL     1      -6.073   0.055   0.000  0.00  0.00    +0.000 A 
ATOM     42  C   UNL     1      -6.787  -0.357   0.000  0.00  0.00    +0.000 A 
ATOM     43  C   UNL     1      -7.502   0.055   0.000  0.00  0.00    +0.000 A 
ATOM     44  C   UNL     1      -7.502   0.880   0.000  0.00  0.00    +0.000 A 
ATOM     45  C   UNL     1      -6.787   1.293   0.000  0.00  0.00    +0.000 A 
ATOM     46  C   UNL     1      -6.073   0.880   0.000  0.00  0.00    +0.000 A 
ENDBRANCH  40  41
ENDBRANCH  39  40
ENDBRANCH  37  39
ENDBRANCH  35  38
ENDBRANCH  34  35
ENDBRANCH  33  34
ENDBRANCH  32  33
ENDBRANCH   1  32
TORSDOF 21
