REMARK  Name = 
REMARK  6 active torsions:
REMARK  status: ('A' for Active; 'I' for Inactive)
REMARK    1  A    between atoms: C_4  and  C_7
REMARK    2  A    between atoms: C_7  and  C_13
REMARK    3  A    between atoms: C_13  and  O_15
REMARK    4  A    between atoms: O_15  and  C_16
REMARK    5  A    between atoms: C_16  and  C_17
REMARK    6  A    between atoms: C_17  and  N_18
REMARK                            x       y       z     vdW  Elec       q    Type
REMARK                         _______ _______ _______ _____ _____    ______ ____
ROOT
ATOM      1  C   UNL     1       0.000  -2.475   0.000  0.00  0.00    +0.000 C 
ATOM      2  C   UNL     1      -0.282  -3.250   0.000  0.00  0.00    +0.000 C 
ATOM      3  C   UNL     1      -1.095  -3.393   0.000  0.00  0.00    +0.000 C 
ATOM      4  C   UNL     1      -1.625  -2.761   0.000  0.00  0.00    +0.000 C 
ATOM      5  C   UNL     1      -1.343  -1.986   0.000  0.00  0.00    +0.000 C 
ATOM      6  C   UNL     1      -0.530  -1.843   0.000  0.00  0.00    +0.000 C 
ENDROOT
BRANCH   1  10
ATOM      7  C   UNL     1       1.591  -0.579   0.000  0.00  0.00    +0.000 C 
ATOM      8  C   UNL     1       1.873  -1.354   0.000  0.00  0.00    +0.000 C 
ATOM      9  C   UNL     1       1.343  -1.986   0.000  0.00  0.00    +0.000 C 
ATOM     10  C   UNL     1       0.530  -1.843   0.000  0.00  0.00    +0.000 C 
ATOM     11  C   UNL     1       0.248  -1.068   0.000  0.00  0.00    +0.000 C 
ATOM     12  C   UNL     1       0.778  -0.436   0.000  0.00  0.00    +0.000 C 
ENDBRANCH   1  10
BRANCH   1  13
ATOM     13  C   UNL     1       0.715  -2.888   0.000  0.00  0.00    +0.000 C 
ATOM     14  O   UNL     1       0.715  -3.712   0.000  0.00  0.00    +0.000 OA
BRANCH  13  15
ATOM     15  O   UNL     1       1.429  -2.475   0.000  0.00  0.00    +0.000 OA
BRANCH  15  16
ATOM     16  C   UNL     1       2.143  -2.888   0.000  0.00  0.00    +0.000 C 
BRANCH  16  17
ATOM     17  C   UNL     1       2.858  -2.475   0.000  0.00  0.00    +0.000 C 
BRANCH  17  18
ATOM     18  N   UNL     1       3.572  -2.888   0.000  0.00  0.00    +0.000 NA
ATOM     19  C   UNL     1       4.287  -2.475   0.000  0.00  0.00    +0.000 C 
ATOM     20  C   UNL     1       5.001  -2.888   0.000  0.00  0.00    +0.000 C 
ATOM     21  C   UNL     1       5.001  -3.712   0.000  0.00  0.00    +0.000 C 
ATOM     22  C   UNL     1       4.287  -4.125   0.000  0.00  0.00    +0.000 C 
ATOM     23  C   UNL     1       3.572  -3.712   0.000  0.00  0.00    +0.000 C 
ENDBRANCH  17  18
ENDBRANCH  16  17
ENDBRANCH  15  16
ENDBRANCH  13  15
ENDBRANCH   1  13
TORSDOF 6
