REMARK  Name = 
REMARK  6 active torsions:
REMARK  status: ('A' for Active; 'I' for Inactive)
REMARK    1  A    between atoms: C_9  and  O_16
REMARK    2  A    between atoms: C_10  and  S_19
REMARK    3  A    between atoms: N_11  and  S_19
REMARK    4  A    between atoms: O_14  and  P_17
REMARK    5  A    between atoms: O_15  and  P_17
REMARK    6  A    between atoms: O_16  and  P_17
REMARK                            x       y       z     vdW  Elec       q    Type
REMARK                         _______ _______ _______ _____ _____    ______ ____
ROOT
ATOM      1  C   UNL     1       1.429   0.000   0.000  0.00  0.00    +0.000 A 
ATOM      2  C   UNL     1       0.000   0.000   0.000  0.00  0.00    +0.000 A 
ATOM      3  C   UNL     1       1.429   0.825   0.000  0.00  0.00    +0.000 A 
ATOM      4  C   UNL     1       0.000   0.825   0.000  0.00  0.00    +0.000 A 
ATOM      5  C   UNL     1       0.715  -0.412   0.000  0.00  0.00    +0.000 A 
ATOM      6  C   UNL     1       0.715   1.238   0.000  0.00  0.00    +0.000 A 
ENDROOT
BRANCH   6   9
ATOM      7  O   UNL     1      -0.111   2.062   0.000  0.00  0.00    +0.000 OA
ATOM      8  O   UNL     1       1.540   2.062   0.000  0.00  0.00    +0.000 OA
ATOM      9  S   UNL     1       0.715   2.062   0.000  0.00  0.00    +0.000 S 
BRANCH   9  12
ATOM     10  C   UNL     1       0.000   3.300   0.000  0.00  0.00    +0.000 C 
ATOM     11  C   UNL     1       1.429   3.300   0.000  0.00  0.00    +0.000 C 
ATOM     12  N   UNL     1       0.715   2.888   0.000  0.00  0.00    +0.000 NA
ENDBRANCH   9  12
ENDBRANCH   6   9
BRANCH   5  13
ATOM     13  O   UNL     1       0.715  -1.238   0.000  0.00  0.00    +0.000 OA
BRANCH  13  14
ATOM     14  P   UNL     1       0.000  -1.650   0.000  0.00  0.00    +0.000 P 
ATOM     15  S   UNL     1      -0.715  -2.062   0.000  0.00  0.00    +0.000 S 
BRANCH  14  17
ATOM     16  C   UNL     1       0.000  -3.079   0.000  0.00  0.00    +0.000 C 
ATOM     17  O   UNL     1       0.412  -2.365   0.000  0.00  0.00    +0.000 OA
ENDBRANCH  14  17
BRANCH  14  19
ATOM     18  C   UNL     1      -1.238  -0.935   0.000  0.00  0.00    +0.000 C 
ATOM     19  O   UNL     1      -0.412  -0.935   0.000  0.00  0.00    +0.000 OA
ENDBRANCH  14  19
ENDBRANCH  13  14
ENDBRANCH   5  13
TORSDOF 6
