REMARK  Name = 
REMARK  7 active torsions:
REMARK  status: ('A' for Active; 'I' for Inactive)
REMARK    1  A    between atoms: C_3  and  C_5
REMARK    2  A    between atoms: C_13  and  O_15
REMARK    3  A    between atoms: O_15  and  C_16
REMARK    4  A    between atoms: C_23  and  O_32
REMARK    5  A    between atoms: C_24  and  O_26
REMARK    6  A    between atoms: O_26  and  C_27
REMARK    7  A    between atoms: C_27  and  C_28
REMARK                            x       y       z     vdW  Elec       q    Type
REMARK                         _______ _______ _______ _____ _____    ______ ____
ROOT
ATOM      1  C   UNL     1       0.000   0.000   0.000  0.00  0.00    +0.000 A 
ATOM      2  C   UNL     1      -0.715  -0.412   0.000  0.00  0.00    +0.000 A 
ATOM      3  C   UNL     1      -0.715  -1.238   0.000  0.00  0.00    +0.000 A 
ATOM      4  N   UNL     1       0.000  -1.650   0.000  0.00  0.00    +0.000 NA
ATOM      5  C   UNL     1       0.715  -1.238   0.000  0.00  0.00    +0.000 A 
ATOM      6  C   UNL     1       0.715  -0.412   0.000  0.00  0.00    +0.000 A 
ATOM      7  C   UNL     1       1.429   0.000   0.000  0.00  0.00    +0.000 A 
ATOM      8  C   UNL     1       2.143  -0.412   0.000  0.00  0.00    +0.000 A 
ATOM      9  C   UNL     1       2.143  -1.238   0.000  0.00  0.00    +0.000 A 
ATOM     10  C   UNL     1       1.429  -1.650   0.000  0.00  0.00    +0.000 A 
ENDROOT
BRANCH   8  11
ATOM     11  O   UNL     1       2.858   0.000   0.000  0.00  0.00    +0.000 OA
ATOM     12  C   UNL     1       3.572  -0.412   0.000  0.00  0.00    +0.000 C 
ENDBRANCH   8  11
BRANCH   1  13
ATOM     13  O   UNL     1       0.000   0.825   0.000  0.00  0.00    +0.000 OA
BRANCH  13  22
ATOM     14  C   UNL     1      -2.858   2.475   0.000  0.00  0.00    +0.000 A 
ATOM     15  C   UNL     1      -3.572   2.062   0.000  0.00  0.00    +0.000 A 
ATOM     16  C   UNL     1      -3.572   1.238   0.000  0.00  0.00    +0.000 A 
ATOM     17  C   UNL     1      -2.858   0.825   0.000  0.00  0.00    +0.000 A 
ATOM     18  C   UNL     1      -2.143   1.238   0.000  0.00  0.00    +0.000 A 
ATOM     19  C   UNL     1      -2.143   2.062   0.000  0.00  0.00    +0.000 A 
ATOM     20  C   UNL     1      -1.429   2.475   0.000  0.00  0.00    +0.000 A 
ATOM     21  C   UNL     1      -0.715   2.062   0.000  0.00  0.00    +0.000 A 
ATOM     22  C   UNL     1      -0.715   1.238   0.000  0.00  0.00    +0.000 A 
ATOM     23  C   UNL     1      -1.429   0.825   0.000  0.00  0.00    +0.000 A 
BRANCH  14  26
ATOM     24  C   UNL     1      -3.572   4.537   0.000  0.00  0.00    +0.000 C 
ATOM     25  N   UNL     1      -3.572   3.712   0.000  0.00  0.00    +0.000 NA
ATOM     26  C   UNL     1      -2.858   3.300   0.000  0.00  0.00    +0.000 C 
ATOM     27  O   UNL     1      -2.143   3.712   0.000  0.00  0.00    +0.000 OA
ENDBRANCH  14  26
ENDBRANCH  13  22
ENDBRANCH   1  13
BRANCH   9  28
ATOM     28  O   UNL     1       2.858  -1.650   0.000  0.00  0.00    +0.000 OA
BRANCH  28  29
ATOM     29  C   UNL     1       2.858  -2.475   0.000  0.00  0.00    +0.000 C 
BRANCH  29  30
ATOM     30  C   UNL     1       3.572  -2.888   0.000  0.00  0.00    +0.000 C 
ATOM     31  C   UNL     1       4.103  -3.519   0.000  0.00  0.00    +0.000 C 
ATOM     32  C   UNL     1       3.290  -3.663   0.000  0.00  0.00    +0.000 C 
ATOM     33  N   UNL     1       4.103  -2.256   0.000  0.00  0.00    +0.000 NA
ENDBRANCH  29  30
ENDBRANCH  28  29
ENDBRANCH   9  28
TORSDOF 7
