REMARK  Name = 
REMARK  4 active torsions:
REMARK  status: ('A' for Active; 'I' for Inactive)
REMARK    1  A    between atoms: O_2  and  C_3
REMARK    2  A    between atoms: N_10  and  C_11
REMARK    3  A    between atoms: C_11  and  C_12
REMARK    4  A    between atoms: C_15  and  C_18
REMARK                            x       y       z     vdW  Elec       q    Type
REMARK                         _______ _______ _______ _____ _____    ______ ____
ROOT
ATOM      1  C   UNL     1       0.492  -1.532   0.000  0.00  0.00    +0.000 A 
ATOM      2  C   UNL     1       0.492  -0.707   0.000  0.00  0.00    +0.000 A 
ATOM      3  C   UNL     1       1.206  -0.294   0.000  0.00  0.00    +0.000 A 
ATOM      4  C   UNL     1       1.921  -0.707   0.000  0.00  0.00    +0.000 A 
ATOM      5  S   UNL     1       2.566  -0.192   0.000  0.00  0.00    +0.000 S 
ATOM      6  C   UNL     1       3.370  -0.376   0.000  0.00  0.00    +0.000 C 
ATOM      7  C   UNL     1       3.728  -1.119   0.000  0.00  0.00    +0.000 C 
ATOM      8  N   UNL     1       3.370  -1.862   0.000  0.00  0.00    +0.000 NA
ATOM      9  C   UNL     1       2.566  -2.046   0.000  0.00  0.00    +0.000 C 
ATOM     10  C   UNL     1       1.921  -1.532   0.000  0.00  0.00    +0.000 A 
ATOM     11  C   UNL     1       1.206  -1.944   0.000  0.00  0.00    +0.000 A 
ENDROOT
BRANCH   1  13
ATOM     12  C   UNL     1      -0.937  -1.532   0.000  0.00  0.00    +0.000 C 
ATOM     13  O   UNL     1      -0.223  -1.944   0.000  0.00  0.00    +0.000 OA
ENDBRANCH   1  13
BRANCH   8  14
ATOM     14  C   UNL     1       3.884  -2.507   0.000  0.00  0.00    +0.000 C 
BRANCH  14  15
ATOM     15  C   UNL     1       3.583  -3.275   0.000  0.00  0.00    +0.000 A 
ATOM     16  C   UNL     1       4.097  -3.920   0.000  0.00  0.00    +0.000 A 
ATOM     17  C   UNL     1       3.796  -4.688   0.000  0.00  0.00    +0.000 A 
ATOM     18  C   UNL     1       2.980  -4.811   0.000  0.00  0.00    +0.000 A 
ATOM     19  C   UNL     1       2.466  -4.166   0.000  0.00  0.00    +0.000 A 
ATOM     20  C   UNL     1       2.767  -3.398   0.000  0.00  0.00    +0.000 A 
BRANCH  18  21
ATOM     21  C   UNL     1       2.679  -5.579   0.000  0.00  0.00    +0.000 C 
ATOM     22  O   UNL     1       3.193  -6.224   0.000  0.00  0.00    +0.000 OA
ATOM     23  O   UNL     1       1.863  -5.702   0.000  0.00  0.00    +0.000 OA
ENDBRANCH  18  21
ENDBRANCH  14  15
ENDBRANCH   8  14
TORSDOF 4
