REMARK  Name = 
REMARK  9 active torsions:
REMARK  status: ('A' for Active; 'I' for Inactive)
REMARK    1  A    between atoms: C_2  and  O_7
REMARK    2  A    between atoms: O_7  and  C_12
REMARK    3  A    between atoms: C_10  and  O_15
REMARK    4  A    between atoms: O_15  and  C_21
REMARK    5  A    between atoms: C_24  and  N_34
REMARK    6  A    between atoms: C_27  and  O_37
REMARK    7  A    between atoms: N_34  and  C_41
REMARK    8  A    between atoms: C_36  and  C_43
REMARK    9  A    between atoms: C_39  and  O_46
REMARK                            x       y       z     vdW  Elec       q    Type
REMARK                         _______ _______ _______ _____ _____    ______ ____
ROOT
ATOM      1  C   UNL     1      -0.339   0.315   0.000  0.00  0.00    +0.000 C 
ATOM      2  C   UNL     1       0.327  -0.097   0.000  0.00  0.00    +0.000 C 
ATOM      3  O   UNL     1      -1.173   0.315   0.000  0.00  0.00    +0.000 OA
ATOM      4  C   UNL     1      -0.339   1.137   0.000  0.00  0.00    +0.000 C 
ATOM      5  C   UNL     1       0.242   0.922   0.000  0.00  0.00    +0.000 C 
ATOM      6  C   UNL     1       0.327  -0.944   0.000  0.00  0.00    +0.000 C 
ATOM      7  C   UNL     1      -1.766   1.137   0.000  0.00  0.00    +0.000 C 
ATOM      8  C   UNL     1      -1.056   1.552   0.000  0.00  0.00    +0.000 C 
ATOM      9  C   UNL     1      -0.359  -1.359   0.000  0.00  0.00    +0.000 C 
ATOM     10  C   UNL     1       1.044  -1.346   0.000  0.00  0.00    +0.000 C 
ATOM     11  C   UNL     1      -1.766   0.315   0.000  0.00  0.00    +0.000 C 
ATOM     12  C   UNL     1      -1.056   2.374   0.000  0.00  0.00    +0.000 C 
ATOM     13  C   UNL     1      -0.359  -2.169   0.000  0.00  0.00    +0.000 C 
ATOM     14  C   UNL     1      -2.504  -0.109   0.000  0.00  0.00    +0.000 C 
ATOM     15  C   UNL     1      -2.471   0.786   0.000  0.00  0.00    +0.000 C 
ATOM     16  C   UNL     1      -1.076  -2.576   0.000  0.00  0.00    +0.000 C 
ATOM     17  C   UNL     1       0.302  -2.601   0.000  0.00  0.00    +0.000 C 
ATOM     18  C   UNL     1      -2.504  -0.944   0.000  0.00  0.00    +0.000 C 
ATOM     19  O   UNL     1      -3.213   0.290   0.000  0.00  0.00    +0.000 OA
ATOM     20  O   UNL     1      -1.774  -2.181   0.000  0.00  0.00    +0.000 OA
ATOM     21  O   UNL     1      -1.076  -3.399   0.000  0.00  0.00    +0.000 OA
ATOM     22  C   UNL     1      -1.774  -1.371   0.000  0.00  0.00    +0.000 C 
ATOM     23  C   UNL     1      -3.048  -1.415   0.000  0.00  0.00    +0.000 C 
ENDROOT
BRANCH  18  24
ATOM     24  O   UNL     1      -3.189  -0.536   0.000  0.00  0.00    +0.000 OA
ATOM     25  C   UNL     1      -3.894  -0.956   0.000  0.00  0.00    +0.000 C 
ENDBRANCH  18  24
BRANCH  22  26
ATOM     26  C   UNL     1      -2.588  -1.790   0.000  0.00  0.00    +0.000 C 
ATOM     27  C   UNL     1      -2.588  -2.564   0.000  0.00  0.00    +0.000 C 
ENDBRANCH  22  26
BRANCH   9  28
ATOM     28  O   UNL     1       0.544  -1.823   0.000  0.00  0.00    +0.000 OA
BRANCH  28  29
ATOM     29  C   UNL     1       1.298  -2.217   0.000  0.00  0.00    +0.000 C 
ATOM     30  C   UNL     1       1.298  -3.040   0.000  0.00  0.00    +0.000 C 
ATOM     31  O   UNL     1       2.015  -1.778   0.000  0.00  0.00    +0.000 OA
ATOM     32  C   UNL     1       2.015  -3.459   0.000  0.00  0.00    +0.000 C 
ATOM     33  C   UNL     1       2.713  -2.193   0.000  0.00  0.00    +0.000 C 
ATOM     34  C   UNL     1       2.713  -3.040   0.000  0.00  0.00    +0.000 C 
ATOM     35  C   UNL     1       1.367  -4.064   0.000  0.00  0.00    +0.000 C 
ATOM     36  C   UNL     1       3.430  -1.754   0.000  0.00  0.00    +0.000 C 
ATOM     37  O   UNL     1       3.406  -3.471   0.000  0.00  0.00    +0.000 OA
BRANCH  32  38
ATOM     38  O   UNL     1       2.664  -4.064   0.000  0.00  0.00    +0.000 OA
ATOM     39  C   UNL     1       3.499  -4.064   0.000  0.00  0.00    +0.000 C 
ENDBRANCH  32  38
ENDBRANCH  28  29
ENDBRANCH   9  28
BRANCH   2  40
ATOM     40  O   UNL     1       1.056   0.290   0.000  0.00  0.00    +0.000 OA
BRANCH  40  41
ATOM     41  C   UNL     1       1.749   0.705   0.000  0.00  0.00    +0.000 C 
ATOM     42  C   UNL     1       1.749   1.540   0.000  0.00  0.00    +0.000 C 
ATOM     43  O   UNL     1       2.471   0.290   0.000  0.00  0.00    +0.000 OA
ATOM     44  C   UNL     1       2.459   1.971   0.000  0.00  0.00    +0.000 C 
ATOM     45  O   UNL     1       1.032   1.923   0.000  0.00  0.00    +0.000 OA
ATOM     46  C   UNL     1       3.164   0.705   0.000  0.00  0.00    +0.000 C 
ATOM     47  C   UNL     1       3.164   1.564   0.000  0.00  0.00    +0.000 C 
ATOM     48  C   UNL     1       3.874   0.278   0.000  0.00  0.00    +0.000 C 
BRANCH  44  49
ATOM     49  N   UNL     1       2.471   2.818   0.000  0.00  0.00    +0.000 NA
ATOM     50  C   UNL     1       1.749   3.233   0.000  0.00  0.00    +0.000 C 
BRANCH  49  51
ATOM     51  C   UNL     1       3.176   3.245   0.000  0.00  0.00    +0.000 C 
ATOM     52  C   UNL     1       3.894   2.849   0.000  0.00  0.00    +0.000 C 
ATOM     53  C   UNL     1       3.184   4.064   0.000  0.00  0.00    +0.000 C 
ENDBRANCH  49  51
ENDBRANCH  44  49
ENDBRANCH  40  41
ENDBRANCH   2  40
TORSDOF 9
