REMARK  Name = 
REMARK  18 active torsions:
REMARK  status: ('A' for Active; 'I' for Inactive)
REMARK    1  A    between atoms: C_3  and  C_10
REMARK    2  A    between atoms: C_8  and  C_20
REMARK    3  A    between atoms: C_9  and  C_16
REMARK    4  A    between atoms: C_10  and  O_11
REMARK    5  A    between atoms: O_11  and  C_13
REMARK    6  A    between atoms: C_16  and  C_17
REMARK    7  A    between atoms: C_17  and  C_18
REMARK    8  A    between atoms: C_20  and  C_21
REMARK    9  A    between atoms: C_26  and  C_28
REMARK   10  A    between atoms: C_28  and  C_29
REMARK   11  A    between atoms: C_29  and  C_30
REMARK   12  A    between atoms: C_30  and  N_31
REMARK   13  A    between atoms: N_31  and  C_32
REMARK   14  A    between atoms: N_31  and  C_36
REMARK   15  A    between atoms: C_32  and  C_33
REMARK   16  A    between atoms: C_33  and  C_34
REMARK   17  A    between atoms: C_36  and  C_37
REMARK   18  A    between atoms: C_37  and  C_38
REMARK                            x       y       z     vdW  Elec       q    Type
REMARK                         _______ _______ _______ _____ _____    ______ ____
ROOT
ATOM      1  C   UNL     1      -0.671   1.171   0.000  0.00  0.00    +0.000 C 
ATOM      2  O   UNL     1      -1.223   0.557   0.000  0.00  0.00    +0.000 OA
ENDROOT
BRANCH   1  10
ATOM      3  C   UNL     1      -2.425   3.448   0.000  0.00  0.00    +0.000 A 
ATOM      4  C   UNL     1      -3.139   3.035   0.000  0.00  0.00    +0.000 A 
ATOM      5  C   UNL     1      -3.139   2.210   0.000  0.00  0.00    +0.000 A 
ATOM      6  C   UNL     1      -2.425   1.798   0.000  0.00  0.00    +0.000 A 
ATOM      7  C   UNL     1      -1.710   2.210   0.000  0.00  0.00    +0.000 A 
ATOM      8  C   UNL     1      -1.710   3.035   0.000  0.00  0.00    +0.000 A 
ATOM      9  O   UNL     1      -0.926   3.290   0.000  0.00  0.00    +0.000 OA
ATOM     10  C   UNL     1      -0.926   1.955   0.000  0.00  0.00    +0.000 A 
ATOM     11  C   UNL     1      -0.441   2.623   0.000  0.00  0.00    +0.000 A 
BRANCH   5  12
ATOM     12  C   UNL     1      -3.854   1.798   0.000  0.00  0.00    +0.000 C 
ATOM     13  O   UNL     1      -3.854   0.973   0.000  0.00  0.00    +0.000 OA
BRANCH  12  14
ATOM     14  O   UNL     1      -4.569   2.210   0.000  0.00  0.00    +0.000 OA
BRANCH  14  15
ATOM     15  C   UNL     1      -5.283   1.798   0.000  0.00  0.00    +0.000 C 
ATOM     16  C   UNL     1      -5.997   2.210   0.000  0.00  0.00    +0.000 C 
ATOM     17  C   UNL     1      -5.283   0.973   0.000  0.00  0.00    +0.000 C 
ENDBRANCH  14  15
ENDBRANCH  12  14
ENDBRANCH   5  12
BRANCH  11  18
ATOM     18  C   UNL     1       0.384   2.623   0.000  0.00  0.00    +0.000 C 
BRANCH  18  19
ATOM     19  C   UNL     1       0.796   3.337   0.000  0.00  0.00    +0.000 C 
BRANCH  19  20
ATOM     20  C   UNL     1       1.621   3.337   0.000  0.00  0.00    +0.000 C 
ATOM     21  C   UNL     1       2.034   4.052   0.000  0.00  0.00    +0.000 C 
ENDBRANCH  19  20
ENDBRANCH  18  19
ENDBRANCH  11  18
ENDBRANCH   1  10
BRANCH   1  22
ATOM     22  C   UNL     1       0.136   0.999   0.000  0.00  0.00    +0.000 A 
ATOM     23  C   UNL     1       0.688   1.612   0.000  0.00  0.00    +0.000 A 
ATOM     24  C   UNL     1       0.391   0.214   0.000  0.00  0.00    +0.000 A 
ATOM     25  C   UNL     1       1.198   0.043   0.000  0.00  0.00    +0.000 A 
ATOM     26  C   UNL     1       1.750   0.656   0.000  0.00  0.00    +0.000 A 
ATOM     27  C   UNL     1       1.495   1.441   0.000  0.00  0.00    +0.000 A 
BRANCH  26  28
ATOM     28  C   UNL     1       2.557   0.484   0.000  0.00  0.00    +0.000 C 
BRANCH  28  29
ATOM     29  C   UNL     1       2.812  -0.300   0.000  0.00  0.00    +0.000 C 
BRANCH  29  30
ATOM     30  C   UNL     1       3.619  -0.472   0.000  0.00  0.00    +0.000 C 
BRANCH  30  31
ATOM     31  N   UNL     1       3.874  -1.256   0.000  0.00  0.00    +0.000 NA
BRANCH  31  32
ATOM     32  C   UNL     1       4.681  -1.428   0.000  0.00  0.00    +0.000 C 
BRANCH  32  33
ATOM     33  C   UNL     1       4.936  -2.212   0.000  0.00  0.00    +0.000 C 
BRANCH  33  34
ATOM     34  C   UNL     1       5.742  -2.384   0.000  0.00  0.00    +0.000 C 
ATOM     35  C   UNL     1       5.997  -3.168   0.000  0.00  0.00    +0.000 C 
ENDBRANCH  33  34
ENDBRANCH  32  33
ENDBRANCH  31  32
BRANCH  31  36
ATOM     36  C   UNL     1       3.322  -1.869   0.000  0.00  0.00    +0.000 C 
BRANCH  36  37
ATOM     37  C   UNL     1       3.577  -2.654   0.000  0.00  0.00    +0.000 C 
BRANCH  37  38
ATOM     38  C   UNL     1       3.025  -3.267   0.000  0.00  0.00    +0.000 C 
ATOM     39  C   UNL     1       3.280  -4.052   0.000  0.00  0.00    +0.000 C 
ENDBRANCH  37  38
ENDBRANCH  36  37
ENDBRANCH  31  36
ENDBRANCH  30  31
ENDBRANCH  29  30
ENDBRANCH  28  29
ENDBRANCH  26  28
ENDBRANCH   1  22
TORSDOF 18
