REMARK  Name = 
REMARK  2 active torsions:
REMARK  status: ('A' for Active; 'I' for Inactive)
REMARK    1  A    between atoms: C_1  and  C_6
REMARK    2  A    between atoms: C_7  and  N_8
REMARK                            x       y       z     vdW  Elec       q    Type
REMARK                         _______ _______ _______ _____ _____    ______ ____
ROOT
ATOM      1  C   UNL     1      -0.009   0.421   0.000  0.00  0.00    +0.000 C 
ATOM      2  C   UNL     1      -0.718   0.830   0.000  0.00  0.00    +0.000 A 
ATOM      3  C   UNL     1      -0.718   1.655   0.000  0.00  0.00    +0.000 A 
ATOM      4  C   UNL     1       0.709   0.830   0.000  0.00  0.00    +0.000 C 
ATOM      5  C   UNL     1      -0.009   2.064   0.000  0.00  0.00    +0.000 C 
ATOM      6  C   UNL     1       0.709   1.642   0.000  0.00  0.00    +0.000 C 
ATOM      7  C   UNL     1      -1.432   0.421   0.000  0.00  0.00    +0.000 A 
ATOM      8  C   UNL     1      -1.432   2.064   0.000  0.00  0.00    +0.000 A 
ATOM      9  C   UNL     1      -2.150   0.830   0.000  0.00  0.00    +0.000 A 
ATOM     10  C   UNL     1      -2.150   1.642   0.000  0.00  0.00    +0.000 A 
ENDROOT
BRANCH   1  11
ATOM     11  C   UNL     1      -0.009  -0.413   0.000  0.00  0.00    +0.000 A 
ATOM     12  C   UNL     1      -0.727  -0.830   0.000  0.00  0.00    +0.000 A 
ATOM     13  C   UNL     1       0.692  -0.826   0.000  0.00  0.00    +0.000 A 
ATOM     14  C   UNL     1      -0.727  -1.651   0.000  0.00  0.00    +0.000 A 
ATOM     15  C   UNL     1       0.692  -1.651   0.000  0.00  0.00    +0.000 A 
ATOM     16  C   UNL     1      -0.009  -2.064   0.000  0.00  0.00    +0.000 A 
ENDBRANCH   1  11
BRANCH   6  17
ATOM     17  N   UNL     1       1.449   2.038   0.000  0.00  0.00    +0.000 NA
ATOM     18  C   UNL     1       2.150   1.604   0.000  0.00  0.00    +0.000 C 
ENDBRANCH   6  17
TORSDOF 2
