REMARK  Name = 
REMARK  17 active torsions:
REMARK  status: ('A' for Active; 'I' for Inactive)
REMARK    1  A    between atoms: C_10  and  C_90
REMARK    2  A    between atoms: C_13  and  C_87
REMARK    3  A    between atoms: C_23  and  C_79
REMARK    4  A    between atoms: C_36  and  C_54
REMARK    5  A    between atoms: C_48  and  C_49
REMARK    6  A    between atoms: C_49  and  C_50
REMARK    7  A    between atoms: C_57  and  N_59
REMARK    8  A    between atoms: N_59  and  C_72
REMARK    9  A    between atoms: C_60  and  O_62
REMARK   10  A    between atoms: O_62  and  C_63
REMARK   11  A    between atoms: C_66  and  C_69
REMARK   12  A    between atoms: C_72  and  C_73
REMARK   13  A    between atoms: C_73  and  C_74
REMARK   14  A    between atoms: C_74  and  C_75
REMARK   15  A    between atoms: C_75  and  C_76
REMARK   16  A    between atoms: C_79  and  C_81
REMARK   17  A    between atoms: C_87  and  O_88
REMARK                            x       y       z     vdW  Elec       q    Type
REMARK                         _______ _______ _______ _____ _____    ______ ____
ROOT
ATOM      1  C   UNL     1      12.161   0.889   0.000  0.00  0.00    +0.000 C 
ATOM      2  C   UNL     1      11.506   0.388   0.000  0.00  0.00    +0.000 A 
ATOM      3  S   UNL     1      10.715   0.624   0.000  0.00  0.00    +0.000 S 
ATOM      4  C   UNL     1      10.247  -0.056   0.000  0.00  0.00    +0.000 A 
ATOM      5  N   UNL     1      10.748  -0.711   0.000  0.00  0.00    +0.000 NA
ATOM      6  C   UNL     1      11.526  -0.437   0.000  0.00  0.00    +0.000 A 
ATOM      7  C   UNL     1      12.493  -1.000   0.000  0.00  0.00    +0.000 C 
ATOM      8  O   UNL     1      13.011  -0.359   0.000  0.00  0.00    +0.000 OA
ATOM      9  N   UNL     1      13.049  -1.610   0.000  0.00  0.00    +0.000 NA
ATOM     10  C   UNL     1      13.460  -2.325   0.000  0.00  0.00    +0.000 C 
ATOM     11  C   UNL     1      13.709  -3.111   0.000  0.00  0.00    +0.000 A 
ATOM     12  S   UNL     1      12.919  -3.352   0.000  0.00  0.00    +0.000 S 
ATOM     13  C   UNL     1      12.904  -4.176   0.000  0.00  0.00    +0.000 A 
ATOM     14  C   UNL     1      13.683  -4.446   0.000  0.00  0.00    +0.000 A 
ATOM     15  N   UNL     1      14.181  -3.788   0.000  0.00  0.00    +0.000 NA
ATOM     16  C   UNL     1      13.399  -5.528   0.000  0.00  0.00    +0.000 C 
ATOM     17  O   UNL     1      14.156  -5.856   0.000  0.00  0.00    +0.000 OA
ATOM     18  N   UNL     1      12.960  -6.227   0.000  0.00  0.00    +0.000 NA
ATOM     19  C   UNL     1      12.382  -6.815   0.000  0.00  0.00    +0.000 C 
ATOM     20  C   UNL     1      11.690  -7.265   0.000  0.00  0.00    +0.000 C 
ATOM     21  O   UNL     1      12.063  -8.001   0.000  0.00  0.00    +0.000 OA
ATOM     22  N   UNL     1      10.918  -7.556   0.000  0.00  0.00    +0.000 NA
ATOM     23  C   UNL     1      10.102  -7.673   0.000  0.00  0.00    +0.000 C 
ATOM     24  C   UNL     1       9.279  -7.613   0.000  0.00  0.00    +0.000 A 
ATOM     25  S   UNL     1       8.740  -8.238   0.000  0.00  0.00    +0.000 S 
ATOM     26  C   UNL     1       7.979  -7.918   0.000  0.00  0.00    +0.000 A 
ATOM     27  C   UNL     1       8.049  -7.096   0.000  0.00  0.00    +0.000 A 
ATOM     28  N   UNL     1       8.852  -6.907   0.000  0.00  0.00    +0.000 NA
ATOM     29  C   UNL     1       7.148  -6.431   0.000  0.00  0.00    +0.000 A 
ATOM     30  S   UNL     1       6.341  -6.602   0.000  0.00  0.00    +0.000 S 
ATOM     31  C   UNL     1       5.929  -5.887   0.000  0.00  0.00    +0.000 A 
ATOM     32  C   UNL     1       6.482  -5.274   0.000  0.00  0.00    +0.000 A 
ATOM     33  N   UNL     1       7.236  -5.611   0.000  0.00  0.00    +0.000 NA
ATOM     34  C   UNL     1       6.168  -4.201   0.000  0.00  0.00    +0.000 A 
ATOM     35  N   UNL     1       5.446  -4.600   0.000  0.00  0.00    +0.000 NA
ATOM     36  C   UNL     1       4.739  -4.173   0.000  0.00  0.00    +0.000 A 
ATOM     37  C   UNL     1       4.755  -3.349   0.000  0.00  0.00    +0.000 A 
ATOM     38  C   UNL     1       5.477  -2.950   0.000  0.00  0.00    +0.000 A 
ATOM     39  C   UNL     1       6.183  -3.376   0.000  0.00  0.00    +0.000 A 
ATOM     40  C   UNL     1       6.376  -2.574   0.000  0.00  0.00    +0.000 A 
ATOM     41  S   UNL     1       5.847  -1.941   0.000  0.00  0.00    +0.000 S 
ATOM     42  C   UNL     1       6.286  -1.242   0.000  0.00  0.00    +0.000 A 
ATOM     43  C   UNL     1       7.086  -1.443   0.000  0.00  0.00    +0.000 A 
ATOM     44  N   UNL     1       7.142  -2.266   0.000  0.00  0.00    +0.000 NA
ATOM     45  C   UNL     1       7.887  -0.662   0.000  0.00  0.00    +0.000 C 
ATOM     46  O   UNL     1       7.408   0.009   0.000  0.00  0.00    +0.000 OA
ATOM     47  N   UNL     1       8.623  -0.290   0.000  0.00  0.00    +0.000 NA
ATOM     48  C   UNL     1       9.422  -0.085   0.000  0.00  0.00    +0.000 C 
ENDROOT
BRANCH  36  49
ATOM     49  C   UNL     1       4.017  -4.572   0.000  0.00  0.00    +0.000 A 
ATOM     50  S   UNL     1       3.270  -4.223   0.000  0.00  0.00    +0.000 S 
ATOM     51  C   UNL     1       2.706  -4.825   0.000  0.00  0.00    +0.000 A 
ATOM     52  C   UNL     1       3.105  -5.547   0.000  0.00  0.00    +0.000 A 
ATOM     53  N   UNL     1       3.915  -5.391   0.000  0.00  0.00    +0.000 NA
BRANCH  52  54
ATOM     54  N   UNL     1       2.755  -6.294   0.000  0.00  0.00    +0.000 N 
ATOM     55  C   UNL     1       1.933  -6.365   0.000  0.00  0.00    +0.000 C 
ATOM     56  O   UNL     1       1.461  -5.688   0.000  0.00  0.00    +0.000 OA
BRANCH  54  57
ATOM     57  C   UNL     1       3.227  -6.971   0.000  0.00  0.00    +0.000 C 
BRANCH  57  58
ATOM     58  C   UNL     1       4.049  -6.900   0.000  0.00  0.00    +0.000 C 
BRANCH  58  59
ATOM     59  C   UNL     1       4.521  -7.577   0.000  0.00  0.00    +0.000 C 
BRANCH  59  60
ATOM     60  C   UNL     1       5.343  -7.506   0.000  0.00  0.00    +0.000 C 
BRANCH  60  61
ATOM     61  C   UNL     1       5.815  -8.183   0.000  0.00  0.00    +0.000 C 
ATOM     62  O   UNL     1       5.465  -8.930   0.000  0.00  0.00    +0.000 OA
ATOM     63  O   UNL     1       6.637  -8.112   0.000  0.00  0.00    +0.000 OA
ENDBRANCH  60  61
ENDBRANCH  59  60
ENDBRANCH  58  59
ENDBRANCH  57  58
ENDBRANCH  54  57
BRANCH  55  64
ATOM     64  O   UNL     1       1.583  -7.112   0.000  0.00  0.00    +0.000 OA
BRANCH  64  65
ATOM     65  C   UNL     1       0.761  -7.183   0.000  0.00  0.00    +0.000 C 
ATOM     66  C   UNL     1       0.411  -7.930   0.000  0.00  0.00    +0.000 C 
ATOM     67  C   UNL     1      -0.411  -8.000   0.000  0.00  0.00    +0.000 C 
ATOM     68  C   UNL     1      -0.883  -7.324   0.000  0.00  0.00    +0.000 C 
ATOM     69  C   UNL     1      -0.533  -6.577   0.000  0.00  0.00    +0.000 C 
ATOM     70  C   UNL     1       0.289  -6.506   0.000  0.00  0.00    +0.000 C 
BRANCH  68  71
ATOM     71  C   UNL     1      -1.705  -7.394   0.000  0.00  0.00    +0.000 C 
ATOM     72  O   UNL     1      -2.177  -6.718   0.000  0.00  0.00    +0.000 OA
ATOM     73  O   UNL     1      -2.055  -8.142   0.000  0.00  0.00    +0.000 OA
ENDBRANCH  68  71
ENDBRANCH  64  65
ENDBRANCH  55  64
ENDBRANCH  52  54
ENDBRANCH  36  49
BRANCH  10  74
ATOM     74  C   UNL     1      14.216  -1.993   0.000  0.00  0.00    +0.000 C 
ATOM     75  C   UNL     1      14.881  -2.481   0.000  0.00  0.00    +0.000 C 
ATOM     76  C   UNL     1      14.306  -1.173   0.000  0.00  0.00    +0.000 C 
ENDBRANCH  10  74
BRANCH  23  77
ATOM     77  C   UNL     1      10.131  -8.498   0.000  0.00  0.00    +0.000 C 
ATOM     78  O   UNL     1       9.431  -8.935   0.000  0.00  0.00    +0.000 OA
BRANCH  77  79
ATOM     79  C   UNL     1      10.859  -8.885   0.000  0.00  0.00    +0.000 A 
ATOM     80  C   UNL     1      11.559  -8.448   0.000  0.00  0.00    +0.000 A 
ATOM     81  C   UNL     1      12.287  -8.835   0.000  0.00  0.00    +0.000 A 
ATOM     82  C   UNL     1      12.316  -9.659   0.000  0.00  0.00    +0.000 A 
ATOM     83  C   UNL     1      11.617 -10.097   0.000  0.00  0.00    +0.000 A 
ATOM     84  C   UNL     1      10.888  -9.710   0.000  0.00  0.00    +0.000 A 
ENDBRANCH  77  79
ENDBRANCH  23  77
BRANCH  48  85
ATOM     85  C   UNL     1       9.304   0.732   0.000  0.00  0.00    +0.000 C 
BRANCH  85  86
ATOM     86  C   UNL     1       8.538   1.038   0.000  0.00  0.00    +0.000 C 
ATOM     87  O   UNL     1       8.420   1.855   0.000  0.00  0.00    +0.000 OA
ATOM     88  N   UNL     1       7.890   0.528   0.000  0.00  0.00    +0.000 NA
ATOM     89  C   UNL     1       7.124   0.834   0.000  0.00  0.00    +0.000 C 
ENDBRANCH  85  86
ENDBRANCH  48  85
BRANCH  13  90
ATOM     90  C   UNL     1      12.227  -4.649   0.000  0.00  0.00    +0.000 C 
BRANCH  90  91
ATOM     91  O   UNL     1      11.480  -4.299   0.000  0.00  0.00    +0.000 OA
ATOM     92  C   UNL     1      11.409  -3.477   0.000  0.00  0.00    +0.000 C 
ENDBRANCH  90  91
ENDBRANCH  13  90
TORSDOF 17
