REMARK  Name = 
REMARK  2 active torsions:
REMARK  status: ('A' for Active; 'I' for Inactive)
REMARK    1  A    between atoms: C_6  and  C_7
REMARK    2  A    between atoms: C_7  and  C_8
REMARK                            x       y       z     vdW  Elec       q    Type
REMARK                         _______ _______ _______ _____ _____    ______ ____
ROOT
ATOM      1  C   UNL     1       0.000  -1.650   0.000  0.00  0.00    +0.000 A 
ATOM      2  C   UNL     1       0.000  -2.475   0.000  0.00  0.00    +0.000 A 
ATOM      3  C   UNL     1      -0.715  -2.888   0.000  0.00  0.00    +0.000 A 
ATOM      4  C   UNL     1      -1.429  -2.475   0.000  0.00  0.00    +0.000 A 
ATOM      5  C   UNL     1      -1.429  -1.650   0.000  0.00  0.00    +0.000 A 
ATOM      6  C   UNL     1      -0.715  -1.238   0.000  0.00  0.00    +0.000 A 
ATOM      7  O   UNL     1      -2.143  -2.888   0.000  0.00  0.00    +0.000 OA
ATOM      8  O   UNL     1      -0.715  -3.712   0.000  0.00  0.00    +0.000 OA
ENDROOT
BRANCH   6   9
ATOM      9  C   UNL     1      -0.715  -0.412   0.000  0.00  0.00    +0.000 C 
ATOM     10  O   UNL     1       0.000   0.000   0.000  0.00  0.00    +0.000 OA
BRANCH   9  11
ATOM     11  C   UNL     1      -1.429   0.000   0.000  0.00  0.00    +0.000 C 
ATOM     12  C   UNL     1      -2.143  -0.412   0.000  0.00  0.00    +0.000 C 
ATOM     13  C   UNL     1      -2.858   0.000   0.000  0.00  0.00    +0.000 C 
ATOM     14  C   UNL     1      -2.858   0.825   0.000  0.00  0.00    +0.000 C 
ATOM     15  C   UNL     1      -2.143   1.238   0.000  0.00  0.00    +0.000 C 
ATOM     16  N   UNL     1      -1.429   0.825   0.000  0.00  0.00    +0.000 NA
ENDBRANCH   9  11
ENDBRANCH   6   9
TORSDOF 2
