REMARK  Name = 
REMARK  0 active torsions:
REMARK  status: ('A' for Active; 'I' for Inactive)
REMARK                            x       y       z     vdW  Elec       q    Type
REMARK                         _______ _______ _______ _____ _____    ______ ____
ROOT
ATOM      1 CL   UNL     1       1.429  -1.237   0.000  0.00  0.00    +0.000 Cl
ATOM      2  C   UNL     1      -0.715   0.000   0.000  0.00  0.00    +0.000 A 
ATOM      3  C   UNL     1       0.000   0.412   0.000  0.00  0.00    +0.000 A 
ATOM      4  C   UNL     1      -0.715  -0.825   0.000  0.00  0.00    +0.000 A 
ATOM      5  C   UNL     1       0.000  -1.237   0.000  0.00  0.00    +0.000 A 
ATOM      6  C   UNL     1       0.715  -0.825   0.000  0.00  0.00    +0.000 A 
ATOM      7  C   UNL     1       0.715   0.000   0.000  0.00  0.00    +0.000 A 
ATOM      8 CL   UNL     1      -1.429  -1.237   0.000  0.00  0.00    +0.000 Cl
ATOM      9 CL   UNL     1       0.000   1.237   0.000  0.00  0.00    +0.000 Cl
ENDROOT
TORSDOF 0
