REMARK  Name = 
REMARK  5 active torsions:
REMARK  status: ('A' for Active; 'I' for Inactive)
REMARK    1  A    between atoms: C_1  and  C_3
REMARK    2  A    between atoms: C_3  and  N_7
REMARK    3  A    between atoms: N_12  and  C_14
REMARK    4  A    between atoms: N_12  and  N_15
REMARK    5  A    between atoms: C_14  and  C_16
REMARK                            x       y       z     vdW  Elec       q    Type
REMARK                         _______ _______ _______ _____ _____    ______ ____
ROOT
ATOM      1  C   UNL     1      -0.714   0.412   0.000  0.00  0.00    +0.000 C 
ENDROOT
BRANCH   1   2
ATOM      2  C   UNL     1      -1.429   0.000   0.000  0.00  0.00    +0.000 A 
ATOM      3  C   UNL     1      -1.429  -0.825   0.000  0.00  0.00    +0.000 A 
ATOM      4  C   UNL     1      -2.143   0.412   0.000  0.00  0.00    +0.000 A 
ATOM      5  N   UNL     1      -2.143  -1.237   0.000  0.00  0.00    +0.000 NA
ATOM      6  N   UNL     1      -0.714  -1.237   0.000  0.00  0.00    +0.000 NA
ATOM      7  N   UNL     1      -2.858   0.000   0.000  0.00  0.00    +0.000 NA
ATOM      8  C   UNL     1      -2.858  -0.825   0.000  0.00  0.00    +0.000 A 
ATOM      9  C   UNL     1      -3.572  -1.237   0.000  0.00  0.00    +0.000 C 
ENDBRANCH   1   2
BRANCH   1  10
ATOM     10  N   UNL     1       0.000   0.000   0.000  0.00  0.00    +0.000 NA
ATOM     11  C   UNL     1       0.714   0.412   0.000  0.00  0.00    +0.000 C 
ATOM     12  N   UNL     1       1.429   0.000   0.000  0.00  0.00    +0.000 N 
ATOM     13  O   UNL     1       0.714   1.237   0.000  0.00  0.00    +0.000 OA
BRANCH  12  14
ATOM     14  N   UNL     1       1.429  -0.825   0.000  0.00  0.00    +0.000 NA
ATOM     15  O   UNL     1       2.143  -1.237   0.000  0.00  0.00    +0.000 OA
ENDBRANCH  12  14
BRANCH  12  16
ATOM     16  C   UNL     1       2.143   0.412   0.000  0.00  0.00    +0.000 C 
BRANCH  16  17
ATOM     17  C   UNL     1       2.858   0.000   0.000  0.00  0.00    +0.000 C 
ATOM     18 CL   UNL     1       3.572   0.412   0.000  0.00  0.00    +0.000 Cl
ENDBRANCH  16  17
ENDBRANCH  12  16
ENDBRANCH   1  10
TORSDOF 5
