REMARK  Name = 
REMARK  4 active torsions:
REMARK  status: ('A' for Active; 'I' for Inactive)
REMARK    1  A    between atoms: C_2  and  O_27
REMARK    2  A    between atoms: C_8  and  C_11
REMARK    3  A    between atoms: N_12  and  C_13
REMARK    4  A    between atoms: C_17  and  C_20
REMARK                            x       y       z     vdW  Elec       q    Type
REMARK                         _______ _______ _______ _____ _____    ______ ____
ROOT
ATOM      1  C   UNL     1      -2.501  -0.206   0.000  0.00  0.00    +0.000 A 
ATOM      2  C   UNL     1      -3.215   0.206   0.000  0.00  0.00    +0.000 A 
ATOM      3  C   UNL     1      -3.929  -0.206   0.000  0.00  0.00    +0.000 A 
ATOM      4  C   UNL     1      -3.929  -1.031   0.000  0.00  0.00    +0.000 A 
ATOM      5  C   UNL     1      -3.215  -1.444   0.000  0.00  0.00    +0.000 A 
ATOM      6  C   UNL     1      -2.501  -1.031   0.000  0.00  0.00    +0.000 A 
ATOM      7  C   UNL     1      -1.786   0.206   0.000  0.00  0.00    +0.000 A 
ATOM      8  C   UNL     1      -1.072  -0.206   0.000  0.00  0.00    +0.000 A 
ATOM      9  C   UNL     1      -1.072  -1.031   0.000  0.00  0.00    +0.000 A 
ATOM     10  N   UNL     1      -1.786  -1.444   0.000  0.00  0.00    +0.000 N 
ATOM     11  O   UNL     1      -0.357  -1.444   0.000  0.00  0.00    +0.000 OA
ATOM     12  O   UNL     1      -1.786   1.031   0.000  0.00  0.00    +0.000 OA
ATOM     13  C   UNL     1      -1.786  -2.269   0.000  0.00  0.00    +0.000 C 
ENDROOT
BRANCH   8  14
ATOM     14  C   UNL     1      -0.357   0.206   0.000  0.00  0.00    +0.000 C 
ATOM     15  N   UNL     1       0.357  -0.206   0.000  0.00  0.00    +0.000 N 
ATOM     16  C   UNL     1       0.357  -1.031   0.000  0.00  0.00    +0.000 C 
ATOM     17  O   UNL     1      -0.357   1.031   0.000  0.00  0.00    +0.000 OA
BRANCH  15  18
ATOM     18  C   UNL     1       1.072   0.206   0.000  0.00  0.00    +0.000 A 
ATOM     19  C   UNL     1       1.786  -0.206   0.000  0.00  0.00    +0.000 A 
ATOM     20  C   UNL     1       2.501   0.206   0.000  0.00  0.00    +0.000 A 
ATOM     21  C   UNL     1       2.501   1.031   0.000  0.00  0.00    +0.000 A 
ATOM     22  C   UNL     1       1.786   1.444   0.000  0.00  0.00    +0.000 A 
ATOM     23  C   UNL     1       1.072   1.031   0.000  0.00  0.00    +0.000 A 
BRANCH  21  24
ATOM     24  C   UNL     1       3.215   1.444   0.000  0.00  0.00    +0.000 C 
ATOM     25  F   UNL     1       3.215   2.269   0.000  0.00  0.00    +0.000 F 
ATOM     26  F   UNL     1       3.930   1.031   0.000  0.00  0.00    +0.000 F 
ATOM     27  F   UNL     1       3.930   1.856   0.000  0.00  0.00    +0.000 F 
ENDBRANCH  21  24
ENDBRANCH  15  18
ENDBRANCH   8  14
BRANCH   2  28
ATOM     28  O   UNL     1      -3.215   1.031   0.000  0.00  0.00    +0.000 OA
ATOM     29  C   UNL     1      -3.929   1.444   0.000  0.00  0.00    +0.000 C 
ENDBRANCH   2  28
TORSDOF 4
