REMARK  Name = 
REMARK  3 active torsions:
REMARK  status: ('A' for Active; 'I' for Inactive)
REMARK    1  A    between atoms: N_2  and  C_10
REMARK    2  A    between atoms: N_2  and  C_11
REMARK    3  A    between atoms: C_3  and  C_4
REMARK                            x       y       z     vdW  Elec       q    Type
REMARK                         _______ _______ _______ _____ _____    ______ ____
ROOT
ATOM      1  C   UNL     1       0.000   0.206   0.000  0.00  0.00    +0.000 A 
ATOM      2  C   UNL     1       0.000   1.031   0.000  0.00  0.00    +0.000 A 
ATOM      3  C   UNL     1       0.714  -0.206   0.000  0.00  0.00    +0.000 A 
ATOM      4  C   UNL     1       0.714   1.444   0.000  0.00  0.00    +0.000 A 
ATOM      5  C   UNL     1       1.429   0.206   0.000  0.00  0.00    +0.000 A 
ATOM      6  C   UNL     1       1.429   1.031   0.000  0.00  0.00    +0.000 A 
ATOM      7  C   UNL     1       0.714   2.269   0.000  0.00  0.00    +0.000 C 
ENDROOT
BRANCH   1  10
ATOM      8  O   UNL     1      -1.429   0.206   0.000  0.00  0.00    +0.000 OA
ATOM      9  N   UNL     1      -0.715  -1.031   0.000  0.00  0.00    +0.000 N 
ATOM     10  C   UNL     1      -0.715  -0.206   0.000  0.00  0.00    +0.000 C 
BRANCH   9  11
ATOM     11  C   UNL     1      -1.429  -1.444   0.000  0.00  0.00    +0.000 C 
ATOM     12  C   UNL     1      -1.429  -2.269   0.000  0.00  0.00    +0.000 C 
ENDBRANCH   9  11
BRANCH   9  13
ATOM     13  C   UNL     1       0.000  -1.444   0.000  0.00  0.00    +0.000 C 
ATOM     14  C   UNL     1       0.000  -2.269   0.000  0.00  0.00    +0.000 C 
ENDBRANCH   9  13
ENDBRANCH   1  10
TORSDOF 3
