REMARK  Name = 
REMARK  7 active torsions:
REMARK  status: ('A' for Active; 'I' for Inactive)
REMARK    1  A    between atoms: C_2  and  N_3
REMARK    2  A    between atoms: C_4  and  C_6
REMARK    3  A    between atoms: C_7  and  C_9
REMARK    4  A    between atoms: C_10  and  C_11
REMARK    5  A    between atoms: C_12  and  C_14
REMARK    6  A    between atoms: C_15  and  C_16
REMARK    7  A    between atoms: C_19  and  O_24
REMARK                            x       y       z     vdW  Elec       q    Type
REMARK                         _______ _______ _______ _____ _____    ______ ____
ROOT
ATOM      1  C   UNL     1       0.715   3.712   0.000  0.00  0.00    +0.000 C 
ATOM      2  C   UNL     1       0.000   3.300   0.000  0.00  0.00    +0.000 C 
ATOM      3  C   UNL     1      -0.715   3.712   0.000  0.00  0.00    +0.000 C 
ENDROOT
BRANCH   2   4
ATOM      4  C   UNL     1       0.000   2.475   0.000  0.00  0.00    +0.000 C 
ATOM      5  C   UNL     1       0.715   2.062   0.000  0.00  0.00    +0.000 C 
BRANCH   5   6
ATOM      6  C   UNL     1       0.715   1.238   0.000  0.00  0.00    +0.000 A 
ATOM      7  C   UNL     1       1.429   0.825   0.000  0.00  0.00    +0.000 A 
ATOM      8  C   UNL     1       1.429   0.000   0.000  0.00  0.00    +0.000 A 
ATOM      9  C   UNL     1       0.715  -0.412   0.000  0.00  0.00    +0.000 A 
ATOM     10  C   UNL     1       0.000   0.000   0.000  0.00  0.00    +0.000 A 
ATOM     11  C   UNL     1       0.000   0.825   0.000  0.00  0.00    +0.000 A 
ATOM     12  C   UNL     1      -0.715   1.238   0.000  0.00  0.00    +0.000 C 
ATOM     13  C   UNL     1      -0.715  -0.412   0.000  0.00  0.00    +0.000 C 
ATOM     14  C   UNL     1       2.143   1.238   0.000  0.00  0.00    +0.000 C 
BRANCH   9  15
ATOM     15  O   UNL     1       0.715  -1.238   0.000  0.00  0.00    +0.000 OA
ATOM     16  C   UNL     1       1.429  -1.650   0.000  0.00  0.00    +0.000 C 
ENDBRANCH   9  15
ENDBRANCH   5   6
ENDBRANCH   2   4
BRANCH   1  18
ATOM     17  C   UNL     1       1.429   4.950   0.000  0.00  0.00    +0.000 C 
ATOM     18  C   UNL     1       0.715   4.537   0.000  0.00  0.00    +0.000 C 
BRANCH  17  20
ATOM     19  C   UNL     1       2.143   6.188   0.000  0.00  0.00    +0.000 C 
ATOM     20  C   UNL     1       1.429   5.775   0.000  0.00  0.00    +0.000 C 
ATOM     21  C   UNL     1       0.715   6.188   0.000  0.00  0.00    +0.000 C 
BRANCH  19  23
ATOM     22  N   UNL     1       2.858   7.425   0.000  0.00  0.00    +0.000 NA
ATOM     23  C   UNL     1       2.143   7.013   0.000  0.00  0.00    +0.000 C 
ATOM     24  O   UNL     1       1.429   7.425   0.000  0.00  0.00    +0.000 OA
BRANCH  22  26
ATOM     25  C   UNL     1       3.572   8.662   0.000  0.00  0.00    +0.000 C 
ATOM     26  C   UNL     1       2.858   8.250   0.000  0.00  0.00    +0.000 C 
ENDBRANCH  22  26
ENDBRANCH  19  23
ENDBRANCH  17  20
ENDBRANCH   1  18
TORSDOF 7
