REMARK  Name = 
REMARK  9 active torsions:
REMARK  status: ('A' for Active; 'I' for Inactive)
REMARK    1  A    between atoms: C_5  and  C_9
REMARK    2  A    between atoms: C_8  and  C_9
REMARK    3  A    between atoms: C_11  and  O_15
REMARK    4  A    between atoms: C_14  and  C_24
REMARK    5  A    between atoms: O_15  and  C_16
REMARK    6  A    between atoms: C_16  and  C_17
REMARK    7  A    between atoms: C_17  and  N_18
REMARK    8  A    between atoms: N_18  and  C_19
REMARK    9  A    between atoms: N_18  and  C_21
REMARK                            x       y       z     vdW  Elec       q    Type
REMARK                         _______ _______ _______ _____ _____    ______ ____
ROOT
ATOM      1  C   UNL     1      -2.115  -0.409   0.000  0.00  0.00    +0.000 C 
ATOM      2  C   UNL     1      -2.115   0.418   0.000  0.00  0.00    +0.000 C 
ATOM      3 CL   UNL     1      -2.831   0.827   0.000  0.00  0.00    +0.000 Cl
ENDROOT
BRANCH   1   8
ATOM      4  C   UNL     1      -4.264  -0.827   0.000  0.00  0.00    +0.000 A 
ATOM      5  C   UNL     1      -4.264  -1.654   0.000  0.00  0.00    +0.000 A 
ATOM      6  C   UNL     1      -3.564  -2.063   0.000  0.00  0.00    +0.000 A 
ATOM      7  C   UNL     1      -2.814  -1.654   0.000  0.00  0.00    +0.000 A 
ATOM      8  C   UNL     1      -2.814  -0.827   0.000  0.00  0.00    +0.000 A 
ATOM      9  C   UNL     1      -3.564  -0.409   0.000  0.00  0.00    +0.000 A 
ENDBRANCH   1   8
BRANCH   1  11
ATOM     10  C   UNL     1      -1.415  -1.654   0.000  0.00  0.00    +0.000 A 
ATOM     11  C   UNL     1      -1.415  -0.827   0.000  0.00  0.00    +0.000 A 
ATOM     12  C   UNL     1      -0.665  -2.063   0.000  0.00  0.00    +0.000 A 
ATOM     13  C   UNL     1       0.034  -1.654   0.000  0.00  0.00    +0.000 A 
ATOM     14  C   UNL     1       0.034  -0.827   0.000  0.00  0.00    +0.000 A 
ATOM     15  C   UNL     1      -0.665  -0.409   0.000  0.00  0.00    +0.000 A 
BRANCH  13  16
ATOM     16  O   UNL     1       0.750  -2.063   0.000  0.00  0.00    +0.000 OA
BRANCH  16  17
ATOM     17  C   UNL     1       1.458  -1.654   0.000  0.00  0.00    +0.000 C 
BRANCH  17  18
ATOM     18  C   UNL     1       2.157  -2.055   0.000  0.00  0.00    +0.000 C 
BRANCH  18  19
ATOM     19  N   UNL     1       2.857  -1.646   0.000  0.00  0.00    +0.000 NA
BRANCH  19  20
ATOM     20  C   UNL     1       2.857  -0.827   0.000  0.00  0.00    +0.000 C 
ATOM     21  C   UNL     1       3.564  -0.409   0.000  0.00  0.00    +0.000 C 
ENDBRANCH  19  20
BRANCH  19  22
ATOM     22  C   UNL     1       3.564  -2.055   0.000  0.00  0.00    +0.000 C 
ATOM     23  C   UNL     1       4.264  -1.646   0.000  0.00  0.00    +0.000 C 
ENDBRANCH  19  22
ENDBRANCH  18  19
ENDBRANCH  17  18
ENDBRANCH  16  17
ENDBRANCH  13  16
ENDBRANCH   1  11
BRANCH   2  24
ATOM     24  C   UNL     1      -1.398   0.827   0.000  0.00  0.00    +0.000 A 
ATOM     25  C   UNL     1      -0.708   0.426   0.000  0.00  0.00    +0.000 A 
ATOM     26  C   UNL     1       0.008   0.836   0.000  0.00  0.00    +0.000 A 
ATOM     27  C   UNL     1       0.008   1.663   0.000  0.00  0.00    +0.000 A 
ATOM     28  C   UNL     1      -0.682   2.063   0.000  0.00  0.00    +0.000 A 
ATOM     29  C   UNL     1      -1.398   1.654   0.000  0.00  0.00    +0.000 A 
ENDBRANCH   2  24
TORSDOF 9
