REMARK  Name = 
REMARK  3 active torsions:
REMARK  status: ('A' for Active; 'I' for Inactive)
REMARK    1  A    between atoms: C_10  and  C_11
REMARK    2  A    between atoms: N_24  and  C_25
REMARK    3  A    between atoms: C_25  and  C_26
REMARK                            x       y       z     vdW  Elec       q    Type
REMARK                         _______ _______ _______ _____ _____    ______ ____
ROOT
ATOM      1  C   UNL     1       4.258  -0.814   0.000  0.00  0.00    +0.000 C 
ATOM      2  O   UNL     1       5.064  -0.642   0.000  0.00  0.00    +0.000 OA
ATOM      3  N   UNL     1       3.705  -0.201   0.000  0.00  0.00    +0.000 N 
ATOM      4  C   UNL     1       3.960   0.584   0.000  0.00  0.00    +0.000 C 
ATOM      5  C   UNL     1       3.408   1.197   0.000  0.00  0.00    +0.000 C 
ATOM      6  C   UNL     1       2.601   1.026   0.000  0.00  0.00    +0.000 A 
ATOM      7  C   UNL     1       2.346   0.241   0.000  0.00  0.00    +0.000 A 
ATOM      8  C   UNL     1       1.521   0.241   0.000  0.00  0.00    +0.000 A 
ATOM      9  C   UNL     1       0.969  -0.372   0.000  0.00  0.00    +0.000 A 
ATOM     10  C   UNL     1       0.162  -0.201   0.000  0.00  0.00    +0.000 A 
ATOM     11  C   UNL     1      -0.092   0.584   0.000  0.00  0.00    +0.000 A 
ATOM     12  C   UNL     1       0.460   1.197   0.000  0.00  0.00    +0.000 A 
ATOM     13  C   UNL     1       1.266   1.026   0.000  0.00  0.00    +0.000 A 
ATOM     14  N   UNL     1       1.934   1.510   0.000  0.00  0.00    +0.000 N 
ATOM     15  F   UNL     1      -0.390  -0.814   0.000  0.00  0.00    +0.000 F 
ATOM     16  C   UNL     1       2.898  -0.372   0.000  0.00  0.00    +0.000 C 
ENDROOT
BRANCH   1  26
ATOM     17  C   UNL     1       5.659  -3.438   0.000  0.00  0.00    +0.000 A 
ATOM     18  C   UNL     1       5.914  -2.653   0.000  0.00  0.00    +0.000 A 
ATOM     19  C   UNL     1       5.362  -2.040   0.000  0.00  0.00    +0.000 A 
ATOM     20  C   UNL     1       4.555  -2.211   0.000  0.00  0.00    +0.000 A 
ATOM     21  C   UNL     1       4.300  -2.996   0.000  0.00  0.00    +0.000 A 
ATOM     22  C   UNL     1       4.852  -3.609   0.000  0.00  0.00    +0.000 A 
ATOM     23  C   UNL     1       3.493  -3.168   0.000  0.00  0.00    +0.000 A 
ATOM     24  C   UNL     1       2.941  -2.554   0.000  0.00  0.00    +0.000 A 
ATOM     25  C   UNL     1       3.196  -1.770   0.000  0.00  0.00    +0.000 A 
ATOM     26  C   UNL     1       4.003  -1.598   0.000  0.00  0.00    +0.000 A 
ENDBRANCH   1  26
BRANCH  14  27
ATOM     27  C   UNL     1       1.934   2.336   0.000  0.00  0.00    +0.000 C 
BRANCH  27  28
ATOM     28  C   UNL     1       2.648   2.748   0.000  0.00  0.00    +0.000 C 
ATOM     29  O   UNL     1       2.648   3.573   0.000  0.00  0.00    +0.000 OA
ATOM     30  O   UNL     1       3.363   2.336   0.000  0.00  0.00    +0.000 OA
ENDBRANCH  27  28
ENDBRANCH  14  27
TORSDOF 3
