REMARK  Name = 
REMARK  5 active torsions:
REMARK  status: ('A' for Active; 'I' for Inactive)
REMARK    1  A    between atoms: O_2  and  C_3
REMARK    2  A    between atoms: C_8  and  N_9
REMARK    3  A    between atoms: N_12  and  C_13
REMARK    4  A    between atoms: N_21  and  C_22
REMARK    5  A    between atoms: C_22  and  C_23
REMARK                            x       y       z     vdW  Elec       q    Type
REMARK                         _______ _______ _______ _____ _____    ______ ____
ROOT
ATOM      1  C   UNL     1       3.279   1.238   0.000  0.00  0.00    +0.000 A 
ATOM      2  C   UNL     1       3.993   0.825   0.000  0.00  0.00    +0.000 A 
ATOM      3  C   UNL     1       3.993   0.000   0.000  0.00  0.00    +0.000 A 
ATOM      4  C   UNL     1       3.279  -0.412   0.000  0.00  0.00    +0.000 A 
ATOM      5  C   UNL     1       2.564   0.000   0.000  0.00  0.00    +0.000 A 
ATOM      6  C   UNL     1       2.564   0.825   0.000  0.00  0.00    +0.000 A 
ATOM      7  C   UNL     1       1.780   1.080   0.000  0.00  0.00    +0.000 A 
ATOM      8  C   UNL     1       1.295   0.412   0.000  0.00  0.00    +0.000 A 
ATOM      9  N   UNL     1       1.780  -0.255   0.000  0.00  0.00    +0.000 N 
ENDROOT
BRANCH   1  13
ATOM     10  N   UNL     1       3.993   3.300   0.000  0.00  0.00    +0.000 NA
ATOM     11  C   UNL     1       3.993   2.475   0.000  0.00  0.00    +0.000 C 
ATOM     12  O   UNL     1       4.708   2.062   0.000  0.00  0.00    +0.000 OA
ATOM     13  N   UNL     1       3.279   2.062   0.000  0.00  0.00    +0.000 NA
BRANCH  10  19
ATOM     14  C   UNL     1       4.708   4.537   0.000  0.00  0.00    +0.000 A 
ATOM     15  C   UNL     1       5.422   4.950   0.000  0.00  0.00    +0.000 A 
ATOM     16  C   UNL     1       6.137   4.537   0.000  0.00  0.00    +0.000 A 
ATOM     17  C   UNL     1       6.137   3.712   0.000  0.00  0.00    +0.000 A 
ATOM     18  C   UNL     1       5.422   3.300   0.000  0.00  0.00    +0.000 A 
ATOM     19  C   UNL     1       4.708   3.712   0.000  0.00  0.00    +0.000 A 
ATOM     20 BR   UNL     1       6.851   3.300   0.000  0.00  0.00    +0.000 Br
BRANCH  14  22
ATOM     21  C   UNL     1       3.993   5.775   0.000  0.00  0.00    +0.000 C 
ATOM     22  O   UNL     1       3.993   4.950   0.000  0.00  0.00    +0.000 OA
ENDBRANCH  14  22
ENDBRANCH  10  19
ENDBRANCH   1  13
BRANCH   9  23
ATOM     23  C   UNL     1       1.525  -1.040   0.000  0.00  0.00    +0.000 C 
BRANCH  23  24
ATOM     24  C   UNL     1       0.718  -1.211   0.000  0.00  0.00    +0.000 A 
ATOM     25  C   UNL     1       0.463  -1.996   0.000  0.00  0.00    +0.000 A 
ATOM     26  C   UNL     1      -0.344  -2.167   0.000  0.00  0.00    +0.000 A 
ATOM     27  N   UNL     1      -0.896  -1.554   0.000  0.00  0.00    +0.000 NA
ATOM     28  C   UNL     1      -0.641  -0.769   0.000  0.00  0.00    +0.000 A 
ATOM     29  C   UNL     1       0.166  -0.598   0.000  0.00  0.00    +0.000 A 
ATOM     30  N   UNL     1      -1.193  -0.156   0.000  0.00  0.00    +0.000 NA
ENDBRANCH  23  24
ENDBRANCH   9  23
TORSDOF 5
