REMARK  Name = 
REMARK  8 active torsions:
REMARK  status: ('A' for Active; 'I' for Inactive)
REMARK    1  A    between atoms: C_2  and  C_3
REMARK    2  A    between atoms: C_2  and  O_24
REMARK    3  A    between atoms: C_12  and  C_13
REMARK    4  A    between atoms: O_24  and  C_25
REMARK    5  A    between atoms: C_25  and  C_26
REMARK    6  A    between atoms: N_28  and  C_29
REMARK    7  A    between atoms: C_29  and  C_30
REMARK    8  A    between atoms: C_30  and  C_31
REMARK                            x       y       z     vdW  Elec       q    Type
REMARK                         _______ _______ _______ _____ _____    ______ ____
ROOT
ATOM      1  C   UNL     1      -3.104   0.404   0.000  0.00  0.00    +0.000 C 
ATOM      2  C   UNL     1      -3.858   0.740   0.000  0.00  0.00    +0.000 C 
ATOM      3  C   UNL     1      -4.410   0.127   0.000  0.00  0.00    +0.000 C 
ATOM      4  C   UNL     1      -3.997  -0.588   0.000  0.00  0.00    +0.000 C 
ATOM      5  C   UNL     1      -3.190  -0.416   0.000  0.00  0.00    +0.000 C 
ATOM      6  C   UNL     1      -2.638  -1.030   0.000  0.00  0.00    +0.000 C 
ATOM      7  C   UNL     1      -2.893  -1.814   0.000  0.00  0.00    +0.000 C 
ATOM      8  C   UNL     1      -3.700  -1.986   0.000  0.00  0.00    +0.000 C 
ATOM      9  C   UNL     1      -4.252  -1.373   0.000  0.00  0.00    +0.000 C 
ATOM     10  C   UNL     1      -5.059  -1.544   0.000  0.00  0.00    +0.000 C 
ATOM     11  C   UNL     1      -2.406  -0.161   0.000  0.00  0.00    +0.000 C 
ENDROOT
BRANCH  10  12
ATOM     12  C   UNL     1      -5.314  -2.329   0.000  0.00  0.00    +0.000 C 
ATOM     13  C   UNL     1      -6.121  -2.500   0.000  0.00  0.00    +0.000 C 
ATOM     14  C   UNL     1      -6.376  -3.285   0.000  0.00  0.00    +0.000 C 
ATOM     15  C   UNL     1      -7.183  -3.456   0.000  0.00  0.00    +0.000 C 
ATOM     16  C   UNL     1      -7.735  -2.843   0.000  0.00  0.00    +0.000 C 
ATOM     17  C   UNL     1      -7.480  -2.059   0.000  0.00  0.00    +0.000 C 
ATOM     18  C   UNL     1      -6.673  -1.887   0.000  0.00  0.00    +0.000 C 
ATOM     19  C   UNL     1      -6.418  -1.103   0.000  0.00  0.00    +0.000 C 
ATOM     20  O   UNL     1      -8.032  -1.446   0.000  0.00  0.00    +0.000 OA
ATOM     21  O   UNL     1      -7.438  -4.241   0.000  0.00  0.00    +0.000 OA
ENDBRANCH  10  12
BRANCH   1  23
ATOM     22  C   UNL     1      -2.389   1.642   0.000  0.00  0.00    +0.000 C 
ATOM     23  C   UNL     1      -2.389   0.817   0.000  0.00  0.00    +0.000 C 
BRANCH  23  24
ATOM     24  O   UNL     1      -1.675   0.404   0.000  0.00  0.00    +0.000 OA
BRANCH  24  25
ATOM     25  C   UNL     1      -0.961   0.817   0.000  0.00  0.00    +0.000 C 
BRANCH  25  26
ATOM     26  C   UNL     1      -0.246   0.404   0.000  0.00  0.00    +0.000 C 
ATOM     27  O   UNL     1      -0.246  -0.421   0.000  0.00  0.00    +0.000 OA
ATOM     28  N   UNL     1       0.468   0.817   0.000  0.00  0.00    +0.000 NA
BRANCH  28  29
ATOM     29  C   UNL     1       1.183   0.404   0.000  0.00  0.00    +0.000 C 
BRANCH  29  30
ATOM     30  C   UNL     1       1.897   0.817   0.000  0.00  0.00    +0.000 C 
ATOM     31  F   UNL     1       2.310   0.102   0.000  0.00  0.00    +0.000 F 
ATOM     32  F   UNL     1       1.485   1.531   0.000  0.00  0.00    +0.000 F 
BRANCH  30  33
ATOM     33  C   UNL     1       2.612   1.229   0.000  0.00  0.00    +0.000 C 
ATOM     34  F   UNL     1       3.326   1.642   0.000  0.00  0.00    +0.000 F 
ATOM     35  F   UNL     1       3.024   0.515   0.000  0.00  0.00    +0.000 F 
ATOM     36  F   UNL     1       2.199   1.944   0.000  0.00  0.00    +0.000 F 
ENDBRANCH  30  33
ENDBRANCH  29  30
ENDBRANCH  28  29
ENDBRANCH  25  26
ENDBRANCH  24  25
ENDBRANCH  23  24
ENDBRANCH   1  23
TORSDOF 8
