REMARK  Name = 
REMARK  8 active torsions:
REMARK  status: ('A' for Active; 'I' for Inactive)
REMARK    1  A    between atoms: C_2  and  C_4
REMARK    2  A    between atoms: C_4  and  C_5
REMARK    3  A    between atoms: C_12  and  O_29
REMARK    4  A    between atoms: C_13  and  O_27
REMARK    5  A    between atoms: C_18  and  O_19
REMARK    6  A    between atoms: O_19  and  C_20
REMARK    7  A    between atoms: C_20  and  C_22
REMARK    8  A    between atoms: C_22  and  C_23
REMARK                            x       y       z     vdW  Elec       q    Type
REMARK                         _______ _______ _______ _____ _____    ______ ____
ROOT
ATOM      1  C   UNL     1       3.572  -1.238   0.000  0.00  0.00    +0.000 C 
ATOM      2  C   UNL     1       2.858  -1.650   0.000  0.00  0.00    +0.000 C 
ATOM      3  N   UNL     1       2.143  -1.238   0.000  0.00  0.00    +0.000 NA
ATOM      4  C   UNL     1       1.429  -1.650   0.000  0.00  0.00    +0.000 C 
ATOM      5  C   UNL     1       0.715  -1.238   0.000  0.00  0.00    +0.000 C 
ATOM      6  C   UNL     1       0.715  -0.412   0.000  0.00  0.00    +0.000 A 
ATOM      7  C   UNL     1       0.000   0.000   0.000  0.00  0.00    +0.000 A 
ATOM      8  C   UNL     1       0.000   0.825   0.000  0.00  0.00    +0.000 A 
ATOM      9  C   UNL     1       0.715   1.238   0.000  0.00  0.00    +0.000 A 
ATOM     10  C   UNL     1       1.429   0.825   0.000  0.00  0.00    +0.000 A 
ATOM     11  C   UNL     1       1.429   0.000   0.000  0.00  0.00    +0.000 A 
ATOM     12  C   UNL     1       2.143  -0.412   0.000  0.00  0.00    +0.000 C 
ATOM     13  C   UNL     1       2.858   0.000   0.000  0.00  0.00    +0.000 C 
ATOM     14  C   UNL     1       3.572  -0.412   0.000  0.00  0.00    +0.000 C 
ENDROOT
BRANCH   9  15
ATOM     15  O   UNL     1       0.715   2.062   0.000  0.00  0.00    +0.000 OA
ATOM     16  C   UNL     1       1.429   2.475   0.000  0.00  0.00    +0.000 C 
ENDBRANCH   9  15
BRANCH   8  17
ATOM     17  O   UNL     1      -0.715   1.238   0.000  0.00  0.00    +0.000 OA
ATOM     18  C   UNL     1      -1.429   0.825   0.000  0.00  0.00    +0.000 C 
ENDBRANCH   8  17
BRANCH  14  19
ATOM     19  O   UNL     1       4.287   0.000   0.000  0.00  0.00    +0.000 OA
BRANCH  19  20
ATOM     20  C   UNL     1       5.001  -0.412   0.000  0.00  0.00    +0.000 C 
ATOM     21  O   UNL     1       5.001  -1.238   0.000  0.00  0.00    +0.000 OA
BRANCH  20  22
ATOM     22  C   UNL     1       5.716   0.000   0.000  0.00  0.00    +0.000 C 
ATOM     23  N   UNL     1       5.716   0.825   0.000  0.00  0.00    +0.000 NA
BRANCH  22  24
ATOM     24  C   UNL     1       6.430  -0.412   0.000  0.00  0.00    +0.000 C 
ATOM     25  C   UNL     1       7.145   0.000   0.000  0.00  0.00    +0.000 C 
ATOM     26  C   UNL     1       6.430  -1.238   0.000  0.00  0.00    +0.000 C 
ENDBRANCH  22  24
ENDBRANCH  20  22
ENDBRANCH  19  20
ENDBRANCH  14  19
BRANCH   1  27
ATOM     27  C   UNL     1       4.287  -1.650   0.000  0.00  0.00    +0.000 C 
BRANCH  27  29
ATOM     28  C   UNL     1       3.572  -2.888   0.000  0.00  0.00    +0.000 C 
ATOM     29  C   UNL     1       4.287  -2.475   0.000  0.00  0.00    +0.000 C 
ATOM     30  C   UNL     1       5.001  -2.888   0.000  0.00  0.00    +0.000 C 
ENDBRANCH  27  29
ENDBRANCH   1  27
TORSDOF 8
