REMARK  Name = 
REMARK  1 active torsions:
REMARK  status: ('A' for Active; 'I' for Inactive)
REMARK    1  A    between atoms: C_24  and  C_28
REMARK                            x       y       z     vdW  Elec       q    Type
REMARK                         _______ _______ _______ _____ _____    ______ ____
ROOT
ATOM      1  C   UNL     1       1.772   0.467   0.000  0.00  0.00    +0.000 C 
ATOM      2  C   UNL     1       1.011   0.786   0.000  0.00  0.00    +0.000 C 
ATOM      3  C   UNL     1       1.054   1.610   0.000  0.00  0.00    +0.000 C 
ATOM      4  O   UNL     1       0.413   2.129   0.000  0.00  0.00    +0.000 OA
ATOM      5  N   UNL     1       1.851   1.824   0.000  0.00  0.00    +0.000 NA
ATOM      6  C   UNL     1       2.300   1.132   0.000  0.00  0.00    +0.000 C 
ATOM      7  C   UNL     1       2.928   0.860   0.000  0.00  0.00    +0.000 C 
ATOM      8  S   UNL     1       3.142   0.064   0.000  0.00  0.00    +0.000 S 
ATOM      9  S   UNL     1       3.939  -0.150   0.000  0.00  0.00    +0.000 S 
ATOM     10  C   UNL     1       4.152  -0.947   0.000  0.00  0.00    +0.000 C 
ATOM     11  C   UNL     1       3.569  -1.530   0.000  0.00  0.00    +0.000 C 
ATOM     12  C   UNL     1       2.772  -1.317   0.000  0.00  0.00    +0.000 C 
ATOM     13  C   UNL     1       2.188  -1.900   0.000  0.00  0.00    +0.000 C 
ATOM     14  C   UNL     1       1.625  -1.687   0.000  0.00  0.00    +0.000 C 
ATOM     15  C   UNL     1       1.411  -0.890   0.000  0.00  0.00    +0.000 C 
ATOM     16  C   UNL     1       0.615  -0.676   0.000  0.00  0.00    +0.000 C 
ATOM     17  O   UNL     1       0.031  -1.260   0.000  0.00  0.00    +0.000 OA
ATOM     18  N   UNL     1       0.401   0.121   0.000  0.00  0.00    +0.000 NA
ATOM     19  O   UNL     1       2.550  -1.900   0.000  0.00  0.00    +0.000 OA
ATOM     20  C   UNL     1       3.134  -1.317   0.000  0.00  0.00    +0.000 C 
ATOM     21  O   UNL     1       2.920  -0.520   0.000  0.00  0.00    +0.000 OA
ATOM     22  C   UNL     1       3.930  -1.530   0.000  0.00  0.00    +0.000 C 
ATOM     23  C   UNL     1       4.514  -0.947   0.000  0.00  0.00    +0.000 C 
ATOM     24  C   UNL     1       4.300  -0.150   0.000  0.00  0.00    +0.000 C 
ATOM     25  N   UNL     1       3.503   0.064   0.000  0.00  0.00    +0.000 NA
ATOM     26  C   UNL     1       3.290   0.860   0.000  0.00  0.00    +0.000 C 
ATOM     27  O   UNL     1       3.875   1.442   0.000  0.00  0.00    +0.000 OA
ATOM     28  O   UNL     1       5.311  -1.161   0.000  0.00  0.00    +0.000 OA
ENDROOT
BRANCH  24  29
ATOM     29  C   UNL     1       4.884   0.433   0.000  0.00  0.00    +0.000 C 
ATOM     30  C   UNL     1       4.670   1.230   0.000  0.00  0.00    +0.000 C 
ATOM     31  C   UNL     1       5.681   0.220   0.000  0.00  0.00    +0.000 C 
ENDBRANCH  24  29
TORSDOF 1
