REMARK  Name = 
REMARK  5 active torsions:
REMARK  status: ('A' for Active; 'I' for Inactive)
REMARK    1  A    between atoms: O_2  and  C_3
REMARK    2  A    between atoms: C_9  and  C_12
REMARK    3  A    between atoms: C_12  and  C_13
REMARK    4  A    between atoms: C_13  and  N_14
REMARK    5  A    between atoms: C_15  and  C_17
REMARK                            x       y       z     vdW  Elec       q    Type
REMARK                         _______ _______ _______ _____ _____    ______ ____
ROOT
ATOM      1  C   UNL     1       2.687   1.406   0.000  0.00  0.00    +0.000 C 
ENDROOT
BRANCH   1   8
ATOM      2  C   UNL     1       0.157   0.527   0.000  0.00  0.00    +0.000 A 
ATOM      3  C   UNL     1      -0.396   1.140   0.000  0.00  0.00    +0.000 A 
ATOM      4  C   UNL     1      -0.141   1.925   0.000  0.00  0.00    +0.000 A 
ATOM      5  C   UNL     1       0.666   2.096   0.000  0.00  0.00    +0.000 A 
ATOM      6  C   UNL     1       1.218   1.483   0.000  0.00  0.00    +0.000 A 
ATOM      7  C   UNL     1       0.964   0.698   0.000  0.00  0.00    +0.000 A 
ATOM      8  C   UNL     1       1.972   1.819   0.000  0.00  0.00    +0.000 A 
ATOM      9  C   UNL     1       1.886   2.639   0.000  0.00  0.00    +0.000 A 
ATOM     10  N   UNL     1       1.079   2.811   0.000  0.00  0.00    +0.000 NA
BRANCH   2  12
ATOM     11  C   UNL     1      -0.905  -0.429   0.000  0.00  0.00    +0.000 C 
ATOM     12  O   UNL     1      -0.098  -0.258   0.000  0.00  0.00    +0.000 OA
ENDBRANCH   2  12
ENDBRANCH   1   8
BRANCH   1  13
ATOM     13  C   UNL     1       3.401   1.819   0.000  0.00  0.00    +0.000 C 
BRANCH  13  14
ATOM     14  N   UNL     1       4.115   1.406   0.000  0.00  0.00    +0.000 NA
ATOM     15  C   UNL     1       4.830   1.819   0.000  0.00  0.00    +0.000 C 
ATOM     16  O   UNL     1       4.830   2.644   0.000  0.00  0.00    +0.000 OA
BRANCH  15  17
ATOM     17  C   UNL     1       5.545   1.406   0.000  0.00  0.00    +0.000 A 
ATOM     18  C   UNL     1       6.259   1.819   0.000  0.00  0.00    +0.000 A 
ATOM     19  C   UNL     1       6.973   1.406   0.000  0.00  0.00    +0.000 A 
ATOM     20  O   UNL     1       7.688   1.819   0.000  0.00  0.00    +0.000 OA
ATOM     21  C   UNL     1       6.973   0.581   0.000  0.00  0.00    +0.000 A 
ATOM     22  C   UNL     1       6.259   0.169   0.000  0.00  0.00    +0.000 A 
ATOM     23  O   UNL     1       5.545   0.581   0.000  0.00  0.00    +0.000 OA
ENDBRANCH  15  17
ENDBRANCH  13  14
ENDBRANCH   1  13
TORSDOF 5
