REMARK  Name = 
REMARK  2 active torsions:
REMARK  status: ('A' for Active; 'I' for Inactive)
REMARK    1  A    between atoms: C_10  and  C_13
REMARK    2  A    between atoms: C_12  and  N_16
REMARK                            x       y       z     vdW  Elec       q    Type
REMARK                         _______ _______ _______ _____ _____    ______ ____
ROOT
ATOM      1  C   UNL     1       4.203   2.060   0.000  0.00  0.00    +0.000 C 
ATOM      2  C   UNL     1       3.649   0.353   0.000  0.00  0.00    +0.000 C 
ATOM      3  C   UNL     1       3.419   1.805   0.000  0.00  0.00    +0.000 A 
ATOM      4  C   UNL     1       2.751   2.290   0.000  0.00  0.00    +0.000 A 
ATOM      5  C   UNL     1       2.084   1.805   0.000  0.00  0.00    +0.000 A 
ATOM      6  N   UNL     1       3.164   1.021   0.000  0.00  0.00    +0.000 N 
ATOM      7  N   UNL     1       2.339   1.021   0.000  0.00  0.00    +0.000 N 
ATOM      8  O   UNL     1       1.299   2.060   0.000  0.00  0.00    +0.000 OA
ENDROOT
BRANCH   7  14
ATOM      9  C   UNL     1       0.884  -0.982   0.000  0.00  0.00    +0.000 A 
ATOM     10  C   UNL     1       1.704  -1.068   0.000  0.00  0.00    +0.000 A 
ATOM     11  C   UNL     1       0.548  -0.228   0.000  0.00  0.00    +0.000 A 
ATOM     12  C   UNL     1       2.189  -0.401   0.000  0.00  0.00    +0.000 A 
ATOM     13  C   UNL     1       1.033   0.439   0.000  0.00  0.00    +0.000 A 
ATOM     14  C   UNL     1       1.854   0.353   0.000  0.00  0.00    +0.000 A 
ENDBRANCH   7  14
BRANCH   4  17
ATOM     15  C   UNL     1       3.466   3.528   0.000  0.00  0.00    +0.000 C 
ATOM     16  C   UNL     1       2.037   3.528   0.000  0.00  0.00    +0.000 C 
ATOM     17  C   UNL     1       2.751   3.115   0.000  0.00  0.00    +0.000 C 
ENDBRANCH   4  17
TORSDOF 2
