REMARK  Name = 
REMARK  0 active torsions:
REMARK  status: ('A' for Active; 'I' for Inactive)
REMARK                            x       y       z     vdW  Elec       q    Type
REMARK                         _______ _______ _______ _____ _____    ______ ____
ROOT
ATOM      1  C   UNL     1       0.208   0.366   0.000  0.00  0.00    +0.000 C 
ATOM      2  C   UNL     1       0.999   0.129   0.000  0.00  0.00    +0.000 C 
ATOM      3  C   UNL     1       0.208  -0.107   0.000  0.00  0.00    +0.000 C 
ATOM      4  C   UNL     1       1.205   0.954   0.000  0.00  0.00    +0.000 C 
ATOM      5  C   UNL     1       0.491   0.542   0.000  0.00  0.00    +0.000 C 
ATOM      6  C   UNL     1       0.491  -0.283   0.000  0.00  0.00    +0.000 C 
ATOM      7  C   UNL     1       1.205  -0.696   0.000  0.00  0.00    +0.000 C 
ATOM      8  C   UNL     1       1.205  -1.521   0.000  0.00  0.00    +0.000 C 
ATOM      9  C   UNL     1       1.919  -0.283   0.000  0.00  0.00    +0.000 C 
ATOM     10  O   UNL     1       2.634  -0.696   0.000  0.00  0.00    +0.000 OA
ATOM     11  C   UNL     1       1.919   0.542   0.000  0.00  0.00    +0.000 C 
ENDROOT
TORSDOF 0
