REMARK  Name = 
REMARK  8 active torsions:
REMARK  status: ('A' for Active; 'I' for Inactive)
REMARK    1  A    between atoms: C_2  and  C_3
REMARK    2  A    between atoms: C_3  and  C_4
REMARK    3  A    between atoms: C_3  and  C_10
REMARK    4  A    between atoms: C_12  and  C_15
REMARK    5  A    between atoms: C_15  and  C_16
REMARK    6  A    between atoms: C_16  and  N_17
REMARK    7  A    between atoms: N_17  and  C_18
REMARK    8  A    between atoms: N_17  and  C_20
REMARK                            x       y       z     vdW  Elec       q    Type
REMARK                         _______ _______ _______ _____ _____    ______ ____
ROOT
ATOM      1  C   UNL     1      -3.657  -1.252   0.000  0.00  0.00    +0.000 A 
ATOM      2  N   UNL     1      -2.850  -1.424   0.000  0.00  0.00    +0.000 NA
ATOM      3  C   UNL     1      -2.764  -2.244   0.000  0.00  0.00    +0.000 A 
ATOM      4  O   UNL     1      -3.517  -2.580   0.000  0.00  0.00    +0.000 OA
ATOM      5  N   UNL     1      -4.069  -1.967   0.000  0.00  0.00    +0.000 NA
ENDROOT
BRANCH   1   6
ATOM      6  C   UNL     1      -3.993  -0.499   0.000  0.00  0.00    +0.000 C 
BRANCH   6   7
ATOM      7  C   UNL     1      -4.813  -0.412   0.000  0.00  0.00    +0.000 A 
ATOM      8  C   UNL     1      -5.298  -1.080   0.000  0.00  0.00    +0.000 A 
ATOM      9  C   UNL     1      -6.118  -0.994   0.000  0.00  0.00    +0.000 A 
ATOM     10  C   UNL     1      -6.454  -0.240   0.000  0.00  0.00    +0.000 A 
ATOM     11  C   UNL     1      -5.969   0.427   0.000  0.00  0.00    +0.000 A 
ATOM     12  C   UNL     1      -5.149   0.341   0.000  0.00  0.00    +0.000 A 
ENDBRANCH   6   7
BRANCH   6  14
ATOM     13  C   UNL     1      -2.687   0.083   0.000  0.00  0.00    +0.000 C 
ATOM     14  C   UNL     1      -3.508   0.169   0.000  0.00  0.00    +0.000 C 
ENDBRANCH   6  14
ENDBRANCH   1   6
BRANCH   3  15
ATOM     15  C   UNL     1      -2.049  -2.657   0.000  0.00  0.00    +0.000 C 
BRANCH  15  16
ATOM     16  C   UNL     1      -2.049  -3.482   0.000  0.00  0.00    +0.000 C 
BRANCH  16  17
ATOM     17  N   UNL     1      -1.335  -3.894   0.000  0.00  0.00    +0.000 NA
BRANCH  17  18
ATOM     18  C   UNL     1      -0.620  -3.482   0.000  0.00  0.00    +0.000 C 
ATOM     19  C   UNL     1       0.094  -3.894   0.000  0.00  0.00    +0.000 C 
ENDBRANCH  17  18
BRANCH  17  20
ATOM     20  C   UNL     1      -1.335  -4.719   0.000  0.00  0.00    +0.000 C 
ATOM     21  C   UNL     1      -0.620  -5.132   0.000  0.00  0.00    +0.000 C 
ENDBRANCH  17  20
ENDBRANCH  16  17
ENDBRANCH  15  16
ENDBRANCH   3  15
TORSDOF 8
