REMARK  Name = 
REMARK  5 active torsions:
REMARK  status: ('A' for Active; 'I' for Inactive)
REMARK    1  A    between atoms: N_10  and  C_14
REMARK    2  A    between atoms: C_12  and  O_27
REMARK    3  A    between atoms: C_15  and  O_29
REMARK    4  A    between atoms: C_16  and  O_28
REMARK    5  A    between atoms: C_18  and  N_21
REMARK                            x       y       z     vdW  Elec       q    Type
REMARK                         _______ _______ _______ _____ _____    ______ ____
ROOT
ATOM      1  N   UNL     1       1.127  -0.888   0.000  0.00  0.00    +0.000 NA
ATOM      2  C   UNL     1       0.412  -1.300   0.000  0.00  0.00    +0.000 A 
ATOM      3  C   UNL     1       1.841  -1.300   0.000  0.00  0.00    +0.000 A 
ATOM      4  N   UNL     1      -0.302  -0.888   0.000  0.00  0.00    +0.000 NA
ATOM      5  C   UNL     1       0.412  -2.125   0.000  0.00  0.00    +0.000 A 
ATOM      6  N   UNL     1       1.841  -2.125   0.000  0.00  0.00    +0.000 NA
ATOM      7  N   UNL     1       2.555  -0.888   0.000  0.00  0.00    +0.000 NA
ATOM      8  C   UNL     1       1.127  -2.538   0.000  0.00  0.00    +0.000 A 
ATOM      9  F   UNL     1      -0.302  -2.538   0.000  0.00  0.00    +0.000 F 
ENDROOT
BRANCH   4  17
ATOM     10  N   UNL     1      -3.160  -0.888   0.000  0.00  0.00    +0.000 NA
ATOM     11  C   UNL     1      -2.446  -1.300   0.000  0.00  0.00    +0.000 A 
ATOM     12  C   UNL     1      -3.875  -1.300   0.000  0.00  0.00    +0.000 C 
ATOM     13  N   UNL     1      -1.731  -0.888   0.000  0.00  0.00    +0.000 NA
ATOM     14  O   UNL     1      -3.160  -2.538   0.000  0.00  0.00    +0.000 OA
ATOM     15  C   UNL     1      -3.875  -2.125   0.000  0.00  0.00    +0.000 C 
ATOM     16  C   UNL     1      -2.446  -2.125   0.000  0.00  0.00    +0.000 A 
ATOM     17  C   UNL     1      -1.017  -1.300   0.000  0.00  0.00    +0.000 A 
ATOM     18  O   UNL     1      -4.589  -0.888   0.000  0.00  0.00    +0.000 OA
ATOM     19  C   UNL     1      -1.731  -2.538   0.000  0.00  0.00    +0.000 A 
ATOM     20  C   UNL     1      -1.017  -2.125   0.000  0.00  0.00    +0.000 A 
ATOM     21  C   UNL     1      -4.699  -2.154   0.000  0.00  0.00    +0.000 C 
ATOM     22  C   UNL     1      -4.312  -2.825   0.000  0.00  0.00    +0.000 C 
ENDBRANCH   4  17
BRANCH   7  26
ATOM     23  C   UNL     1       2.555   1.587   0.000  0.00  0.00    +0.000 A 
ATOM     24  C   UNL     1       3.270   1.175   0.000  0.00  0.00    +0.000 A 
ATOM     25  C   UNL     1       1.841   1.175   0.000  0.00  0.00    +0.000 A 
ATOM     26  C   UNL     1       2.555  -0.063   0.000  0.00  0.00    +0.000 A 
ATOM     27  C   UNL     1       3.270   0.350   0.000  0.00  0.00    +0.000 A 
ATOM     28  C   UNL     1       1.841   0.350   0.000  0.00  0.00    +0.000 A 
BRANCH  23  29
ATOM     29  O   UNL     1       2.555   2.412   0.000  0.00  0.00    +0.000 OA
ATOM     30  C   UNL     1       1.841   2.825   0.000  0.00  0.00    +0.000 C 
ENDBRANCH  23  29
BRANCH  25  31
ATOM     31  O   UNL     1       1.127   1.587   0.000  0.00  0.00    +0.000 OA
ATOM     32  C   UNL     1       0.412   1.175   0.000  0.00  0.00    +0.000 C 
ENDBRANCH  25  31
BRANCH  24  33
ATOM     33  O   UNL     1       3.985   1.587   0.000  0.00  0.00    +0.000 OA
ATOM     34  C   UNL     1       4.699   1.175   0.000  0.00  0.00    +0.000 C 
ENDBRANCH  24  33
ENDBRANCH   7  26
TORSDOF 5
