REMARK  Name = 
REMARK  5 active torsions:
REMARK  status: ('A' for Active; 'I' for Inactive)
REMARK    1  A    between atoms: C_8  and  C_12
REMARK    2  A    between atoms: C_11  and  S_14
REMARK    3  A    between atoms: C_12  and  S_15
REMARK    4  A    between atoms: S_15  and  C_20
REMARK    5  A    between atoms: C_20  and  C_21
REMARK                            x       y       z     vdW  Elec       q    Type
REMARK                         _______ _______ _______ _____ _____    ______ ____
ROOT
ATOM      1  O   UNL     1      -0.889  -1.107   0.000  0.00  0.00    +0.000 OA
ATOM      2  S   UNL     1      -0.359  -0.475   0.000  0.00  0.00    +0.000 S 
ATOM      3  O   UNL     1       0.171  -1.107   0.000  0.00  0.00    +0.000 OA
ATOM      4  C   UNL     1      -1.071  -0.059   0.000  0.00  0.00    +0.000 A 
ATOM      5  N   UNL     1       0.353  -0.059   0.000  0.00  0.00    +0.000 NA
ATOM      6  C   UNL     1      -1.071   0.771   0.000  0.00  0.00    +0.000 A 
ATOM      7  C   UNL     1      -1.783  -0.475   0.000  0.00  0.00    +0.000 A 
ATOM      8  C   UNL     1       0.353   0.771   0.000  0.00  0.00    +0.000 C 
ATOM      9  N   UNL     1      -0.359   1.187   0.000  0.00  0.00    +0.000 NA
ATOM     10  C   UNL     1      -1.783   1.187   0.000  0.00  0.00    +0.000 A 
ATOM     11  C   UNL     1      -2.495  -0.059   0.000  0.00  0.00    +0.000 A 
ATOM     12  C   UNL     1      -2.495   0.771   0.000  0.00  0.00    +0.000 A 
ATOM     13 CL   UNL     1      -3.209   1.185   0.000  0.00  0.00    +0.000 Cl
ENDROOT
BRANCH  11  14
ATOM     14  S   UNL     1      -3.209  -0.473   0.000  0.00  0.00    +0.000 S 
ATOM     15  N   UNL     1      -3.924  -0.059   0.000  0.00  0.00    +0.000 NA
ATOM     16  O   UNL     1      -3.623  -1.187   0.000  0.00  0.00    +0.000 OA
ATOM     17  O   UNL     1      -2.798  -1.187   0.000  0.00  0.00    +0.000 OA
ENDBRANCH  11  14
BRANCH   8  18
ATOM     18  C   UNL     1       1.067   1.185   0.000  0.00  0.00    +0.000 C 
BRANCH  18  19
ATOM     19  S   UNL     1       1.781   0.771   0.000  0.00  0.00    +0.000 S 
BRANCH  19  20
ATOM     20  C   UNL     1       2.495   1.185   0.000  0.00  0.00    +0.000 C 
BRANCH  20  21
ATOM     21  C   UNL     1       3.209   0.771   0.000  0.00  0.00    +0.000 C 
ATOM     22  F   UNL     1       3.924   1.185   0.000  0.00  0.00    +0.000 F 
ATOM     23  F   UNL     1       3.623   0.057   0.000  0.00  0.00    +0.000 F 
ATOM     24  F   UNL     1       2.798   0.057   0.000  0.00  0.00    +0.000 F 
ENDBRANCH  20  21
ENDBRANCH  19  20
ENDBRANCH  18  19
ENDBRANCH   8  18
TORSDOF 5
