REMARK  Name = 
REMARK  3 active torsions:
REMARK  status: ('A' for Active; 'I' for Inactive)
REMARK    1  A    between atoms: C_3  and  AS_16
REMARK    2  A    between atoms: C_6  and  N_7
REMARK    3  A    between atoms: C_19  and  C_21
REMARK                            x       y       z     vdW  Elec       q    Type
REMARK                         _______ _______ _______ _____ _____    ______ ____
ROOT
ATOM      1  C   UNL     1      -2.037  -0.474   0.000  0.00  0.00    +0.000 A 
ATOM      2  C   UNL     1      -2.037  -1.299   0.000  0.00  0.00    +0.000 A 
ATOM      3  C   UNL     1      -2.751  -1.712   0.000  0.00  0.00    +0.000 A 
ATOM      4  C   UNL     1      -3.466  -1.299   0.000  0.00  0.00    +0.000 A 
ATOM      5  C   UNL     1      -3.466  -0.474   0.000  0.00  0.00    +0.000 A 
ATOM      6  C   UNL     1      -2.751  -0.062   0.000  0.00  0.00    +0.000 A 
ENDROOT
BRANCH   6   7
ATOM      7  N   UNL     1      -2.751   0.763   0.000  0.00  0.00    +0.000 NA
ATOM      8  C   UNL     1      -3.466   1.176   0.000  0.00  0.00    +0.000 A 
ATOM      9  N   UNL     1      -4.180   0.763   0.000  0.00  0.00    +0.000 NA
ATOM     10  C   UNL     1      -4.895   1.176   0.000  0.00  0.00    +0.000 A 
ATOM     11  N   UNL     1      -4.895   2.001   0.000  0.00  0.00    +0.000 NA
ATOM     12  C   UNL     1      -4.180   2.413   0.000  0.00  0.00    +0.000 A 
ATOM     13  N   UNL     1      -3.466   2.001   0.000  0.00  0.00    +0.000 NA
ATOM     14  N   UNL     1      -4.180   3.238   0.000  0.00  0.00    +0.000 NA
ATOM     15  N   UNL     1      -5.609   0.763   0.000  0.00  0.00    +0.000 NA
ENDBRANCH   6   7
BRANCH   3  16
ATOM     16 AS   UNL     1      -2.751  -2.537   0.000  0.00  0.00    +0.000 As
ATOM     17  S   UNL     1      -2.084  -3.022   0.000  0.00  0.00    +0.000 S 
ATOM     18  C   UNL     1      -2.339  -3.806   0.000  0.00  0.00    +0.000 C 
ATOM     19  C   UNL     1      -3.164  -3.806   0.000  0.00  0.00    +0.000 C 
ATOM     20  S   UNL     1      -3.419  -3.022   0.000  0.00  0.00    +0.000 S 
BRANCH  19  21
ATOM     21  C   UNL     1      -3.649  -4.474   0.000  0.00  0.00    +0.000 C 
ATOM     22  O   UNL     1      -3.313  -5.227   0.000  0.00  0.00    +0.000 OA
ENDBRANCH  19  21
ENDBRANCH   3  16
TORSDOF 3
