REMARK  Name = 
REMARK  17 active torsions:
REMARK  status: ('A' for Active; 'I' for Inactive)
REMARK    1  A    between atoms: N_1  and  C_4
REMARK    2  A    between atoms: N_1  and  C_6
REMARK    3  A    between atoms: C_3  and  C_4
REMARK    4  A    between atoms: C_3  and  C_5
REMARK    5  A    between atoms: C_6  and  C_8
REMARK    6  A    between atoms: C_7  and  C_8
REMARK    7  A    between atoms: C_7  and  C_26
REMARK    8  A    between atoms: N_11  and  C_13
REMARK    9  A    between atoms: C_13  and  C_14
REMARK   10  A    between atoms: C_14  and  C_16
REMARK   11  A    between atoms: C_15  and  C_16
REMARK   12  A    between atoms: C_15  and  C_27
REMARK   13  A    between atoms: N_17  and  C_18
REMARK   14  A    between atoms: C_18  and  C_19
REMARK   15  A    between atoms: C_20  and  C_25
REMARK   16  A    between atoms: N_23  and  C_26
REMARK   17  A    between atoms: C_25  and  C_27
REMARK                            x       y       z     vdW  Elec       q    Type
REMARK                         _______ _______ _______ _____ _____    ______ ____
ROOT
ATOM      1  C   UNL     1       0.005  -0.206   0.000  0.00  0.00    +0.000 C 
ATOM      2  O   UNL     1       0.005  -1.031   0.000  0.00  0.00    +0.000 OA
ENDROOT
BRANCH   1   3
ATOM      3  C   UNL     1      -0.712   0.206   0.000  0.00  0.00    +0.000 C 
ATOM      4  O   UNL     1      -0.711   1.031   0.000  0.00  0.00    +0.000 OA
ATOM      5  N   UNL     1      -1.425  -0.207   0.000  0.00  0.00    +0.000 NA
BRANCH   5   6
ATOM      6  C   UNL     1      -2.142   0.205   0.000  0.00  0.00    +0.000 C 
BRANCH   6   7
ATOM      7  C   UNL     1      -2.858  -0.201   0.000  0.00  0.00    +0.000 C 
BRANCH   7   8
ATOM      8  C   UNL     1      -3.576   0.209   0.000  0.00  0.00    +0.000 C 
BRANCH   8   9
ATOM      9  C   UNL     1      -4.288  -0.207   0.000  0.00  0.00    +0.000 C 
BRANCH   9  10
ATOM     10  N   UNL     1      -5.007   0.203   0.000  0.00  0.00    +0.000 NA
BRANCH  10  11
ATOM     11  C   UNL     1      -5.719  -0.213   0.000  0.00  0.00    +0.000 C 
BRANCH  11  12
ATOM     12  C   UNL     1      -6.437   0.197   0.000  0.00  0.00    +0.000 C 
BRANCH  12  14
ATOM     13  N   UNL     1      -7.867   0.191   0.000  0.00  0.00    +0.000 NA
ATOM     14  C   UNL     1      -7.149  -0.219   0.000  0.00  0.00    +0.000 C 
ENDBRANCH  12  14
ENDBRANCH  11  12
ENDBRANCH  10  11
ENDBRANCH   9  10
ENDBRANCH   8   9
ENDBRANCH   7   8
ENDBRANCH   6   7
ENDBRANCH   5   6
ENDBRANCH   1   3
BRANCH   1  15
ATOM     15  N   UNL     1       0.719   0.207   0.000  0.00  0.00    +0.000 NA
ATOM     16  C   UNL     1       1.435  -0.205   0.000  0.00  0.00    +0.000 C 
ATOM     17  O   UNL     1       1.435  -1.030   0.000  0.00  0.00    +0.000 OA
BRANCH  16  18
ATOM     18  C   UNL     1       2.149   0.208   0.000  0.00  0.00    +0.000 C 
BRANCH  18  19
ATOM     19  C   UNL     1       2.866  -0.204   0.000  0.00  0.00    +0.000 C 
BRANCH  19  20
ATOM     20  C   UNL     1       3.576   0.214   0.000  0.00  0.00    +0.000 C 
BRANCH  20  21
ATOM     21  C   UNL     1       4.295  -0.195   0.000  0.00  0.00    +0.000 C 
BRANCH  21  22
ATOM     22  C   UNL     1       5.006   0.223   0.000  0.00  0.00    +0.000 C 
BRANCH  22  23
ATOM     23  C   UNL     1       5.726  -0.185   0.000  0.00  0.00    +0.000 C 
BRANCH  23  26
ATOM     24  C   UNL     1       7.156  -0.176   0.000  0.00  0.00    +0.000 C 
ATOM     25  N   UNL     1       7.160  -1.001   0.000  0.00  0.00    +0.000 NA
ATOM     26  N   UNL     1       6.437   0.233   0.000  0.00  0.00    +0.000 NA
ATOM     27  N   UNL     1       7.867   0.242   0.000  0.00  0.00    +0.000 NA
ENDBRANCH  23  26
ENDBRANCH  22  23
ENDBRANCH  21  22
ENDBRANCH  20  21
ENDBRANCH  19  20
ENDBRANCH  18  19
ENDBRANCH  16  18
ENDBRANCH   1  15
TORSDOF 17
