REMARK  Name = 
REMARK  8 active torsions:
REMARK  status: ('A' for Active; 'I' for Inactive)
REMARK    1  A    between atoms: C_2  and  N_3
REMARK    2  A    between atoms: N_3  and  C_4
REMARK    3  A    between atoms: N_3  and  C_6
REMARK    4  A    between atoms: C_6  and  C_7
REMARK    5  A    between atoms: C_7  and  N_8
REMARK    6  A    between atoms: N_32  and  C_33
REMARK    7  A    between atoms: C_36  and  O_41
REMARK    8  A    between atoms: C_37  and  C_39
REMARK                            x       y       z     vdW  Elec       q    Type
REMARK                         _______ _______ _______ _____ _____    ______ ____
ROOT
ATOM      1  N   UNL     1       3.100  -2.079   0.000  0.00  0.00    +0.000 N 
ATOM      2  C   UNL     1       3.768  -1.594   0.000  0.00  0.00    +0.000 C 
ATOM      3  O   UNL     1       4.552  -1.849   0.000  0.00  0.00    +0.000 OA
ATOM      4  C   UNL     1       3.513  -0.809   0.000  0.00  0.00    +0.000 A 
ATOM      5  C   UNL     1       3.925  -0.095   0.000  0.00  0.00    +0.000 A 
ATOM      6  C   UNL     1       4.732   0.077   0.000  0.00  0.00    +0.000 A 
ATOM      7  C   UNL     1       5.399  -0.408   0.000  0.00  0.00    +0.000 A 
ATOM      8  C   UNL     1       6.153  -0.072   0.000  0.00  0.00    +0.000 A 
ATOM      9  C   UNL     1       6.239   0.748   0.000  0.00  0.00    +0.000 A 
ATOM     10  C   UNL     1       5.572   1.233   0.000  0.00  0.00    +0.000 A 
ATOM     11  C   UNL     1       4.818   0.897   0.000  0.00  0.00    +0.000 A 
ATOM     12  N   UNL     1       4.065   1.233   0.000  0.00  0.00    +0.000 NA
ATOM     13  C   UNL     1       3.513   0.620   0.000  0.00  0.00    +0.000 A 
ATOM     14  C   UNL     1       2.688   0.620   0.000  0.00  0.00    +0.000 A 
ATOM     15  C   UNL     1       2.275  -0.095   0.000  0.00  0.00    +0.000 A 
ATOM     16  C   UNL     1       2.688  -0.809   0.000  0.00  0.00    +0.000 A 
ATOM     17  C   UNL     1       2.433  -1.594   0.000  0.00  0.00    +0.000 C 
ATOM     18  O   UNL     1       1.648  -1.849   0.000  0.00  0.00    +0.000 OA
ATOM     19  C   UNL     1       1.468   0.077   0.000  0.00  0.00    +0.000 A 
ATOM     20  C   UNL     1       0.801  -0.408   0.000  0.00  0.00    +0.000 A 
ATOM     21  C   UNL     1       0.047  -0.072   0.000  0.00  0.00    +0.000 A 
ATOM     22  C   UNL     1      -0.039   0.748   0.000  0.00  0.00    +0.000 A 
ATOM     23  C   UNL     1       0.628   1.233   0.000  0.00  0.00    +0.000 A 
ATOM     24  C   UNL     1       1.382   0.897   0.000  0.00  0.00    +0.000 A 
ATOM     25  N   UNL     1       2.136   1.233   0.000  0.00  0.00    +0.000 N 
ATOM     26 CL   UNL     1       0.542   2.054   0.000  0.00  0.00    +0.000 Cl
ATOM     27 CL   UNL     1       5.658   2.054   0.000  0.00  0.00    +0.000 Cl
ENDROOT
BRANCH  25  28
ATOM     28  C   UNL     1       2.307   2.040   0.000  0.00  0.00    +0.000 C 
ATOM     29  C   UNL     1       1.694   2.592   0.000  0.00  0.00    +0.000 C 
ATOM     30  C   UNL     1       1.865   3.399   0.000  0.00  0.00    +0.000 C 
ATOM     31  C   UNL     1       2.650   3.654   0.000  0.00  0.00    +0.000 C 
ATOM     32  C   UNL     1       3.263   3.102   0.000  0.00  0.00    +0.000 C 
ATOM     33  O   UNL     1       3.092   2.295   0.000  0.00  0.00    +0.000 OA
ATOM     34  O   UNL     1       1.252   3.951   0.000  0.00  0.00    +0.000 OA
ATOM     35  O   UNL     1       0.909   2.337   0.000  0.00  0.00    +0.000 OA
BRANCH  31  36
ATOM     36  O   UNL     1       2.822   4.461   0.000  0.00  0.00    +0.000 OA
ATOM     37  C   UNL     1       2.209   5.013   0.000  0.00  0.00    +0.000 C 
ENDBRANCH  31  36
BRANCH  32  38
ATOM     38  C   UNL     1       4.048   3.357   0.000  0.00  0.00    +0.000 C 
ATOM     39  O   UNL     1       4.661   2.805   0.000  0.00  0.00    +0.000 OA
ENDBRANCH  32  38
ENDBRANCH  25  28
BRANCH   1  40
ATOM     40  C   UNL     1       3.100  -2.904   0.000  0.00  0.00    +0.000 C 
BRANCH  40  41
ATOM     41  C   UNL     1       3.815  -3.316   0.000  0.00  0.00    +0.000 C 
BRANCH  41  42
ATOM     42  N   UNL     1       3.815  -4.141   0.000  0.00  0.00    +0.000 NA
BRANCH  42  43
ATOM     43  C   UNL     1       3.100  -4.554   0.000  0.00  0.00    +0.000 C 
ATOM     44  C   UNL     1       2.386  -4.141   0.000  0.00  0.00    +0.000 C 
ENDBRANCH  42  43
BRANCH  42  46
ATOM     45  C   UNL     1       4.529  -5.379   0.000  0.00  0.00    +0.000 C 
ATOM     46  C   UNL     1       4.529  -4.554   0.000  0.00  0.00    +0.000 C 
ENDBRANCH  42  46
ENDBRANCH  41  42
ENDBRANCH  40  41
ENDBRANCH   1  40
TORSDOF 8
