REMARK  Name = 
REMARK  4 active torsions:
REMARK  status: ('A' for Active; 'I' for Inactive)
REMARK    1  A    between atoms: O_2  and  P_3
REMARK    2  A    between atoms: P_3  and  O_5
REMARK    3  A    between atoms: P_3  and  O_7
REMARK    4  A    between atoms: O_7  and  C_8
REMARK                            x       y       z     vdW  Elec       q    Type
REMARK                         _______ _______ _______ _____ _____    ______ ____
ROOT
ATOM      1  C   UNL     1       0.000   0.000   0.000  0.00  0.00    +0.000 A 
ATOM      2  C   UNL     1       0.715  -0.412   0.000  0.00  0.00    +0.000 A 
ATOM      3  C   UNL     1       0.715  -1.238   0.000  0.00  0.00    +0.000 A 
ATOM      4  C   UNL     1       0.000  -1.650   0.000  0.00  0.00    +0.000 A 
ATOM      5  C   UNL     1      -0.715  -1.238   0.000  0.00  0.00    +0.000 A 
ATOM      6  C   UNL     1      -0.715  -0.412   0.000  0.00  0.00    +0.000 A 
ATOM      7 CL   UNL     1      -1.429   0.000   0.000  0.00  0.00    +0.000 Cl
ATOM      8 CL   UNL     1       0.000  -2.475   0.000  0.00  0.00    +0.000 Cl
ATOM      9 CL   UNL     1       1.429  -1.650   0.000  0.00  0.00    +0.000 Cl
ENDROOT
BRANCH   1  10
ATOM     10  O   UNL     1       0.000   0.825   0.000  0.00  0.00    +0.000 OA
BRANCH  10  11
ATOM     11  P   UNL     1      -0.715   1.238   0.000  0.00  0.00    +0.000 P 
ATOM     12  S   UNL     1      -1.127   0.523   0.000  0.00  0.00    +0.000 S 
BRANCH  11  14
ATOM     13  C   UNL     1      -1.429   2.475   0.000  0.00  0.00    +0.000 C 
ATOM     14  O   UNL     1      -1.429   1.650   0.000  0.00  0.00    +0.000 OA
ENDBRANCH  11  14
BRANCH  11  15
ATOM     15  O   UNL     1      -0.302   1.952   0.000  0.00  0.00    +0.000 OA
ATOM     16  C   UNL     1       0.523   1.952   0.000  0.00  0.00    +0.000 C 
ENDBRANCH  11  15
ENDBRANCH  10  11
ENDBRANCH   1  10
TORSDOF 4
