REMARK  Name = 
REMARK  6 active torsions:
REMARK  status: ('A' for Active; 'I' for Inactive)
REMARK    1  A    between atoms: C_2  and  C_3
REMARK    2  A    between atoms: N_14  and  C_15
REMARK    3  A    between atoms: N_18  and  C_19
REMARK    4  A    between atoms: C_19  and  C_20
REMARK    5  A    between atoms: C_20  and  C_21
REMARK    6  A    between atoms: C_21  and  O_22
REMARK                            x       y       z     vdW  Elec       q    Type
REMARK                         _______ _______ _______ _____ _____    ______ ____
ROOT
ATOM      1  O   UNL     1       0.787  -1.028   0.000  0.00  0.00    +0.000 OA
ATOM      2  C   UNL     1       0.074  -1.439   0.000  0.00  0.00    +0.000 C 
ATOM      3  N   UNL     1      -0.638  -1.028   0.000  0.00  0.00    +0.000 NA
ENDROOT
BRANCH   2   4
ATOM      4  C   UNL     1       0.074  -2.262   0.000  0.00  0.00    +0.000 A 
ATOM      5  C   UNL     1       0.788  -2.680   0.000  0.00  0.00    +0.000 A 
ATOM      6  O   UNL     1       1.576  -2.424   0.000  0.00  0.00    +0.000 OA
ATOM      7  C   UNL     1       2.063  -3.094   0.000  0.00  0.00    +0.000 C 
ATOM      8  C   UNL     1       1.576  -3.765   0.000  0.00  0.00    +0.000 C 
ATOM      9  C   UNL     1       0.788  -3.509   0.000  0.00  0.00    +0.000 A 
ATOM     10  C   UNL     1       0.074  -3.917   0.000  0.00  0.00    +0.000 A 
ATOM     11  N   UNL     1       0.074  -4.740   0.000  0.00  0.00    +0.000 NA
ATOM     12  C   UNL     1      -0.640  -3.507   0.000  0.00  0.00    +0.000 A 
ATOM     13 CL   UNL     1      -1.352  -3.920   0.000  0.00  0.00    +0.000 Cl
ATOM     14  C   UNL     1      -0.640  -2.680   0.000  0.00  0.00    +0.000 A 
ENDBRANCH   2   4
BRANCH   3  15
ATOM     15  C   UNL     1      -0.638  -0.205   0.000  0.00  0.00    +0.000 C 
ATOM     16  C   UNL     1      -1.352   0.204   0.000  0.00  0.00    +0.000 C 
ATOM     17  C   UNL     1      -1.352   1.031   0.000  0.00  0.00    +0.000 C 
ATOM     18  N   UNL     1      -0.638   1.449   0.000  0.00  0.00    +0.000 NA
ATOM     19  C   UNL     1       0.075   1.031   0.000  0.00  0.00    +0.000 C 
ATOM     20  C   UNL     1       0.075   0.204   0.000  0.00  0.00    +0.000 C 
BRANCH  18  21
ATOM     21  C   UNL     1      -0.638   2.272   0.000  0.00  0.00    +0.000 C 
BRANCH  21  22
ATOM     22  C   UNL     1      -1.351   2.683   0.000  0.00  0.00    +0.000 C 
BRANCH  22  23
ATOM     23  C   UNL     1      -1.351   3.506   0.000  0.00  0.00    +0.000 C 
BRANCH  23  24
ATOM     24  O   UNL     1      -2.063   3.917   0.000  0.00  0.00    +0.000 OA
ATOM     25  C   UNL     1      -2.063   4.740   0.000  0.00  0.00    +0.000 C 
ENDBRANCH  23  24
ENDBRANCH  22  23
ENDBRANCH  21  22
ENDBRANCH  18  21
ENDBRANCH   3  15
TORSDOF 6
