REMARK  Name = 
REMARK  31 active torsions:
REMARK  status: ('A' for Active; 'I' for Inactive)
REMARK    1  A    between atoms: C_1  and  O_53
REMARK    2  A    between atoms: C_2  and  O_76
REMARK    3  A    between atoms: C_4  and  C_99
REMARK    4  A    between atoms: C_5  and  O_7
REMARK    5  A    between atoms: C_6  and  O_30
REMARK    6  A    between atoms: O_7  and  C_8
REMARK    7  A    between atoms: C_8  and  C_9
REMARK    8  A    between atoms: C_11  and  O_15
REMARK    9  A    between atoms: O_15  and  C_16
REMARK   10  A    between atoms: C_16  and  C_17
REMARK   11  A    between atoms: O_30  and  C_31
REMARK   12  A    between atoms: C_31  and  C_32
REMARK   13  A    between atoms: C_34  and  O_38
REMARK   14  A    between atoms: O_38  and  C_39
REMARK   15  A    between atoms: C_39  and  C_40
REMARK   16  A    between atoms: O_53  and  C_54
REMARK   17  A    between atoms: C_54  and  C_55
REMARK   18  A    between atoms: C_57  and  O_64
REMARK   19  A    between atoms: O_64  and  C_65
REMARK   20  A    between atoms: C_65  and  C_66
REMARK   21  A    between atoms: O_76  and  C_77
REMARK   22  A    between atoms: C_77  and  C_78
REMARK   23  A    between atoms: C_80  and  O_84
REMARK   24  A    between atoms: O_84  and  C_85
REMARK   25  A    between atoms: C_85  and  C_86
REMARK   26  A    between atoms: C_99  and  O_100
REMARK   27  A    between atoms: O_100  and  C_101
REMARK   28  A    between atoms: C_101  and  C_102
REMARK   29  A    between atoms: C_105  and  O_109
REMARK   30  A    between atoms: O_109  and  C_110
REMARK   31  A    between atoms: C_110  and  C_111
REMARK                            x       y       z     vdW  Elec       q    Type
REMARK                         _______ _______ _______ _____ _____    ______ ____
ROOT
ATOM      1  C   UNL     1       0.715  -0.412   0.000  0.00  0.00    +0.000 C 
ATOM      2  C   UNL     1       0.715   0.412   0.000  0.00  0.00    +0.000 C 
ATOM      3  O   UNL     1       0.000   0.825   0.000  0.00  0.00    +0.000 OA
ATOM      4  C   UNL     1      -0.715   0.412   0.000  0.00  0.00    +0.000 C 
ATOM      5  C   UNL     1      -0.715  -0.412   0.000  0.00  0.00    +0.000 C 
ATOM      6  C   UNL     1       0.000  -0.825   0.000  0.00  0.00    +0.000 C 
ENDROOT
BRANCH   2   7
ATOM      7  O   UNL     1       1.429   0.825   0.000  0.00  0.00    +0.000 OA
BRANCH   7   8
ATOM      8  C   UNL     1       2.144   0.412   0.000  0.00  0.00    +0.000 C 
ATOM      9  O   UNL     1       2.144  -0.412   0.000  0.00  0.00    +0.000 OA
BRANCH   8  10
ATOM     10  C   UNL     1       2.859   0.825   0.000  0.00  0.00    +0.000 A 
ATOM     11  C   UNL     1       3.573   0.412   0.000  0.00  0.00    +0.000 A 
ATOM     12  C   UNL     1       4.288   0.825   0.000  0.00  0.00    +0.000 A 
ATOM     13  C   UNL     1       4.288   1.649   0.000  0.00  0.00    +0.000 A 
ATOM     14  C   UNL     1       3.573   2.062   0.000  0.00  0.00    +0.000 A 
ATOM     15  C   UNL     1       2.859   1.649   0.000  0.00  0.00    +0.000 A 
ATOM     16  O   UNL     1       5.003   2.062   0.000  0.00  0.00    +0.000 OA
ATOM     17  O   UNL     1       3.573   2.886   0.000  0.00  0.00    +0.000 OA
BRANCH  12  18
ATOM     18  O   UNL     1       5.003   0.412   0.000  0.00  0.00    +0.000 OA
BRANCH  18  19
ATOM     19  C   UNL     1       5.717   0.825   0.000  0.00  0.00    +0.000 C 
ATOM     20  O   UNL     1       5.717   1.649   0.000  0.00  0.00    +0.000 OA
BRANCH  19  21
ATOM     21  C   UNL     1       6.432   0.412   0.000  0.00  0.00    +0.000 A 
ATOM     22  C   UNL     1       6.432  -0.412   0.000  0.00  0.00    +0.000 A 
ATOM     23  C   UNL     1       7.147  -0.825   0.000  0.00  0.00    +0.000 A 
ATOM     24  C   UNL     1       7.861  -0.412   0.000  0.00  0.00    +0.000 A 
ATOM     25  C   UNL     1       7.861   0.412   0.000  0.00  0.00    +0.000 A 
ATOM     26  C   UNL     1       7.147   0.825   0.000  0.00  0.00    +0.000 A 
ATOM     27  O   UNL     1       8.576  -0.825   0.000  0.00  0.00    +0.000 OA
ATOM     28  O   UNL     1       7.147  -1.649   0.000  0.00  0.00    +0.000 OA
ATOM     29  O   UNL     1       8.576   0.825   0.000  0.00  0.00    +0.000 OA
ENDBRANCH  19  21
ENDBRANCH  18  19
ENDBRANCH  12  18
ENDBRANCH   8  10
ENDBRANCH   7   8
ENDBRANCH   2   7
BRANCH   4  30
ATOM     30  C   UNL     1      -1.429   0.825   0.000  0.00  0.00    +0.000 C 
BRANCH  30  31
ATOM     31  O   UNL     1      -1.429   1.649   0.000  0.00  0.00    +0.000 OA
BRANCH  31  32
ATOM     32  C   UNL     1      -0.715   2.062   0.000  0.00  0.00    +0.000 C 
ATOM     33  O   UNL     1       0.000   1.649   0.000  0.00  0.00    +0.000 OA
BRANCH  32  34
ATOM     34  C   UNL     1      -0.715   2.886   0.000  0.00  0.00    +0.000 A 
ATOM     35  C   UNL     1       0.000   3.299   0.000  0.00  0.00    +0.000 A 
ATOM     36  C   UNL     1       0.000   4.123   0.000  0.00  0.00    +0.000 A 
ATOM     37  C   UNL     1      -0.715   4.535   0.000  0.00  0.00    +0.000 A 
ATOM     38  C   UNL     1      -1.429   4.123   0.000  0.00  0.00    +0.000 A 
ATOM     39  C   UNL     1      -1.429   3.299   0.000  0.00  0.00    +0.000 A 
ATOM     40  O   UNL     1      -0.715   5.360   0.000  0.00  0.00    +0.000 OA
ATOM     41  O   UNL     1      -2.144   4.535   0.000  0.00  0.00    +0.000 OA
BRANCH  36  42
ATOM     42  O   UNL     1       0.715   4.535   0.000  0.00  0.00    +0.000 OA
BRANCH  42  43
ATOM     43  C   UNL     1       0.715   5.360   0.000  0.00  0.00    +0.000 C 
ATOM     44  O   UNL     1       0.000   5.772   0.000  0.00  0.00    +0.000 OA
BRANCH  43  45
ATOM     45  C   UNL     1       1.429   5.772   0.000  0.00  0.00    +0.000 A 
ATOM     46  C   UNL     1       2.144   5.360   0.000  0.00  0.00    +0.000 A 
ATOM     47  C   UNL     1       2.859   5.772   0.000  0.00  0.00    +0.000 A 
ATOM     48  C   UNL     1       2.859   6.597   0.000  0.00  0.00    +0.000 A 
ATOM     49  C   UNL     1       2.144   7.009   0.000  0.00  0.00    +0.000 A 
ATOM     50  C   UNL     1       1.429   6.597   0.000  0.00  0.00    +0.000 A 
ATOM     51  O   UNL     1       3.573   7.009   0.000  0.00  0.00    +0.000 OA
ATOM     52  O   UNL     1       2.144   7.834   0.000  0.00  0.00    +0.000 OA
ATOM     53  O   UNL     1       3.573   5.360   0.000  0.00  0.00    +0.000 OA
ENDBRANCH  43  45
ENDBRANCH  42  43
ENDBRANCH  36  42
ENDBRANCH  32  34
ENDBRANCH  31  32
ENDBRANCH  30  31
ENDBRANCH   4  30
BRANCH   6  54
ATOM     54  O   UNL     1       0.000  -1.649   0.000  0.00  0.00    +0.000 OA
BRANCH  54  55
ATOM     55  C   UNL     1      -0.715  -2.062   0.000  0.00  0.00    +0.000 C 
ATOM     56  O   UNL     1      -1.429  -1.649   0.000  0.00  0.00    +0.000 OA
BRANCH  55  57
ATOM     57  C   UNL     1      -0.715  -2.886   0.000  0.00  0.00    +0.000 A 
ATOM     58  C   UNL     1      -1.429  -3.298   0.000  0.00  0.00    +0.000 A 
ATOM     59  C   UNL     1      -1.429  -4.123   0.000  0.00  0.00    +0.000 A 
ATOM     60  C   UNL     1      -0.715  -4.535   0.000  0.00  0.00    +0.000 A 
ATOM     61  C   UNL     1       0.000  -4.123   0.000  0.00  0.00    +0.000 A 
ATOM     62  C   UNL     1       0.000  -3.298   0.000  0.00  0.00    +0.000 A 
ATOM     63  O   UNL     1      -0.715  -5.360   0.000  0.00  0.00    +0.000 OA
ATOM     64  O   UNL     1       0.715  -4.535   0.000  0.00  0.00    +0.000 OA
BRANCH  59  65
ATOM     65  O   UNL     1      -2.144  -4.535   0.000  0.00  0.00    +0.000 OA
BRANCH  65  66
ATOM     66  C   UNL     1      -2.144  -5.360   0.000  0.00  0.00    +0.000 C 
ATOM     67  O   UNL     1      -1.429  -5.772   0.000  0.00  0.00    +0.000 OA
BRANCH  66  68
ATOM     68  C   UNL     1      -2.859  -5.772   0.000  0.00  0.00    +0.000 A 
ATOM     69  C   UNL     1      -3.573  -5.360   0.000  0.00  0.00    +0.000 A 
ATOM     70  C   UNL     1      -4.288  -5.772   0.000  0.00  0.00    +0.000 A 
ATOM     71  C   UNL     1      -4.288  -6.597   0.000  0.00  0.00    +0.000 A 
ATOM     72  C   UNL     1      -3.573  -7.009   0.000  0.00  0.00    +0.000 A 
ATOM     73  C   UNL     1      -2.859  -6.597   0.000  0.00  0.00    +0.000 A 
ATOM     74  O   UNL     1      -5.003  -7.009   0.000  0.00  0.00    +0.000 OA
ATOM     75  O   UNL     1      -3.573  -7.834   0.000  0.00  0.00    +0.000 OA
ATOM     76  O   UNL     1      -5.003  -5.360   0.000  0.00  0.00    +0.000 OA
ENDBRANCH  66  68
ENDBRANCH  65  66
ENDBRANCH  59  65
ENDBRANCH  55  57
ENDBRANCH  54  55
ENDBRANCH   6  54
BRANCH   5  77
ATOM     77  O   UNL     1      -1.429  -0.825   0.000  0.00  0.00    +0.000 OA
BRANCH  77  78
ATOM     78  C   UNL     1      -2.144  -0.412   0.000  0.00  0.00    +0.000 C 
ATOM     79  O   UNL     1      -2.144   0.412   0.000  0.00  0.00    +0.000 OA
BRANCH  78  80
ATOM     80  C   UNL     1      -2.859  -0.825   0.000  0.00  0.00    +0.000 A 
ATOM     81  C   UNL     1      -3.573  -0.412   0.000  0.00  0.00    +0.000 A 
ATOM     82  C   UNL     1      -4.288  -0.825   0.000  0.00  0.00    +0.000 A 
ATOM     83  C   UNL     1      -4.288  -1.649   0.000  0.00  0.00    +0.000 A 
ATOM     84  C   UNL     1      -3.573  -2.062   0.000  0.00  0.00    +0.000 A 
ATOM     85  C   UNL     1      -2.859  -1.649   0.000  0.00  0.00    +0.000 A 
ATOM     86  O   UNL     1      -5.003  -2.062   0.000  0.00  0.00    +0.000 OA
ATOM     87  O   UNL     1      -3.573  -2.886   0.000  0.00  0.00    +0.000 OA
BRANCH  82  88
ATOM     88  O   UNL     1      -5.003  -0.412   0.000  0.00  0.00    +0.000 OA
BRANCH  88  89
ATOM     89  C   UNL     1      -5.717  -0.825   0.000  0.00  0.00    +0.000 C 
ATOM     90  O   UNL     1      -5.717  -1.649   0.000  0.00  0.00    +0.000 OA
BRANCH  89  91
ATOM     91  C   UNL     1      -6.432  -0.412   0.000  0.00  0.00    +0.000 A 
ATOM     92  C   UNL     1      -6.432   0.412   0.000  0.00  0.00    +0.000 A 
ATOM     93  C   UNL     1      -7.147   0.825   0.000  0.00  0.00    +0.000 A 
ATOM     94  C   UNL     1      -7.861   0.412   0.000  0.00  0.00    +0.000 A 
ATOM     95  C   UNL     1      -7.861  -0.412   0.000  0.00  0.00    +0.000 A 
ATOM     96  C   UNL     1      -7.147  -0.825   0.000  0.00  0.00    +0.000 A 
ATOM     97  O   UNL     1      -7.147   1.649   0.000  0.00  0.00    +0.000 OA
ATOM     98  O   UNL     1      -8.576   0.825   0.000  0.00  0.00    +0.000 OA
ATOM     99  O   UNL     1      -8.576  -0.825   0.000  0.00  0.00    +0.000 OA
ENDBRANCH  89  91
ENDBRANCH  88  89
ENDBRANCH  82  88
ENDBRANCH  78  80
ENDBRANCH  77  78
ENDBRANCH   5  77
BRANCH   1 100
ATOM    100  O   UNL     1       1.429  -0.825   0.000  0.00  0.00    +0.000 OA
BRANCH 100 101
ATOM    101  C   UNL     1       1.429  -1.649   0.000  0.00  0.00    +0.000 C 
ATOM    102  O   UNL     1       0.715  -2.062   0.000  0.00  0.00    +0.000 OA
BRANCH 101 103
ATOM    103  C   UNL     1       2.144  -2.062   0.000  0.00  0.00    +0.000 A 
ATOM    104  C   UNL     1       2.144  -2.886   0.000  0.00  0.00    +0.000 A 
ATOM    105  C   UNL     1       2.859  -3.298   0.000  0.00  0.00    +0.000 A 
ATOM    106  C   UNL     1       3.573  -2.886   0.000  0.00  0.00    +0.000 A 
ATOM    107  C   UNL     1       3.573  -2.062   0.000  0.00  0.00    +0.000 A 
ATOM    108  C   UNL     1       2.859  -1.649   0.000  0.00  0.00    +0.000 A 
ATOM    109  O   UNL     1       4.288  -1.649   0.000  0.00  0.00    +0.000 OA
ATOM    110  O   UNL     1       4.288  -3.298   0.000  0.00  0.00    +0.000 OA
BRANCH 105 111
ATOM    111  O   UNL     1       2.859  -4.123   0.000  0.00  0.00    +0.000 OA
BRANCH 111 112
ATOM    112  C   UNL     1       3.573  -4.535   0.000  0.00  0.00    +0.000 C 
ATOM    113  O   UNL     1       4.288  -4.123   0.000  0.00  0.00    +0.000 OA
BRANCH 112 114
ATOM    114  C   UNL     1       3.573  -5.360   0.000  0.00  0.00    +0.000 A 
ATOM    115  C   UNL     1       2.859  -5.772   0.000  0.00  0.00    +0.000 A 
ATOM    116  C   UNL     1       2.859  -6.597   0.000  0.00  0.00    +0.000 A 
ATOM    117  C   UNL     1       3.573  -7.009   0.000  0.00  0.00    +0.000 A 
ATOM    118  C   UNL     1       4.288  -6.597   0.000  0.00  0.00    +0.000 A 
ATOM    119  C   UNL     1       4.288  -5.772   0.000  0.00  0.00    +0.000 A 
ATOM    120  O   UNL     1       3.573  -7.834   0.000  0.00  0.00    +0.000 OA
ATOM    121  O   UNL     1       2.144  -7.009   0.000  0.00  0.00    +0.000 OA
ATOM    122  O   UNL     1       5.003  -7.009   0.000  0.00  0.00    +0.000 OA
ENDBRANCH 112 114
ENDBRANCH 111 112
ENDBRANCH 105 111
ENDBRANCH 101 103
ENDBRANCH 100 101
ENDBRANCH   1 100
TORSDOF 31
