REMARK  Name = 
REMARK  7 active torsions:
REMARK  status: ('A' for Active; 'I' for Inactive)
REMARK    1  A    between atoms: C_5  and  S_6
REMARK    2  A    between atoms: S_6  and  N_9
REMARK    3  A    between atoms: N_9  and  C_10
REMARK    4  A    between atoms: C_10  and  C_11
REMARK    5  A    between atoms: C_10  and  C_13
REMARK    6  A    between atoms: C_13  and  C_14
REMARK    7  A    between atoms: C_13  and  C_18
REMARK                            x       y       z     vdW  Elec       q    Type
REMARK                         _______ _______ _______ _____ _____    ______ ____
ROOT
ATOM      1  C   UNL     1       1.282   3.177   0.000  0.00  0.00    +0.000 C 
ENDROOT
BRANCH   1   2
ATOM      2  C   UNL     1       1.997   2.764   0.000  0.00  0.00    +0.000 C 
ATOM      3  O   UNL     1       1.997   1.939   0.000  0.00  0.00    +0.000 OA
ENDBRANCH   1   2
BRANCH   1   4
ATOM      4  N   UNL     1       0.568   2.764   0.000  0.00  0.00    +0.000 NA
BRANCH   4   5
ATOM      5  S   UNL     1       0.568   1.939   0.000  0.00  0.00    +0.000 S 
ATOM      6  O   UNL     1      -0.257   1.939   0.000  0.00  0.00    +0.000 OA
ATOM      7  O   UNL     1       1.393   1.939   0.000  0.00  0.00    +0.000 OA
BRANCH   5  12
ATOM      8  C   UNL     1       1.235   0.629   0.000  0.00  0.00    +0.000 A 
ATOM      9  C   UNL     1       0.980  -0.155   0.000  0.00  0.00    +0.000 A 
ATOM     10  C   UNL     1       0.155  -0.155   0.000  0.00  0.00    +0.000 A 
ATOM     11  S   UNL     1      -0.100   0.629   0.000  0.00  0.00    +0.000 S 
ATOM     12  C   UNL     1       0.568   1.114   0.000  0.00  0.00    +0.000 A 
ATOM     13 CL   UNL     1      -0.330  -0.823   0.000  0.00  0.00    +0.000 Cl
ENDBRANCH   5  12
ENDBRANCH   4   5
ENDBRANCH   1   4
BRANCH   1  14
ATOM     14  C   UNL     1       1.282   4.002   0.000  0.00  0.00    +0.000 C 
BRANCH  14  15
ATOM     15  C   UNL     1       0.568   4.414   0.000  0.00  0.00    +0.000 C 
ATOM     16  F   UNL     1      -0.147   4.827   0.000  0.00  0.00    +0.000 F 
ATOM     17  F   UNL     1       0.980   5.129   0.000  0.00  0.00    +0.000 F 
ATOM     18  F   UNL     1       0.155   3.700   0.000  0.00  0.00    +0.000 F 
ENDBRANCH  14  15
BRANCH  14  19
ATOM     19  C   UNL     1       1.997   4.414   0.000  0.00  0.00    +0.000 C 
ATOM     20  F   UNL     1       2.711   4.827   0.000  0.00  0.00    +0.000 F 
ATOM     21  F   UNL     1       1.584   5.129   0.000  0.00  0.00    +0.000 F 
ATOM     22  F   UNL     1       2.409   3.700   0.000  0.00  0.00    +0.000 F 
ENDBRANCH  14  19
ENDBRANCH   1  14
TORSDOF 7
