REMARK  Name = 
REMARK  9 active torsions:
REMARK  status: ('A' for Active; 'I' for Inactive)
REMARK    1  A    between atoms: N_3  and  C_9
REMARK    2  A    between atoms: N_4  and  N_6
REMARK    3  A    between atoms: C_7  and  C_8
REMARK    4  A    between atoms: C_7  and  C_11
REMARK    5  A    between atoms: C_8  and  C_9
REMARK    6  A    between atoms: C_11  and  C_12
REMARK    7  A    between atoms: C_12  and  N_13
REMARK    8  A    between atoms: N_13  and  C_14
REMARK    9  A    between atoms: C_14  and  C_15
REMARK                            x       y       z     vdW  Elec       q    Type
REMARK                         _______ _______ _______ _____ _____    ______ ____
ROOT
ATOM      1  C   UNL     1      -0.718  -0.412   0.000  0.00  0.00    +0.000 C 
ENDROOT
BRANCH   1   2
ATOM      2  C   UNL     1      -0.718   0.412   0.000  0.00  0.00    +0.000 C 
BRANCH   2   3
ATOM      3  N   UNL     1       0.000   0.829   0.000  0.00  0.00    +0.000 NA
ATOM      4  N   UNL     1       0.718   2.067   0.000  0.00  0.00    +0.000 NA
ATOM      5  N   UNL     1      -0.718   2.067   0.000  0.00  0.00    +0.000 NA
ATOM      6  C   UNL     1       0.000   1.654   0.000  0.00  0.00    +0.000 C 
BRANCH   4   9
ATOM      7  O   UNL     1       2.149   2.067   0.000  0.00  0.00    +0.000 OA
ATOM      8  O   UNL     1       1.431   0.829   0.000  0.00  0.00    +0.000 OA
ATOM      9  N   UNL     1       1.431   1.654   0.000  0.00  0.00    +0.000 N 
ENDBRANCH   4   9
ENDBRANCH   2   3
ENDBRANCH   1   2
BRANCH   1  10
ATOM     10  C   UNL     1      -1.431  -0.825   0.000  0.00  0.00    +0.000 C 
BRANCH  10  11
ATOM     11  C   UNL     1      -1.431  -1.654   0.000  0.00  0.00    +0.000 C 
ATOM     12  N   UNL     1      -2.149  -2.067   0.000  0.00  0.00    +0.000 NA
BRANCH  11  13
ATOM     13  C   UNL     1      -0.718  -2.067   0.000  0.00  0.00    +0.000 C 
BRANCH  13  14
ATOM     14  N   UNL     1       0.000  -1.654   0.000  0.00  0.00    +0.000 NA
BRANCH  14  15
ATOM     15  C   UNL     1       0.718  -2.067   0.000  0.00  0.00    +0.000 C 
BRANCH  15  16
ATOM     16  C   UNL     1       1.431  -1.654   0.000  0.00  0.00    +0.000 C 
ATOM     17  N   UNL     1       2.149  -2.067   0.000  0.00  0.00    +0.000 NA
ENDBRANCH  15  16
ENDBRANCH  14  15
ENDBRANCH  13  14
ENDBRANCH  11  13
ENDBRANCH  10  11
ENDBRANCH   1  10
TORSDOF 9
