REMARK  Name = 
REMARK  3 active torsions:
REMARK  status: ('A' for Active; 'I' for Inactive)
REMARK    1  A    between atoms: N_1  and  C_6
REMARK    2  A    between atoms: C_6  and  C_8
REMARK    3  A    between atoms: C_9  and  C_13
REMARK                            x       y       z     vdW  Elec       q    Type
REMARK                         _______ _______ _______ _____ _____    ______ ____
ROOT
ATOM      1  C   UNL     1       0.835  -1.162   0.000  0.00  0.00    +0.000 C 
ATOM      2  C   UNL     1       0.121  -0.750   0.000  0.00  0.00    +0.000 C 
ATOM      3  C   UNL     1      -0.772   0.242   0.000  0.00  0.00    +0.000 C 
ATOM      4  S   UNL     1       0.035   0.071   0.000  0.00  0.00    +0.000 S 
ATOM      5  S   UNL     1      -0.633  -1.085   0.000  0.00  0.00    +0.000 S 
ATOM      6  C   UNL     1      -1.185  -0.472   0.000  0.00  0.00    +0.000 C 
ENDROOT
BRANCH   3   7
ATOM      7  C   UNL     1      -1.108   0.996   0.000  0.00  0.00    +0.000 A 
ATOM      8  C   UNL     1      -0.959   2.417   0.000  0.00  0.00    +0.000 A 
ATOM      9  C   UNL     1      -0.623   1.663   0.000  0.00  0.00    +0.000 A 
ATOM     10  C   UNL     1      -1.928   1.082   0.000  0.00  0.00    +0.000 A 
ATOM     11  C   UNL     1      -2.264   1.836   0.000  0.00  0.00    +0.000 A 
ATOM     12  C   UNL     1      -1.779   2.503   0.000  0.00  0.00    +0.000 A 
ATOM     13 CL   UNL     1       0.197   1.577   0.000  0.00  0.00    +0.000 Cl
ATOM     14 CL   UNL     1      -2.115   3.257   0.000  0.00  0.00    +0.000 Cl
ENDBRANCH   3   7
BRANCH   1  15
ATOM     15  N   UNL     1       0.835  -1.987   0.000  0.00  0.00    +0.000 N 
ATOM     16  C   UNL     1       1.503  -2.472   0.000  0.00  0.00    +0.000 A 
ATOM     17  C   UNL     1       1.248  -3.257   0.000  0.00  0.00    +0.000 A 
ATOM     18  N   UNL     1       0.423  -3.257   0.000  0.00  0.00    +0.000 NA
ATOM     19  C   UNL     1       0.168  -2.472   0.000  0.00  0.00    +0.000 A 
ENDBRANCH   1  15
BRANCH   1  20
ATOM     20  C   UNL     1       1.550  -0.750   0.000  0.00  0.00    +0.000 C 
ATOM     21  N   UNL     1       2.264  -0.337   0.000  0.00  0.00    +0.000 NA
ENDBRANCH   1  20
TORSDOF 3
