REMARK  Name = 
REMARK  0 active torsions:
REMARK  status: ('A' for Active; 'I' for Inactive)
REMARK                            x       y       z     vdW  Elec       q    Type
REMARK                         _______ _______ _______ _____ _____    ______ ____
ROOT
ATOM      1 MO   UNL     1      -0.501   0.467   0.000  0.00  0.00    +0.000 Mo
ATOM      2  O   UNL     1      -0.501  -0.359   0.000  0.00  0.00    +0.000 OA
ATOM      3  O   UNL     1       0.501   0.467   0.000  0.00  0.00    +0.000 OA
ATOM      4  O   UNL     1      -0.501   1.291   0.000  0.00  0.00    +0.000 OA
ATOM      5  O   UNL     1      -1.291   0.467   0.000  0.00  0.00    +0.000 OA
ENDROOT
TORSDOF 0
REMARK  Name = 
REMARK  0 active torsions:
REMARK  status: ('A' for Active; 'I' for Inactive)
REMARK                            x       y       z     vdW  Elec       q    Type
REMARK                         _______ _______ _______ _____ _____    ______ ____
ROOT
ATOM      1 NA   UNL     1       1.291  -1.291   0.000  0.00  0.00    +0.000 Na
ENDROOT
TORSDOF 0
REMARK  Name = 
REMARK  0 active torsions:
REMARK  status: ('A' for Active; 'I' for Inactive)
REMARK                            x       y       z     vdW  Elec       q    Type
REMARK                         _______ _______ _______ _____ _____    ______ ____
ROOT
ATOM      1 NA   UNL     1       1.291  -1.291   0.000  0.00  0.00    +0.000 Na
ENDROOT
TORSDOF 0
