REMARK  Name = 
REMARK  7 active torsions:
REMARK  status: ('A' for Active; 'I' for Inactive)
REMARK    1  A    between atoms: O_2  and  C_3
REMARK    2  A    between atoms: C_3  and  C_5
REMARK    3  A    between atoms: C_6  and  C_7
REMARK    4  A    between atoms: C_7  and  O_9
REMARK    5  A    between atoms: O_9  and  C_10
REMARK    6  A    between atoms: C_10  and  C_11
REMARK    7  A    between atoms: C_11  and  N_12
REMARK                            x       y       z     vdW  Elec       q    Type
REMARK                         _______ _______ _______ _____ _____    ______ ____
ROOT
ATOM      1  O   UNL     1       0.743  -2.437   0.000  0.00  0.00    +0.000 OA
ENDROOT
BRANCH   1   2
ATOM      2  C   UNL     1       0.743  -3.262   0.000  0.00  0.00    +0.000 C 
ATOM      3  O   UNL     1       1.457  -3.675   0.000  0.00  0.00    +0.000 OA
BRANCH   2   5
ATOM      4  C   UNL     1      -0.686  -3.262   0.000  0.00  0.00    +0.000 C 
ATOM      5  C   UNL     1       0.028  -3.675   0.000  0.00  0.00    +0.000 C 
BRANCH   4   6
ATOM      6  C   UNL     1      -1.401  -3.675   0.000  0.00  0.00    +0.000 C 
ATOM      7  O   UNL     1      -1.401  -4.500   0.000  0.00  0.00    +0.000 OA
BRANCH   6   9
ATOM      8  C   UNL     1      -2.830  -3.675   0.000  0.00  0.00    +0.000 C 
ATOM      9  O   UNL     1      -2.115  -3.262   0.000  0.00  0.00    +0.000 OA
ENDBRANCH   6   9
ENDBRANCH   4   6
ENDBRANCH   2   5
ENDBRANCH   1   2
BRANCH   1  10
ATOM     10  C   UNL     1       1.457  -2.025   0.000  0.00  0.00    +0.000 C 
BRANCH  10  11
ATOM     11  C   UNL     1       2.171  -2.437   0.000  0.00  0.00    +0.000 C 
BRANCH  11  12
ATOM     12  N   UNL     1       2.886  -2.025   0.000  0.00  0.00    +0.000 N 
ATOM     13  C   UNL     1       2.972  -1.204   0.000  0.00  0.00    +0.000 C 
ATOM     14  O   UNL     1       2.359  -0.652   0.000  0.00  0.00    +0.000 OA
ATOM     15  C   UNL     1       3.779  -1.033   0.000  0.00  0.00    +0.000 C 
ATOM     16  C   UNL     1       4.192  -1.747   0.000  0.00  0.00    +0.000 C 
ATOM     17  C   UNL     1       3.640  -2.360   0.000  0.00  0.00    +0.000 C 
ATOM     18  O   UNL     1       3.811  -3.167   0.000  0.00  0.00    +0.000 OA
ENDBRANCH  11  12
ENDBRANCH  10  11
ENDBRANCH   1  10
TORSDOF 7
