REMARK  Name = 
REMARK  2 active torsions:
REMARK  status: ('A' for Active; 'I' for Inactive)
REMARK    1  A    between atoms: C_4  and  C_6
REMARK    2  A    between atoms: C_4  and  N_14
REMARK                            x       y       z     vdW  Elec       q    Type
REMARK                         _______ _______ _______ _____ _____    ______ ____
ROOT
ATOM      1  C   UNL     1       1.356  -2.348   0.000  0.00  0.00    +0.000 C 
ATOM      2  C   UNL     1       2.784   0.127   0.000  0.00  0.00    +0.000 C 
ATOM      3  C   UNL     1      -0.628  -0.698   0.000  0.00  0.00    +0.000 A 
ATOM      4  C   UNL     1       0.641  -0.285   0.000  0.00  0.00    +0.000 A 
ATOM      5  C   UNL     1       0.641  -1.110   0.000  0.00  0.00    +0.000 A 
ATOM      6  C   UNL     1       1.356   0.127   0.000  0.00  0.00    +0.000 A 
ATOM      7  C   UNL     1       2.070  -1.110   0.000  0.00  0.00    +0.000 A 
ATOM      8  N   UNL     1      -0.143  -1.365   0.000  0.00  0.00    +0.000 NA
ATOM      9  N   UNL     1       1.356  -1.523   0.000  0.00  0.00    +0.000 N 
ATOM     10  N   UNL     1       2.070  -0.285   0.000  0.00  0.00    +0.000 N 
ATOM     11  N   UNL     1      -0.143  -0.030   0.000  0.00  0.00    +0.000 N 
ATOM     12  O   UNL     1       1.356   0.952   0.000  0.00  0.00    +0.000 OA
ATOM     13  O   UNL     1       2.784  -1.523   0.000  0.00  0.00    +0.000 OA
ENDROOT
BRANCH  11  14
ATOM     14  C   UNL     1      -0.398   0.754   0.000  0.00  0.00    +0.000 C 
BRANCH  14  16
ATOM     15  C   UNL     1      -1.460   1.710   0.000  0.00  0.00    +0.000 C 
ATOM     16  C   UNL     1      -1.205   0.926   0.000  0.00  0.00    +0.000 C 
ATOM     17  O   UNL     1      -1.758   0.313   0.000  0.00  0.00    +0.000 OA
ENDBRANCH  14  16
ENDBRANCH  11  14
TORSDOF 2
