REMARK  Name = 
REMARK  3 active torsions:
REMARK  status: ('A' for Active; 'I' for Inactive)
REMARK    1  A    between atoms: N_3  and  C_11
REMARK    2  A    between atoms: C_11  and  C_12
REMARK    3  A    between atoms: C_15  and  N_26
REMARK                            x       y       z     vdW  Elec       q    Type
REMARK                         _______ _______ _______ _____ _____    ______ ____
ROOT
ATOM      1  C   UNL     1      -0.063   0.711   0.000  0.00  0.00    +0.000 A 
ATOM      2  C   UNL     1       0.489   0.098   0.000  0.00  0.00    +0.000 A 
ATOM      3  C   UNL     1       0.234  -0.687   0.000  0.00  0.00    +0.000 A 
ATOM      4  C   UNL     1      -0.573  -0.858   0.000  0.00  0.00    +0.000 A 
ATOM      5  C   UNL     1      -1.125  -0.245   0.000  0.00  0.00    +0.000 A 
ATOM      6  C   UNL     1      -0.870   0.539   0.000  0.00  0.00    +0.000 A 
ENDROOT
BRANCH   4  15
ATOM      7  C   UNL     1      -2.327  -3.135   0.000  0.00  0.00    +0.000 A 
ATOM      8  C   UNL     1      -1.612  -2.723   0.000  0.00  0.00    +0.000 A 
ATOM      9  C   UNL     1      -1.612  -1.898   0.000  0.00  0.00    +0.000 A 
ATOM     10  C   UNL     1      -2.327  -1.485   0.000  0.00  0.00    +0.000 A 
ATOM     11  C   UNL     1      -3.041  -1.898   0.000  0.00  0.00    +0.000 A 
ATOM     12  N   UNL     1      -3.041  -2.723   0.000  0.00  0.00    +0.000 NA
ATOM     13  C   UNL     1      -0.343  -2.310   0.000  0.00  0.00    +0.000 A 
ATOM     14  N   UNL     1      -0.828  -2.978   0.000  0.00  0.00    +0.000 NA
ATOM     15  N   UNL     1      -0.828  -1.643   0.000  0.00  0.00    +0.000 N 
ATOM     16  C   UNL     1       0.482  -2.310   0.000  0.00  0.00    +0.000 C 
ENDBRANCH   4  15
BRANCH   1  17
ATOM     17  C   UNL     1       0.192   1.496   0.000  0.00  0.00    +0.000 C 
BRANCH  17  20
ATOM     18  S   UNL     1       2.155   2.335   0.000  0.00  0.00    +0.000 S 
ATOM     19  C   UNL     1       1.335   2.421   0.000  0.00  0.00    +0.000 A 
ATOM     20  N   UNL     1       0.999   1.667   0.000  0.00  0.00    +0.000 N 
ATOM     21  C   UNL     1       1.612   1.115   0.000  0.00  0.00    +0.000 A 
ATOM     22  C   UNL     1       2.327   1.528   0.000  0.00  0.00    +0.000 A 
ATOM     23  C   UNL     1       1.612   0.290   0.000  0.00  0.00    +0.000 A 
ATOM     24  C   UNL     1       2.327  -0.122   0.000  0.00  0.00    +0.000 A 
ATOM     25  C   UNL     1       3.041   0.290   0.000  0.00  0.00    +0.000 A 
ATOM     26  C   UNL     1       3.041   1.115   0.000  0.00  0.00    +0.000 A 
ATOM     27  O   UNL     1       0.922   3.135   0.000  0.00  0.00    +0.000 OA
ENDBRANCH  17  20
ENDBRANCH   1  17
TORSDOF 3
