REMARK  Name = 
REMARK  23 active torsions:
REMARK  status: ('A' for Active; 'I' for Inactive)
REMARK    1  A    between atoms: C_3  and  N_69
REMARK    2  A    between atoms: C_15  and  C_64
REMARK    3  A    between atoms: C_19  and  C_60
REMARK    4  A    between atoms: C_27  and  C_56
REMARK    5  A    between atoms: C_35  and  C_53
REMARK    6  A    between atoms: C_39  and  C_50
REMARK    7  A    between atoms: C_56  and  C_57
REMARK    8  A    between atoms: C_60  and  C_61
REMARK    9  A    between atoms: C_64  and  C_66
REMARK   10  A    between atoms: C_70  and  C_72
REMARK   11  A    between atoms: C_72  and  C_73
REMARK   12  A    between atoms: C_72  and  N_77
REMARK   13  A    between atoms: C_73  and  C_74
REMARK   14  A    between atoms: C_78  and  C_80
REMARK   15  A    between atoms: C_80  and  C_81
REMARK   16  A    between atoms: C_82  and  C_83
REMARK   17  A    between atoms: C_83  and  C_84
REMARK   18  A    between atoms: C_84  and  C_85
REMARK   19  A    between atoms: C_85  and  C_86
REMARK   20  A    between atoms: C_86  and  C_87
REMARK   21  A    between atoms: C_87  and  C_88
REMARK   22  A    between atoms: C_88  and  C_89
REMARK   23  A    between atoms: C_89  and  C_90
REMARK                            x       y       z     vdW  Elec       q    Type
REMARK                         _______ _______ _______ _____ _____    ______ ____
ROOT
ATOM      1  C   UNL     1      -7.791  -0.540   0.000  0.00  0.00    +0.000 C 
ATOM      2  C   UNL     1      -7.957   0.268   0.000  0.00  0.00    +0.000 C 
ATOM      3  C   UNL     1      -8.778   0.184   0.000  0.00  0.00    +0.000 C 
ATOM      4  C   UNL     1      -9.598   0.268   0.000  0.00  0.00    +0.000 C 
ATOM      5  O   UNL     1      -9.765  -0.540   0.000  0.00  0.00    +0.000 OA
ATOM      6  N   UNL     1     -10.386   0.515   0.000  0.00  0.00    +0.000 N 
ATOM      7  C   UNL     1     -10.372  -0.310   0.000  0.00  0.00    +0.000 C 
ATOM      8  C   UNL     1     -11.079  -0.735   0.000  0.00  0.00    +0.000 C 
ATOM      9  C   UNL     1     -11.800  -0.334   0.000  0.00  0.00    +0.000 C 
ATOM     10  C   UNL     1     -11.814   0.491   0.000  0.00  0.00    +0.000 C 
ATOM     11  C   UNL     1     -11.107   0.915   0.000  0.00  0.00    +0.000 C 
ATOM     12  C   UNL     1     -11.733   1.453   0.000  0.00  0.00    +0.000 C 
ATOM     13  O   UNL     1     -12.331   0.884   0.000  0.00  0.00    +0.000 OA
ATOM     14  N   UNL     1     -12.238   2.105   0.000  0.00  0.00    +0.000 NA
ATOM     15  C   UNL     1     -12.601   2.846   0.000  0.00  0.00    +0.000 C 
ATOM     16  C   UNL     1     -12.808   3.644   0.000  0.00  0.00    +0.000 C 
ATOM     17  O   UNL     1     -13.624   3.519   0.000  0.00  0.00    +0.000 OA
ATOM     18  N   UNL     1     -12.850   4.468   0.000  0.00  0.00    +0.000 NA
ATOM     19  C   UNL     1     -12.725   5.284   0.000  0.00  0.00    +0.000 C 
ATOM     20  C   UNL     1     -12.438   6.057   0.000  0.00  0.00    +0.000 C 
ATOM     21  O   UNL     1     -13.179   6.421   0.000  0.00  0.00    +0.000 OA
ATOM     22  N   UNL     1     -12.002   6.758   0.000  0.00  0.00    +0.000 NA
ATOM     23  C   UNL     1     -11.434   7.356   0.000  0.00  0.00    +0.000 C 
ATOM     24  C   UNL     1     -10.757   7.827   0.000  0.00  0.00    +0.000 C 
ATOM     25  O   UNL     1     -11.157   8.548   0.000  0.00  0.00    +0.000 OA
ATOM     26  N   UNL     1      -9.998   8.152   0.000  0.00  0.00    +0.000 NA
ATOM     27  C   UNL     1      -9.190   8.318   0.000  0.00  0.00    +0.000 C 
ATOM     28  C   UNL     1      -8.365   8.318   0.000  0.00  0.00    +0.000 C 
ATOM     29  O   UNL     1      -8.282   9.139   0.000  0.00  0.00    +0.000 OA
ATOM     30  N   UNL     1      -7.557   8.152   0.000  0.00  0.00    +0.000 NA
ATOM     31  C   UNL     1      -6.799   7.827   0.000  0.00  0.00    +0.000 C 
ATOM     32  C   UNL     1      -6.122   7.356   0.000  0.00  0.00    +0.000 C 
ATOM     33  O   UNL     1      -5.585   7.981   0.000  0.00  0.00    +0.000 OA
ATOM     34  N   UNL     1      -5.553   6.758   0.000  0.00  0.00    +0.000 NA
ATOM     35  C   UNL     1      -5.117   6.057   0.000  0.00  0.00    +0.000 C 
ATOM     36  C   UNL     1      -4.830   5.284   0.000  0.00  0.00    +0.000 C 
ATOM     37  O   UNL     1      -4.032   5.490   0.000  0.00  0.00    +0.000 OA
ATOM     38  N   UNL     1      -4.706   4.468   0.000  0.00  0.00    +0.000 NA
ATOM     39  C   UNL     1      -4.747   3.644   0.000  0.00  0.00    +0.000 C 
ATOM     40  C   UNL     1      -4.954   2.846   0.000  0.00  0.00    +0.000 C 
ATOM     41  O   UNL     1      -4.181   2.559   0.000  0.00  0.00    +0.000 OA
ATOM     42  N   UNL     1      -5.317   2.105   0.000  0.00  0.00    +0.000 N 
ATOM     43  C   UNL     1      -4.541   1.826   0.000  0.00  0.00    +0.000 C 
ATOM     44  C   UNL     1      -4.566   1.002   0.000  0.00  0.00    +0.000 C 
ATOM     45  C   UNL     1      -5.358   0.771   0.000  0.00  0.00    +0.000 C 
ATOM     46  C   UNL     1      -5.822   1.453   0.000  0.00  0.00    +0.000 C 
ATOM     47  C   UNL     1      -6.449   0.915   0.000  0.00  0.00    +0.000 C 
ATOM     48  O   UNL     1      -5.977   0.238   0.000  0.00  0.00    +0.000 OA
ATOM     49  N   UNL     1      -7.170   0.515   0.000  0.00  0.00    +0.000 NA
ENDROOT
BRANCH  39  50
ATOM     50  C   UNL     1      -3.932   3.519   0.000  0.00  0.00    +0.000 C 
ATOM     51  C   UNL     1      -3.632   2.751   0.000  0.00  0.00    +0.000 C 
ATOM     52  C   UNL     1      -3.416   4.163   0.000  0.00  0.00    +0.000 C 
ENDBRANCH  39  50
BRANCH  35  53
ATOM     53  C   UNL     1      -4.376   6.421   0.000  0.00  0.00    +0.000 C 
ATOM     54  C   UNL     1      -3.691   5.961   0.000  0.00  0.00    +0.000 C 
ATOM     55  N   UNL     1      -4.321   7.244   0.000  0.00  0.00    +0.000 NA
ENDBRANCH  35  53
BRANCH   3  56
ATOM     56  N   UNL     1      -8.778  -0.641   0.000  0.00  0.00    +0.000 NA
ATOM     57  C   UNL     1      -8.063  -1.053   0.000  0.00  0.00    +0.000 C 
ATOM     58  O   UNL     1      -7.349  -0.641   0.000  0.00  0.00    +0.000 OA
BRANCH  57  59
ATOM     59  C   UNL     1      -8.063  -1.878   0.000  0.00  0.00    +0.000 C 
BRANCH  59  60
ATOM     60  N   UNL     1      -7.349  -2.291   0.000  0.00  0.00    +0.000 NA
ATOM     61  C   UNL     1      -7.349  -3.116   0.000  0.00  0.00    +0.000 C 
ATOM     62  O   UNL     1      -7.684  -3.869   0.000  0.00  0.00    +0.000 OA
BRANCH  61  63
ATOM     63  C   UNL     1      -6.634  -3.528   0.000  0.00  0.00    +0.000 C 
BRANCH  63  64
ATOM     64  C   UNL     1      -6.634  -4.353   0.000  0.00  0.00    +0.000 C 
ATOM     65  C   UNL     1      -5.920  -4.766   0.000  0.00  0.00    +0.000 C 
BRANCH  65  66
ATOM     66  C   UNL     1      -5.205  -4.353   0.000  0.00  0.00    +0.000 C 
BRANCH  66  67
ATOM     67  C   UNL     1      -4.491  -4.766   0.000  0.00  0.00    +0.000 C 
BRANCH  67  68
ATOM     68  C   UNL     1      -3.776  -4.353   0.000  0.00  0.00    +0.000 C 
BRANCH  68  69
ATOM     69  C   UNL     1      -3.062  -4.766   0.000  0.00  0.00    +0.000 C 
BRANCH  69  70
ATOM     70  C   UNL     1      -2.348  -4.353   0.000  0.00  0.00    +0.000 C 
BRANCH  70  71
ATOM     71  C   UNL     1      -1.633  -4.766   0.000  0.00  0.00    +0.000 C 
BRANCH  71  72
ATOM     72  C   UNL     1      -0.919  -4.353   0.000  0.00  0.00    +0.000 C 
BRANCH  72  73
ATOM     73  C   UNL     1      -0.204  -4.766   0.000  0.00  0.00    +0.000 C 
ATOM     74  C   UNL     1       0.510  -4.353   0.000  0.00  0.00    +0.000 C 
ATOM     75  C   UNL     1      -0.204  -5.591   0.000  0.00  0.00    +0.000 C 
ENDBRANCH  72  73
ENDBRANCH  71  72
ENDBRANCH  70  71
ENDBRANCH  69  70
ENDBRANCH  68  69
ENDBRANCH  67  68
ENDBRANCH  66  67
ENDBRANCH  65  66
ENDBRANCH  63  64
ENDBRANCH  61  63
ENDBRANCH  59  60
BRANCH  59  76
ATOM     76  C   UNL     1      -8.778  -2.291   0.000  0.00  0.00    +0.000 C 
BRANCH  76  77
ATOM     77  C   UNL     1      -8.778  -3.116   0.000  0.00  0.00    +0.000 C 
ATOM     78  O   UNL     1      -8.063  -3.528   0.000  0.00  0.00    +0.000 OA
ATOM     79  N   UNL     1      -9.492  -3.528   0.000  0.00  0.00    +0.000 NA
ENDBRANCH  76  77
ENDBRANCH  59  76
ENDBRANCH  57  59
ENDBRANCH   3  56
BRANCH  15  80
ATOM     80  C   UNL     1     -13.375   2.559   0.000  0.00  0.00    +0.000 C 
ATOM     81  C   UNL     1     -14.010   3.086   0.000  0.00  0.00    +0.000 C 
BRANCH  80  82
ATOM     82  C   UNL     1     -13.514   1.746   0.000  0.00  0.00    +0.000 C 
ATOM     83  O   UNL     1     -12.879   1.219   0.000  0.00  0.00    +0.000 OA
ATOM     84  O   UNL     1     -14.287   1.459   0.000  0.00  0.00    +0.000 OA
ENDBRANCH  80  82
ENDBRANCH  15  80
BRANCH  27  85
ATOM     85  C   UNL     1      -9.274   9.139   0.000  0.00  0.00    +0.000 C 
BRANCH  85  86
ATOM     86  C   UNL     1     -10.026   9.477   0.000  0.00  0.00    +0.000 C 
ATOM     87  O   UNL     1     -10.695   8.994   0.000  0.00  0.00    +0.000 OA
ATOM     88  O   UNL     1     -10.110  10.298   0.000  0.00  0.00    +0.000 OA
ENDBRANCH  85  86
ENDBRANCH  27  85
BRANCH  19  89
ATOM     89  C   UNL     1     -13.524   5.490   0.000  0.00  0.00    +0.000 C 
BRANCH  89  90
ATOM     90  C   UNL     1     -14.102   4.902   0.000  0.00  0.00    +0.000 C 
ATOM     91  O   UNL     1     -13.882   4.107   0.000  0.00  0.00    +0.000 OA
ATOM     92  O   UNL     1     -14.901   5.109   0.000  0.00  0.00    +0.000 OA
ENDBRANCH  89  90
ENDBRANCH  19  89
TORSDOF 23
