REMARK  Name = 
REMARK  24 active torsions:
REMARK  status: ('A' for Active; 'I' for Inactive)
REMARK    1  A    between atoms: N_2  and  C_5
REMARK    2  A    between atoms: C_5  and  C_6
REMARK    3  A    between atoms: C_6  and  O_7
REMARK    4  A    between atoms: O_7  and  P_8
REMARK    5  A    between atoms: P_8  and  O_11
REMARK    6  A    between atoms: O_11  and  C_12
REMARK    7  A    between atoms: C_12  and  C_13
REMARK    8  A    between atoms: C_13  and  C_14
REMARK    9  A    between atoms: C_14  and  C_15
REMARK   10  A    between atoms: C_15  and  C_16
REMARK   11  A    between atoms: C_16  and  C_17
REMARK   12  A    between atoms: C_17  and  C_18
REMARK   13  A    between atoms: C_18  and  C_19
REMARK   14  A    between atoms: C_19  and  C_20
REMARK   15  A    between atoms: C_20  and  C_21
REMARK   16  A    between atoms: C_21  and  C_22
REMARK   17  A    between atoms: C_22  and  C_23
REMARK   18  A    between atoms: C_23  and  C_24
REMARK   19  A    between atoms: C_24  and  C_25
REMARK   20  A    between atoms: C_25  and  C_26
REMARK   21  A    between atoms: C_26  and  C_27
REMARK   22  A    between atoms: C_27  and  C_28
REMARK   23  A    between atoms: C_28  and  C_29
REMARK   24  A    between atoms: C_29  and  C_30
REMARK                            x       y       z     vdW  Elec       q    Type
REMARK                         _______ _______ _______ _____ _____    ______ ____
ROOT
ATOM      1  C   UNL     1      10.003 -11.550   0.000  0.00  0.00    +0.000 C 
ENDROOT
BRANCH   1   2
ATOM      2  C   UNL     1       9.288 -11.137   0.000  0.00  0.00    +0.000 C 
BRANCH   2   3
ATOM      3  C   UNL     1       8.574 -11.550   0.000  0.00  0.00    +0.000 C 
BRANCH   3   4
ATOM      4  C   UNL     1       7.859 -11.137   0.000  0.00  0.00    +0.000 C 
BRANCH   4   5
ATOM      5  C   UNL     1       7.145 -11.550   0.000  0.00  0.00    +0.000 C 
BRANCH   5   6
ATOM      6  C   UNL     1       6.430 -11.137   0.000  0.00  0.00    +0.000 C 
BRANCH   6   7
ATOM      7  C   UNL     1       5.716 -11.550   0.000  0.00  0.00    +0.000 C 
BRANCH   7   8
ATOM      8  O   UNL     1       5.001 -11.137   0.000  0.00  0.00    +0.000 OA
BRANCH   8   9
ATOM      9  P   UNL     1       4.287 -11.550   0.000  0.00  0.00    +0.000 P 
ATOM     10  O   UNL     1       4.699 -12.264   0.000  0.00  0.00    +0.000 OA
ATOM     11  O   UNL     1       3.874 -10.835   0.000  0.00  0.00    +0.000 OA
BRANCH   9  12
ATOM     12  O   UNL     1       3.572 -11.963   0.000  0.00  0.00    +0.000 OA
BRANCH  12  13
ATOM     13  C   UNL     1       2.858 -11.550   0.000  0.00  0.00    +0.000 C 
BRANCH  13  14
ATOM     14  C   UNL     1       2.143 -11.963   0.000  0.00  0.00    +0.000 C 
BRANCH  14  16
ATOM     15  C   UNL     1       0.715 -11.137   0.000  0.00  0.00    +0.000 C 
ATOM     16  N   UNL     1       1.429 -11.550   0.000  0.00  0.00    +0.000 N 
ATOM     17  C   UNL     1       1.016 -12.264   0.000  0.00  0.00    +0.000 C 
ATOM     18  C   UNL     1       1.841 -10.835   0.000  0.00  0.00    +0.000 C 
ENDBRANCH  14  16
ENDBRANCH  13  14
ENDBRANCH  12  13
ENDBRANCH   9  12
ENDBRANCH   8   9
ENDBRANCH   7   8
ENDBRANCH   6   7
ENDBRANCH   5   6
ENDBRANCH   4   5
ENDBRANCH   3   4
ENDBRANCH   2   3
ENDBRANCH   1   2
BRANCH   1  19
ATOM     19  C   UNL     1      10.717 -11.137   0.000  0.00  0.00    +0.000 C 
BRANCH  19  20
ATOM     20  C   UNL     1      11.431 -11.550   0.000  0.00  0.00    +0.000 C 
BRANCH  20  21
ATOM     21  C   UNL     1      12.146 -11.137   0.000  0.00  0.00    +0.000 C 
BRANCH  21  22
ATOM     22  C   UNL     1      12.861 -11.550   0.000  0.00  0.00    +0.000 C 
BRANCH  22  23
ATOM     23  C   UNL     1      13.575 -11.137   0.000  0.00  0.00    +0.000 C 
BRANCH  23  24
ATOM     24  C   UNL     1      14.289 -11.550   0.000  0.00  0.00    +0.000 C 
BRANCH  24  25
ATOM     25  C   UNL     1      15.004 -11.137   0.000  0.00  0.00    +0.000 C 
BRANCH  25  26
ATOM     26  C   UNL     1      15.718 -11.550   0.000  0.00  0.00    +0.000 C 
BRANCH  26  27
ATOM     27  C   UNL     1      16.433 -11.137   0.000  0.00  0.00    +0.000 C 
BRANCH  27  28
ATOM     28  C   UNL     1      17.147 -11.550   0.000  0.00  0.00    +0.000 C 
BRANCH  28  29
ATOM     29  C   UNL     1      17.862 -11.137   0.000  0.00  0.00    +0.000 C 
BRANCH  29  30
ATOM     30  C   UNL     1      18.576 -11.550   0.000  0.00  0.00    +0.000 A 
ATOM     31  C   UNL     1      19.291 -11.137   0.000  0.00  0.00    +0.000 A 
ATOM     32  C   UNL     1      20.005 -11.550   0.000  0.00  0.00    +0.000 A 
ATOM     33  C   UNL     1      20.005 -12.375   0.000  0.00  0.00    +0.000 A 
ATOM     34  I   UNL     1      20.720 -12.787   0.000  0.00  0.00    +0.000 I 
ATOM     35  C   UNL     1      19.291 -12.787   0.000  0.00  0.00    +0.000 A 
ATOM     36  C   UNL     1      18.576 -12.375   0.000  0.00  0.00    +0.000 A 
ENDBRANCH  29  30
ENDBRANCH  28  29
ENDBRANCH  27  28
ENDBRANCH  26  27
ENDBRANCH  25  26
ENDBRANCH  24  25
ENDBRANCH  23  24
ENDBRANCH  22  23
ENDBRANCH  21  22
ENDBRANCH  20  21
ENDBRANCH  19  20
ENDBRANCH   1  19
TORSDOF 24
