REMARK  Name = 
REMARK  2 active torsions:
REMARK  status: ('A' for Active; 'I' for Inactive)
REMARK    1  A    between atoms: C_1  and  C_4
REMARK    2  A    between atoms: C_10  and  O_11
REMARK                            x       y       z     vdW  Elec       q    Type
REMARK                         _______ _______ _______ _____ _____    ______ ____
ROOT
ATOM      1  C   UNL     1       0.375   0.812   0.000  0.00  0.00    +0.000 A 
ATOM      2  C   UNL     1      -0.372   0.393   0.000  0.00  0.00    +0.000 A 
ATOM      3  C   UNL     1       1.083   0.393   0.000  0.00  0.00    +0.000 A 
ATOM      4  C   UNL     1      -0.372  -0.431   0.000  0.00  0.00    +0.000 A 
ATOM      5  O   UNL     1      -1.083   0.812   0.000  0.00  0.00    +0.000 OA
ATOM      6  C   UNL     1       1.083  -0.431   0.000  0.00  0.00    +0.000 A 
ATOM      7  C   UNL     1       0.375  -0.854   0.000  0.00  0.00    +0.000 A 
ENDROOT
BRANCH   1   8
ATOM      8  C   UNL     1       0.375   1.696   0.000  0.00  0.00    +0.000 C 
ATOM      9  C   UNL     1      -0.372   2.069   0.000  0.00  0.00    +0.000 C 
ATOM     10  O   UNL     1       1.083   2.110   0.000  0.00  0.00    +0.000 OA
ENDBRANCH   1   8
BRANCH   7  11
ATOM     11  O   UNL     1       0.375  -1.690   0.000  0.00  0.00    +0.000 OA
ATOM     12  C   UNL     1       1.083  -2.110   0.000  0.00  0.00    +0.000 C 
ENDBRANCH   7  11
TORSDOF 2
