REMARK  Name = 
REMARK  8 active torsions:
REMARK  status: ('A' for Active; 'I' for Inactive)
REMARK    1  A    between atoms: S_2  and  C_5
REMARK    2  A    between atoms: C_5  and  C_6
REMARK    3  A    between atoms: C_6  and  C_7
REMARK    4  A    between atoms: C_7  and  N_8
REMARK    5  A    between atoms: C_9  and  C_10
REMARK    6  A    between atoms: C_10  and  N_11
REMARK    7  A    between atoms: N_14  and  C_15
REMARK    8  A    between atoms: C_15  and  C_16
REMARK                            x       y       z     vdW  Elec       q    Type
REMARK                         _______ _______ _______ _____ _____    ______ ____
ROOT
ATOM      1  N   UNL     1      -2.109   1.739   0.000  0.00  0.00    +0.000 N 
ATOM      2  C   UNL     1      -2.594   1.072   0.000  0.00  0.00    +0.000 A 
ATOM      3  C   UNL     1      -2.109   0.404   0.000  0.00  0.00    +0.000 A 
ATOM      4  C   UNL     1      -1.324   0.659   0.000  0.00  0.00    +0.000 A 
ATOM      5  C   UNL     1      -1.324   1.484   0.000  0.00  0.00    +0.000 A 
ATOM      6  C   UNL     1      -0.610   1.897   0.000  0.00  0.00    +0.000 A 
ATOM      7  C   UNL     1       0.105   1.484   0.000  0.00  0.00    +0.000 A 
ATOM      8  C   UNL     1       0.105   0.659   0.000  0.00  0.00    +0.000 A 
ATOM      9 CL   UNL     1       0.819   0.247   0.000  0.00  0.00    +0.000 Cl
ATOM     10  C   UNL     1      -0.610   0.247   0.000  0.00  0.00    +0.000 A 
ENDROOT
BRANCH   1  11
ATOM     11  C   UNL     1      -2.364   2.524   0.000  0.00  0.00    +0.000 C 
BRANCH  11  12
ATOM     12  C   UNL     1      -1.812   3.137   0.000  0.00  0.00    +0.000 C 
BRANCH  12  13
ATOM     13  C   UNL     1      -2.067   3.921   0.000  0.00  0.00    +0.000 C 
BRANCH  13  15
ATOM     14  C   UNL     1      -0.963   5.147   0.000  0.00  0.00    +0.000 C 
ATOM     15  S   UNL     1      -1.514   4.534   0.000  0.00  0.00    +0.000 S 
ATOM     16  O   UNL     1      -2.128   5.087   0.000  0.00  0.00    +0.000 OA
ATOM     17  O   UNL     1      -0.901   3.982   0.000  0.00  0.00    +0.000 OA
ENDBRANCH  13  15
ENDBRANCH  12  13
ENDBRANCH  11  12
ENDBRANCH   1  11
BRANCH   2  18
ATOM     18  C   UNL     1      -3.419   1.072   0.000  0.00  0.00    +0.000 C 
BRANCH  18  19
ATOM     19  N   UNL     1      -3.831   0.357   0.000  0.00  0.00    +0.000 N 
ATOM     20  C   UNL     1      -4.652   0.271   0.000  0.00  0.00    +0.000 A 
ATOM     21  O   UNL     1      -5.204   0.884   0.000  0.00  0.00    +0.000 OA
ATOM     22  N   UNL     1      -4.823  -0.536   0.000  0.00  0.00    +0.000 N 
ATOM     23  C   UNL     1      -4.109  -0.949   0.000  0.00  0.00    +0.000 A 
ATOM     24  C   UNL     1      -3.496  -0.397   0.000  0.00  0.00    +0.000 A 
ATOM     25  C   UNL     1      -2.711  -0.651   0.000  0.00  0.00    +0.000 A 
ATOM     26  N   UNL     1      -2.539  -1.458   0.000  0.00  0.00    +0.000 NA
ATOM     27  C   UNL     1      -3.152  -2.010   0.000  0.00  0.00    +0.000 A 
ATOM     28  C   UNL     1      -3.937  -1.756   0.000  0.00  0.00    +0.000 A 
BRANCH  22  29
ATOM     29  C   UNL     1      -5.577  -0.872   0.000  0.00  0.00    +0.000 C 
BRANCH  29  30
ATOM     30  C   UNL     1      -5.663  -1.692   0.000  0.00  0.00    +0.000 C 
ATOM     31  F   UNL     1      -5.749  -2.513   0.000  0.00  0.00    +0.000 F 
ATOM     32  F   UNL     1      -6.484  -1.606   0.000  0.00  0.00    +0.000 F 
ATOM     33  F   UNL     1      -4.843  -1.778   0.000  0.00  0.00    +0.000 F 
ENDBRANCH  29  30
ENDBRANCH  22  29
ENDBRANCH  18  19
ENDBRANCH   2  18
TORSDOF 8
