REMARK  Name = 
REMARK  2 active torsions:
REMARK  status: ('A' for Active; 'I' for Inactive)
REMARK    1  A    between atoms: N_11  and  C_16
REMARK    2  A    between atoms: C_16  and  C_17
REMARK                            x       y       z     vdW  Elec       q    Type
REMARK                         _______ _______ _______ _____ _____    ______ ____
ROOT
ATOM      1  C   UNL     1      -1.628  -0.000   0.000  0.00  0.00    +0.000 A 
ATOM      2  C   UNL     1      -2.342   0.412   0.000  0.00  0.00    +0.000 A 
ATOM      3  C   UNL     1      -3.057  -0.000   0.000  0.00  0.00    +0.000 A 
ATOM      4  C   UNL     1      -3.057  -0.826   0.000  0.00  0.00    +0.000 A 
ATOM      5  C   UNL     1      -2.342  -1.238   0.000  0.00  0.00    +0.000 A 
ATOM      6  C   UNL     1      -1.628  -0.826   0.000  0.00  0.00    +0.000 A 
ATOM      7  C   UNL     1      -0.913   0.412   0.000  0.00  0.00    +0.000 C 
ATOM      8  C   UNL     1      -0.199  -0.000   0.000  0.00  0.00    +0.000 C 
ATOM      9  C   UNL     1      -0.199  -0.826   0.000  0.00  0.00    +0.000 C 
ATOM     10  C   UNL     1      -0.913  -1.238   0.000  0.00  0.00    +0.000 C 
ATOM     11  N   UNL     1       1.311   0.058   0.000  0.00  0.00    +0.000 NA
ATOM     12  C   UNL     1       2.048  -1.209   0.000  0.00  0.00    +0.000 C 
ATOM     13  C   UNL     1       0.899  -2.210   0.000  0.00  0.00    +0.000 C 
ATOM     14  C   UNL     1       0.516  -1.238   0.000  0.00  0.00    +0.000 C 
ATOM     15  C   UNL     1      -1.315  -1.959   0.000  0.00  0.00    +0.000 C 
ATOM     16  O   UNL     1      -3.771  -1.238   0.000  0.00  0.00    +0.000 OA
ENDROOT
BRANCH  11  17
ATOM     17  C   UNL     1       1.709   0.781   0.000  0.00  0.00    +0.000 C 
BRANCH  17  18
ATOM     18  C   UNL     1       2.534   0.781   0.000  0.00  0.00    +0.000 C 
ATOM     19  C   UNL     1       2.946   1.496   0.000  0.00  0.00    +0.000 C 
ATOM     20  C   UNL     1       3.771   1.496   0.000  0.00  0.00    +0.000 C 
ATOM     21  C   UNL     1       2.534   2.210   0.000  0.00  0.00    +0.000 C 
ENDBRANCH  17  18
ENDBRANCH  11  17
TORSDOF 2
