REMARK  Name = 
REMARK  11 active torsions:
REMARK  status: ('A' for Active; 'I' for Inactive)
REMARK    1  A    between atoms: C_2  and  O_5
REMARK    2  A    between atoms: C_4  and  C_9
REMARK    3  A    between atoms: O_5  and  C_11
REMARK    4  A    between atoms: C_9  and  C_22
REMARK    5  A    between atoms: C_11  and  C_14
REMARK    6  A    between atoms: C_14  and  C_17
REMARK    7  A    between atoms: C_22  and  C_23
REMARK    8  A    between atoms: C_23  and  C_27
REMARK    9  A    between atoms: C_24  and  C_25
REMARK   10  A    between atoms: C_25  and  C_26
REMARK   11  A    between atoms: C_26  and  C_27
REMARK                            x       y       z     vdW  Elec       q    Type
REMARK                         _______ _______ _______ _____ _____    ______ ____
ROOT
ATOM      1  C   UNL     1       0.702  -1.451   0.000  0.00  0.00    +0.000 C 
ATOM      2  C   UNL     1      -0.012  -1.037   0.000  0.00  0.00    +0.000 C 
ATOM      3  C   UNL     1       0.699  -2.275   0.000  0.00  0.00    +0.000 C 
ATOM      4  C   UNL     1       1.416  -1.041   0.000  0.00  0.00    +0.000 C 
ATOM      5  C   UNL     1      -0.729  -1.451   0.000  0.00  0.00    +0.000 C 
ATOM      6  C   UNL     1       1.409  -2.692   0.000  0.00  0.00    +0.000 C 
ATOM      7  C   UNL     1      -0.012  -2.689   0.000  0.00  0.00    +0.000 C 
ATOM      8  C   UNL     1       2.130  -1.458   0.000  0.00  0.00    +0.000 C 
ATOM      9  C   UNL     1      -0.729  -2.275   0.000  0.00  0.00    +0.000 C 
ATOM     10  C   UNL     1       2.126  -2.282   0.000  0.00  0.00    +0.000 C 
ATOM     11  C   UNL     1      -1.443  -2.689   0.000  0.00  0.00    +0.000 C 
ATOM     12  C   UNL     1       2.835  -1.055   0.000  0.00  0.00    +0.000 C 
ENDROOT
BRANCH   4  13
ATOM     13  C   UNL     1       1.419  -0.217   0.000  0.00  0.00    +0.000 C 
BRANCH  13  14
ATOM     14  C   UNL     1       2.149   0.207   0.000  0.00  0.00    +0.000 C 
BRANCH  14  15
ATOM     15  C   UNL     1       2.151   1.034   0.000  0.00  0.00    +0.000 C 
ATOM     16  O   UNL     1       2.867   1.444   0.000  0.00  0.00    +0.000 OA
BRANCH  15  17
ATOM     17  C   UNL     1       1.437   1.448   0.000  0.00  0.00    +0.000 C 
BRANCH  17  18
ATOM     18  C   UNL     1       1.439   2.275   0.000  0.00  0.00    +0.000 C 
ATOM     19  O   UNL     1       2.160   2.688   0.000  0.00  0.00    +0.000 OA
BRANCH  18  20
ATOM     20  C   UNL     1       0.726   2.689   0.000  0.00  0.00    +0.000 C 
BRANCH  20  21
ATOM     21  C   UNL     1       0.009   2.278   0.000  0.00  0.00    +0.000 C 
ATOM     22  O   UNL     1      -0.705   2.692   0.000  0.00  0.00    +0.000 OA
ATOM     23  O   UNL     1       0.006   1.453   0.000  0.00  0.00    +0.000 OA
ENDBRANCH  20  21
ENDBRANCH  18  20
ENDBRANCH  17  18
ENDBRANCH  15  17
ENDBRANCH  14  15
ENDBRANCH  13  14
ENDBRANCH   4  13
BRANCH   2  24
ATOM     24  O   UNL     1      -0.012  -0.213   0.000  0.00  0.00    +0.000 OA
BRANCH  24  25
ATOM     25  C   UNL     1      -0.725   0.201   0.000  0.00  0.00    +0.000 C 
ATOM     26  O   UNL     1      -0.722   1.024   0.000  0.00  0.00    +0.000 OA
BRANCH  25  27
ATOM     27  C   UNL     1      -1.439  -0.213   0.000  0.00  0.00    +0.000 C 
ATOM     28  C   UNL     1      -1.439  -1.037   0.000  0.00  0.00    +0.000 C 
BRANCH  27  29
ATOM     29  C   UNL     1      -2.153   0.201   0.000  0.00  0.00    +0.000 C 
ATOM     30  C   UNL     1      -2.867  -0.210   0.000  0.00  0.00    +0.000 C 
ENDBRANCH  27  29
ENDBRANCH  25  27
ENDBRANCH  24  25
ENDBRANCH   2  24
TORSDOF 11
