REMARK  Name = 
REMARK  2 active torsions:
REMARK  status: ('A' for Active; 'I' for Inactive)
REMARK    1  A    between atoms: C_6  and  C_8
REMARK    2  A    between atoms: C_10  and  N_11
REMARK                            x       y       z     vdW  Elec       q    Type
REMARK                         _______ _______ _______ _____ _____    ______ ____
ROOT
ATOM      1  C   UNL     1       1.975  -1.833   0.000  0.00  0.00    +0.000 A 
ATOM      2  N   UNL     1       1.720  -1.048   0.000  0.00  0.00    +0.000 NA
ATOM      3  C   UNL     1       2.272  -0.435   0.000  0.00  0.00    +0.000 A 
ATOM      4  C   UNL     1       3.079  -0.606   0.000  0.00  0.00    +0.000 A 
ATOM      5  O   UNL     1       3.746  -0.121   0.000  0.00  0.00    +0.000 OA
ATOM      6  C   UNL     1       4.414  -0.606   0.000  0.00  0.00    +0.000 A 
ATOM      7  N   UNL     1       5.221  -0.435   0.000  0.00  0.00    +0.000 NA
ATOM      8  C   UNL     1       5.773  -1.048   0.000  0.00  0.00    +0.000 A 
ATOM      9  C   UNL     1       5.518  -1.833   0.000  0.00  0.00    +0.000 A 
ATOM     10  C   UNL     1       4.711  -2.004   0.000  0.00  0.00    +0.000 A 
ATOM     11  C   UNL     1       4.159  -1.391   0.000  0.00  0.00    +0.000 A 
ATOM     12  C   UNL     1       3.334  -1.391   0.000  0.00  0.00    +0.000 A 
ATOM     13  N   UNL     1       2.782  -2.004   0.000  0.00  0.00    +0.000 NA
ENDROOT
BRANCH   1  19
ATOM     14  O   UNL     1       1.381  -4.628   0.000  0.00  0.00    +0.000 OA
ATOM     15  C   UNL     1       1.126  -3.843   0.000  0.00  0.00    +0.000 A 
ATOM     16  C   UNL     1       0.319  -3.672   0.000  0.00  0.00    +0.000 A 
ATOM     17  C   UNL     1       0.064  -2.887   0.000  0.00  0.00    +0.000 A 
ATOM     18  C   UNL     1       0.616  -2.274   0.000  0.00  0.00    +0.000 A 
ATOM     19  C   UNL     1       1.423  -2.446   0.000  0.00  0.00    +0.000 A 
ATOM     20  C   UNL     1       1.678  -3.230   0.000  0.00  0.00    +0.000 A 
ENDBRANCH   1  19
BRANCH   3  21
ATOM     21  N   UNL     1       2.017   0.350   0.000  0.00  0.00    +0.000 N 
ATOM     22  C   UNL     1       1.210   0.521   0.000  0.00  0.00    +0.000 C 
ATOM     23  C   UNL     1       0.955   1.306   0.000  0.00  0.00    +0.000 C 
ATOM     24  O   UNL     1       1.507   1.919   0.000  0.00  0.00    +0.000 OA
ATOM     25  C   UNL     1       2.314   1.748   0.000  0.00  0.00    +0.000 C 
ATOM     26  C   UNL     1       2.569   0.963   0.000  0.00  0.00    +0.000 C 
ENDBRANCH   3  21
TORSDOF 2
