REMARK  Name = 
REMARK  3 active torsions:
REMARK  status: ('A' for Active; 'I' for Inactive)
REMARK    1  A    between atoms: C_2  and  CA_4
REMARK    2  A    between atoms: CA_4  and  CB_6
REMARK    3  A    between atoms: CB_6  and  CG1_8
REMARK                            x       y       z     vdW  Elec       q    Type
REMARK                         _______ _______ _______ _____ _____    ______ ____
ROOT
ATOM      1  CA  ILE A   1       0.357  -0.206   0.000  0.00  0.00    +0.000 C 
ATOM      2  N   ILE A   1       0.357  -1.031   0.000  0.00  0.00    +0.000 NA
ENDROOT
BRANCH   1   4
ATOM      3  O   ILE A   1       1.072   1.031   0.000  0.00  0.00    +0.000 OA
ATOM      4  C   ILE A   1       1.072   0.206   0.000  0.00  0.00    +0.000 C 
ATOM      5  OXT ILE A   1       1.786  -0.206   0.000  0.00  0.00    +0.000 OA
ENDBRANCH   1   4
BRANCH   1   6
ATOM      6  CB  ILE A   1      -0.357   0.206   0.000  0.00  0.00    +0.000 C 
ATOM      7  CG2 ILE A   1      -0.357   1.031   0.000  0.00  0.00    +0.000 C 
BRANCH   6   8
ATOM      8  CG1 ILE A   1      -1.072  -0.206   0.000  0.00  0.00    +0.000 C 
ATOM      9  CD1 ILE A   1      -1.786   0.206   0.000  0.00  0.00    +0.000 C 
ENDBRANCH   6   8
ENDBRANCH   1   6
TORSDOF 3
