REMARK  Name = 
REMARK  1 active torsions:
REMARK  status: ('A' for Active; 'I' for Inactive)
REMARK    1  A    between atoms: C_14  and  C_20
REMARK                            x       y       z     vdW  Elec       q    Type
REMARK                         _______ _______ _______ _____ _____    ______ ____
ROOT
ATOM      1  C   UNL     1      -3.457   1.428   0.000  0.00  0.00    +0.000 A 
ATOM      2  C   UNL     1      -3.530   0.606   0.000  0.00  0.00    +0.000 A 
ATOM      3  C   UNL     1      -2.708   1.775   0.000  0.00  0.00    +0.000 A 
ATOM      4  C   UNL     1       1.789  -1.698   0.000  0.00  0.00    +0.000 C 
ATOM      5  C   UNL     1       1.250  -2.323   0.000  0.00  0.00    +0.000 C 
ATOM      6  C   UNL     1      -2.930  -0.690   0.000  0.00  0.00    +0.000 A 
ATOM      7  C   UNL     1      -2.255  -1.165   0.000  0.00  0.00    +0.000 A 
ATOM      8  C   UNL     1       1.896   2.082   0.000  0.00  0.00    +0.000 C 
ATOM      9  C   UNL     1      -1.139   3.419   0.000  0.00  0.00    +0.000 C 
ATOM     10  C   UNL     1       1.305   2.658   0.000  0.00  0.00    +0.000 C 
ATOM     11  C   UNL     1      -1.854   3.009   0.000  0.00  0.00    +0.000 C 
ATOM     12  C   UNL     1       0.706  -0.765   0.000  0.00  0.00    +0.000 C 
ATOM     13  C   UNL     1      -1.433   0.004   0.000  0.00  0.00    +0.000 A 
ATOM     14  C   UNL     1       3.007   1.632   0.000  0.00  0.00    +0.000 A 
ATOM     15  C   UNL     1       2.035  -0.278   0.000  0.00  0.00    +0.000 C 
ATOM     16  C   UNL     1       3.086   0.300   0.000  0.00  0.00    +0.000 A 
ATOM     17  C   UNL     1       1.516  -0.919   0.000  0.00  0.00    +0.000 C 
ATOM     18  C   UNL     1      -2.856   0.132   0.000  0.00  0.00    +0.000 A 
ATOM     19  C   UNL     1       0.440  -2.169   0.000  0.00  0.00    +0.000 C 
ATOM     20  C   UNL     1       2.239   1.331   0.000  0.00  0.00    +0.000 A 
ATOM     21  C   UNL     1      -1.506  -0.818   0.000  0.00  0.00    +0.000 A 
ATOM     22  C   UNL     1      -2.107   0.478   0.000  0.00  0.00    +0.000 A 
ATOM     23  C   UNL     1      -0.527   2.866   0.000  0.00  0.00    +0.000 C 
ATOM     24  C   UNL     1      -2.033   1.300   0.000  0.00  0.00    +0.000 A 
ATOM     25  C   UNL     1       0.168  -1.390   0.000  0.00  0.00    +0.000 C 
ATOM     26  C   UNL     1      -0.865   2.113   0.000  0.00  0.00    +0.000 C 
ATOM     27  N   UNL     1       3.530   0.995   0.000  0.00  0.00    +0.000 NA
ATOM     28  N   UNL     1       0.546   2.981   0.000  0.00  0.00    +0.000 NA
ATOM     29  N   UNL     1       2.288   0.508   0.000  0.00  0.00    +0.000 N 
ATOM     30  N   UNL     1      -1.685   2.201   0.000  0.00  0.00    +0.000 N 
ATOM     31  O   UNL     1      -0.454   1.397   0.000  0.00  0.00    +0.000 OA
ATOM     32  O   UNL     1      -0.820  -1.276   0.000  0.00  0.00    +0.000 OA
ENDROOT
BRANCH  19  33
ATOM     33  C   UNL     1      -0.099  -2.794   0.000  0.00  0.00    +0.000 C 
ATOM     34  N   UNL     1      -0.637  -3.419   0.000  0.00  0.00    +0.000 NA
ENDBRANCH  19  33
TORSDOF 1
