REMARK  Name = 
REMARK  5 active torsions:
REMARK  status: ('A' for Active; 'I' for Inactive)
REMARK    1  A    between atoms: C_7  and  C_18
REMARK    2  A    between atoms: N_9  and  C_10
REMARK    3  A    between atoms: C_10  and  C_11
REMARK    4  A    between atoms: C_18  and  C_20
REMARK    5  A    between atoms: N_22  and  C_23
REMARK                            x       y       z     vdW  Elec       q    Type
REMARK                         _______ _______ _______ _____ _____    ______ ____
ROOT
ATOM      1  C   UNL     1       3.352   1.935   0.000  0.00  0.00    +0.000 A 
ATOM      2  C   UNL     1       3.352   1.110   0.000  0.00  0.00    +0.000 A 
ATOM      3  C   UNL     1       2.638   0.698   0.000  0.00  0.00    +0.000 A 
ATOM      4  C   UNL     1       1.923   1.110   0.000  0.00  0.00    +0.000 A 
ATOM      5  C   UNL     1       1.923   1.935   0.000  0.00  0.00    +0.000 A 
ATOM      6  C   UNL     1       2.638   2.348   0.000  0.00  0.00    +0.000 A 
ATOM      7  C   UNL     1       1.139   2.190   0.000  0.00  0.00    +0.000 A 
ATOM      8  C   UNL     1       0.654   1.523   0.000  0.00  0.00    +0.000 A 
ATOM      9  N   UNL     1       1.139   0.856   0.000  0.00  0.00    +0.000 N 
ENDROOT
BRANCH   7  10
ATOM     10  C   UNL     1       0.884   2.975   0.000  0.00  0.00    +0.000 C 
ATOM     11  O   UNL     1       0.077   3.147   0.000  0.00  0.00    +0.000 OA
BRANCH  10  12
ATOM     12  C   UNL     1       1.436   3.588   0.000  0.00  0.00    +0.000 C 
ATOM     13  O   UNL     1       2.243   3.417   0.000  0.00  0.00    +0.000 OA
ATOM     14  N   UNL     1       1.181   4.373   0.000  0.00  0.00    +0.000 NA
BRANCH  14  15
ATOM     15  C   UNL     1       1.733   4.986   0.000  0.00  0.00    +0.000 A 
ATOM     16  C   UNL     1       1.478   5.770   0.000  0.00  0.00    +0.000 A 
ATOM     17  C   UNL     1       2.030   6.383   0.000  0.00  0.00    +0.000 A 
ATOM     18  N   UNL     1       2.837   6.212   0.000  0.00  0.00    +0.000 NA
ATOM     19  C   UNL     1       3.092   5.427   0.000  0.00  0.00    +0.000 A 
ATOM     20  C   UNL     1       2.540   4.814   0.000  0.00  0.00    +0.000 A 
ENDBRANCH  14  15
ENDBRANCH  10  12
ENDBRANCH   7  10
BRANCH   9  21
ATOM     21  C   UNL     1       0.884   0.071   0.000  0.00  0.00    +0.000 C 
BRANCH  21  22
ATOM     22  C   UNL     1       1.436  -0.542   0.000  0.00  0.00    +0.000 A 
ATOM     23  C   UNL     1       2.243  -0.371   0.000  0.00  0.00    +0.000 A 
ATOM     24  C   UNL     1       2.795  -0.984   0.000  0.00  0.00    +0.000 A 
ATOM     25  C   UNL     1       2.540  -1.768   0.000  0.00  0.00    +0.000 A 
ATOM     26  C   UNL     1       1.733  -1.940   0.000  0.00  0.00    +0.000 A 
ATOM     27  C   UNL     1       1.181  -1.327   0.000  0.00  0.00    +0.000 A 
ATOM     28 CL   UNL     1       3.092  -2.381   0.000  0.00  0.00    +0.000 Cl
ENDBRANCH  21  22
ENDBRANCH   9  21
TORSDOF 5
