REMARK  Name = 
REMARK  3 active torsions:
REMARK  status: ('A' for Active; 'I' for Inactive)
REMARK    1  A    between atoms: C_4  and  C_8
REMARK    2  A    between atoms: C_4  and  C_12
REMARK    3  A    between atoms: C_8  and  C_9
REMARK                            x       y       z     vdW  Elec       q    Type
REMARK                         _______ _______ _______ _____ _____    ______ ____
ROOT
ATOM      1  C   UNL     1      -0.330  -0.823   0.000  0.00  0.00    +0.000 C 
ATOM      2  C   UNL     1       0.155  -0.155   0.000  0.00  0.00    +0.000 C 
ATOM      3  C   UNL     1      -0.100   0.629   0.000  0.00  0.00    +0.000 C 
ATOM      4  C   UNL     1       0.568   1.114   0.000  0.00  0.00    +0.000 C 
ATOM      5  C   UNL     1       1.235   0.629   0.000  0.00  0.00    +0.000 C 
ATOM      6  C   UNL     1       0.980  -0.155   0.000  0.00  0.00    +0.000 C 
ATOM      7  C   UNL     1       1.465  -0.823   0.000  0.00  0.00    +0.000 C 
ENDROOT
BRANCH   4   8
ATOM      8  C   UNL     1       0.973   1.833   0.000  0.00  0.00    +0.000 C 
ATOM      9  N   UNL     1       1.798   1.842   0.000  0.00  0.00    +0.000 NA
ENDBRANCH   4   8
BRANCH   4  10
ATOM     10  C   UNL     1       0.163   1.833   0.000  0.00  0.00    +0.000 C 
BRANCH  10  11
ATOM     11  C   UNL     1       0.583   2.543   0.000  0.00  0.00    +0.000 C 
ATOM     12  O   UNL     1       0.178   3.262   0.000  0.00  0.00    +0.000 OA
ATOM     13  O   UNL     1       1.408   2.534   0.000  0.00  0.00    +0.000 OA
ENDBRANCH  10  11
ENDBRANCH   4  10
TORSDOF 3
