REMARK  Name = 
REMARK  9 active torsions:
REMARK  status: ('A' for Active; 'I' for Inactive)
REMARK    1  A    between atoms: C_8  and  C_9
REMARK    2  A    between atoms: C_9  and  N_10
REMARK    3  A    between atoms: N_10  and  C_11
REMARK    4  A    between atoms: C_16  and  C_17
REMARK    5  A    between atoms: N_19  and  CA_21
REMARK    6  A    between atoms: CA_21  and  C_23
REMARK    7  A    between atoms: CA_21  and  CB_25
REMARK    8  A    between atoms: CB_25  and  CG_26
REMARK    9  A    between atoms: CG_26  and  CD_27
REMARK                            x       y       z     vdW  Elec       q    Type
REMARK                         _______ _______ _______ _____ _____    ______ ____
ROOT
ATOM      1  C   UNK A   0       0.357  -1.031   0.000  0.00  0.00    +0.000 A 
ATOM      2  C   UNK A   0       1.786  -1.031   0.000  0.00  0.00    +0.000 A 
ATOM      3  C   UNK A   0       1.072  -1.444   0.000  0.00  0.00    +0.000 A 
ATOM      4  C   UNK A   0       0.357  -0.206   0.000  0.00  0.00    +0.000 A 
ATOM      5  C   UNK A   0       1.072   0.206   0.000  0.00  0.00    +0.000 A 
ATOM      6  C   UNK A   0       1.786  -0.206   0.000  0.00  0.00    +0.000 A 
ENDROOT
BRANCH   6   7
ATOM      7  C   UNK A   0       2.501   0.206   0.000  0.00  0.00    +0.000 C 
ATOM      8  O   UNK A   0       2.501   1.031   0.000  0.00  0.00    +0.000 OA
ATOM      9  N   GLU A   1       3.215  -0.206   0.000  0.00  0.00    +0.000 NA
BRANCH   9  10
ATOM     10  CA  GLU A   1       3.930   0.206   0.000  0.00  0.00    +0.000 C 
BRANCH  10  12
ATOM     11  O   GLU A   1       5.359   0.206   0.000  0.00  0.00    +0.000 OA
ATOM     12  C   GLU A   1       4.644  -0.206   0.000  0.00  0.00    +0.000 C 
ATOM     13  OXT GLU A   1       4.644  -1.031   0.000  0.00  0.00    +0.000 OA
ENDBRANCH  10  12
BRANCH  10  14
ATOM     14  CB  GLU A   1       3.930   1.031   0.000  0.00  0.00    +0.000 C 
BRANCH  14  15
ATOM     15  CG  GLU A   1       4.644   1.444   0.000  0.00  0.00    +0.000 C 
BRANCH  15  17
ATOM     16  OE1 GLU A   1       3.930   2.681   0.000  0.00  0.00    +0.000 OA
ATOM     17  CD  GLU A   1       4.644   2.269   0.000  0.00  0.00    +0.000 C 
ATOM     18  OE2 GLU A   1       5.359   2.681   0.000  0.00  0.00    +0.000 OA
ENDBRANCH  15  17
ENDBRANCH  14  15
ENDBRANCH  10  14
ENDBRANCH   9  10
ENDBRANCH   6   7
BRANCH   1  19
ATOM     19  N   UNK A   0      -0.357  -1.444   0.000  0.00  0.00    +0.000 NA
BRANCH  19  20
ATOM     20  C   UNK A   0      -1.072  -1.031   0.000  0.00  0.00    +0.000 C 
BRANCH  20  28
ATOM     21  N   UNK A   0      -3.930  -2.681   0.000  0.00  0.00    +0.000 NA
ATOM     22  C   UNK A   0      -3.215  -2.269   0.000  0.00  0.00    +0.000 A 
ATOM     23  C   UNK A   0      -3.215  -1.444   0.000  0.00  0.00    +0.000 A 
ATOM     24  N   UNK A   0      -2.501  -1.031   0.000  0.00  0.00    +0.000 NA
ATOM     25  N   UNK A   0      -2.501  -2.681   0.000  0.00  0.00    +0.000 NA
ATOM     26  N   UNK A   0      -4.644  -1.444   0.000  0.00  0.00    +0.000 NA
ATOM     27  C   UNK A   0      -1.786  -2.269   0.000  0.00  0.00    +0.000 C 
ATOM     28  C   UNK A   0      -1.786  -1.444   0.000  0.00  0.00    +0.000 C 
ATOM     29  C   UNK A   0      -3.930  -1.031   0.000  0.00  0.00    +0.000 A 
ATOM     30  O   UNK A   0      -3.930  -0.206   0.000  0.00  0.00    +0.000 OA
ATOM     31  C   UNK A   0      -4.644  -2.269   0.000  0.00  0.00    +0.000 A 
ATOM     32  N   UNK A   0      -5.359  -2.681   0.000  0.00  0.00    +0.000 NA
ENDBRANCH  20  28
ENDBRANCH  19  20
ENDBRANCH   1  19
TORSDOF 9
