REMARK  Name = 
REMARK  14 active torsions:
REMARK  status: ('A' for Active; 'I' for Inactive)
REMARK    1  A    between atoms: C_2  and  C_4
REMARK    2  A    between atoms: C_4  and  N_5
REMARK    3  A    between atoms: N_5  and  C_6
REMARK    4  A    between atoms: N_5  and  S_31
REMARK    5  A    between atoms: C_6  and  C_7
REMARK    6  A    between atoms: C_7  and  C_9
REMARK    7  A    between atoms: C_9  and  C_10
REMARK    8  A    between atoms: C_9  and  N_17
REMARK    9  A    between atoms: C_10  and  C_11
REMARK   10  A    between atoms: C_18  and  O_20
REMARK   11  A    between atoms: O_20  and  C_21
REMARK   12  A    between atoms: S_31  and  C_34
REMARK   13  A    between atoms: N_42  and  C_43
REMARK   14  A    between atoms: N_46  and  C_49
REMARK                            x       y       z     vdW  Elec       q    Type
REMARK                         _______ _______ _______ _____ _____    ______ ____
ROOT
ATOM      1  N   UNL     1      -2.011  -2.265   0.000  0.00  0.00    +0.000 NA
ENDROOT
BRANCH   1   2
ATOM      2  S   UNL     1      -1.297  -2.677   0.000  0.00  0.00    +0.000 S 
ATOM      3  O   UNL     1      -0.884  -1.962   0.000  0.00  0.00    +0.000 OA
ATOM      4  O   UNL     1      -1.709  -3.392   0.000  0.00  0.00    +0.000 OA
BRANCH   2   5
ATOM      5  C   UNL     1      -0.582  -3.090   0.000  0.00  0.00    +0.000 A 
ATOM      6  C   UNL     1       0.132  -2.677   0.000  0.00  0.00    +0.000 A 
ATOM      7  C   UNL     1       0.847  -3.090   0.000  0.00  0.00    +0.000 A 
ATOM      8  C   UNL     1       0.847  -3.915   0.000  0.00  0.00    +0.000 A 
ATOM      9  C   UNL     1       0.132  -4.327   0.000  0.00  0.00    +0.000 A 
ATOM     10  C   UNL     1      -0.582  -3.915   0.000  0.00  0.00    +0.000 A 
ATOM     11  N   UNL     1       1.631  -4.170   0.000  0.00  0.00    +0.000 NA
ATOM     12  C   UNL     1       2.116  -3.502   0.000  0.00  0.00    +0.000 A 
ATOM     13  N   UNL     1       2.941  -3.502   0.000  0.00  0.00    +0.000 NA
ATOM     14  S   UNL     1       1.631  -2.835   0.000  0.00  0.00    +0.000 S 
BRANCH  13  15
ATOM     15  C   UNL     1       3.354  -2.788   0.000  0.00  0.00    +0.000 C 
ATOM     16  C   UNL     1       4.179  -2.788   0.000  0.00  0.00    +0.000 C 
ATOM     17  C   UNL     1       4.591  -2.073   0.000  0.00  0.00    +0.000 C 
ATOM     18  N   UNL     1       4.179  -1.359   0.000  0.00  0.00    +0.000 NA
ATOM     19  C   UNL     1       3.354  -1.359   0.000  0.00  0.00    +0.000 C 
ATOM     20  C   UNL     1       2.941  -2.073   0.000  0.00  0.00    +0.000 C 
BRANCH  18  21
ATOM     21  C   UNL     1       4.591  -0.644   0.000  0.00  0.00    +0.000 C 
ATOM     22  C   UNL     1       5.412  -0.558   0.000  0.00  0.00    +0.000 C 
ATOM     23  C   UNL     1       5.583   0.249   0.000  0.00  0.00    +0.000 C 
ATOM     24  C   UNL     1       4.869   0.661   0.000  0.00  0.00    +0.000 C 
ATOM     25  C   UNL     1       4.256   0.109   0.000  0.00  0.00    +0.000 C 
ENDBRANCH  18  21
ENDBRANCH  13  15
ENDBRANCH   2   5
ENDBRANCH   1   2
BRANCH   1  26
ATOM     26  C   UNL     1      -2.725  -2.677   0.000  0.00  0.00    +0.000 C 
BRANCH  26  28
ATOM     27  C   UNL     1      -3.440  -3.915   0.000  0.00  0.00    +0.000 C 
ATOM     28  C   UNL     1      -2.725  -3.502   0.000  0.00  0.00    +0.000 C 
ATOM     29  C   UNL     1      -2.011  -3.915   0.000  0.00  0.00    +0.000 C 
ENDBRANCH  26  28
ENDBRANCH   1  26
BRANCH   1  30
ATOM     30  C   UNL     1      -2.011  -1.440   0.000  0.00  0.00    +0.000 C 
BRANCH  30  31
ATOM     31  C   UNL     1      -2.725  -1.027   0.000  0.00  0.00    +0.000 C 
ATOM     32  O   UNL     1      -3.440  -1.440   0.000  0.00  0.00    +0.000 OA
BRANCH  31  33
ATOM     33  C   UNL     1      -2.725  -0.202   0.000  0.00  0.00    +0.000 C 
BRANCH  33  34
ATOM     34  N   UNL     1      -2.011   0.210   0.000  0.00  0.00    +0.000 NA
ATOM     35  C   UNL     1      -2.011   1.036   0.000  0.00  0.00    +0.000 C 
ATOM     36  O   UNL     1      -2.725   1.448   0.000  0.00  0.00    +0.000 OA
BRANCH  35  37
ATOM     37  O   UNL     1      -1.297   1.448   0.000  0.00  0.00    +0.000 OA
BRANCH  37  38
ATOM     38  C   UNL     1      -1.297   2.273   0.000  0.00  0.00    +0.000 C 
ATOM     39  C   UNL     1      -0.629   2.758   0.000  0.00  0.00    +0.000 C 
ATOM     40  C   UNL     1      -0.884   3.542   0.000  0.00  0.00    +0.000 C 
ATOM     41  O   UNL     1      -1.709   3.542   0.000  0.00  0.00    +0.000 OA
ATOM     42  C   UNL     1      -1.964   2.758   0.000  0.00  0.00    +0.000 C 
ATOM     43  O   UNL     1      -0.217   4.027   0.000  0.00  0.00    +0.000 OA
ATOM     44  C   UNL     1       0.451   3.542   0.000  0.00  0.00    +0.000 C 
ATOM     45  C   UNL     1       0.196   2.758   0.000  0.00  0.00    +0.000 C 
ENDBRANCH  37  38
ENDBRANCH  35  37
ENDBRANCH  33  34
BRANCH  33  46
ATOM     46  C   UNL     1      -3.440   0.210   0.000  0.00  0.00    +0.000 C 
BRANCH  46  47
ATOM     47  C   UNL     1      -4.154  -0.202   0.000  0.00  0.00    +0.000 A 
ATOM     48  C   UNL     1      -4.869   0.210   0.000  0.00  0.00    +0.000 A 
ATOM     49  C   UNL     1      -5.583  -0.202   0.000  0.00  0.00    +0.000 A 
ATOM     50  C   UNL     1      -5.583  -1.027   0.000  0.00  0.00    +0.000 A 
ATOM     51  C   UNL     1      -4.869  -1.440   0.000  0.00  0.00    +0.000 A 
ATOM     52  C   UNL     1      -4.154  -1.027   0.000  0.00  0.00    +0.000 A 
ENDBRANCH  46  47
ENDBRANCH  33  46
ENDBRANCH  31  33
ENDBRANCH  30  31
ENDBRANCH   1  30
TORSDOF 14
