REMARK  Name = 
REMARK  6 active torsions:
REMARK  status: ('A' for Active; 'I' for Inactive)
REMARK    1  A    between atoms: C_3  and  C_15
REMARK    2  A    between atoms: C_7  and  N_18
REMARK    3  A    between atoms: C_9  and  O_20
REMARK    4  A    between atoms: O_20  and  C_31
REMARK    5  A    between atoms: C_21  and  C_29
REMARK    6  A    between atoms: C_21  and  C_31
REMARK                            x       y       z     vdW  Elec       q    Type
REMARK                         _______ _______ _______ _____ _____    ______ ____
ROOT
ATOM      1  C   UNL     1       0.000   0.206   0.000  0.00  0.00    +0.000 A 
ATOM      2  C   UNL     1      -0.714   0.619   0.000  0.00  0.00    +0.000 A 
ATOM      3  C   UNL     1      -1.429  -0.619   0.000  0.00  0.00    +0.000 A 
ATOM      4  C   UNL     1      -1.429   0.206   0.000  0.00  0.00    +0.000 A 
ATOM      5  C   UNL     1      -0.714  -1.031   0.000  0.00  0.00    +0.000 A 
ATOM      6  C   UNL     1       0.000  -0.619   0.000  0.00  0.00    +0.000 A 
ATOM      7 CL   UNL     1      -0.714  -1.856   0.000  0.00  0.00    +0.000 Cl
ATOM      8 CL   UNL     1      -0.714   1.444   0.000  0.00  0.00    +0.000 Cl
ENDROOT
BRANCH   1  12
ATOM      9  C   UNL     1       2.858   0.206   0.000  0.00  0.00    +0.000 C 
ATOM     10  N   UNL     1       2.143   0.619   0.000  0.00  0.00    +0.000 NA
ATOM     11  C   UNL     1       1.429   0.206   0.000  0.00  0.00    +0.000 C 
ATOM     12  N   UNL     1       0.714   0.619   0.000  0.00  0.00    +0.000 NA
ATOM     13  O   UNL     1       2.858  -0.619   0.000  0.00  0.00    +0.000 OA
ATOM     14  O   UNL     1       1.429  -0.619   0.000  0.00  0.00    +0.000 OA
BRANCH   9  17
ATOM     15  C   UNL     1       4.287   1.856   0.000  0.00  0.00    +0.000 A 
ATOM     16  C   UNL     1       3.572   1.444   0.000  0.00  0.00    +0.000 A 
ATOM     17  C   UNL     1       3.572   0.619   0.000  0.00  0.00    +0.000 A 
ATOM     18  C   UNL     1       4.287   0.206   0.000  0.00  0.00    +0.000 A 
ATOM     19  C   UNL     1       5.001   0.619   0.000  0.00  0.00    +0.000 A 
ATOM     20  C   UNL     1       5.001   1.444   0.000  0.00  0.00    +0.000 A 
ATOM     21  F   UNL     1       2.858   1.856   0.000  0.00  0.00    +0.000 F 
ATOM     22  F   UNL     1       4.287  -0.619   0.000  0.00  0.00    +0.000 F 
ENDBRANCH   9  17
ENDBRANCH   1  12
BRANCH   3  23
ATOM     23  O   UNL     1      -2.143  -1.031   0.000  0.00  0.00    +0.000 OA
BRANCH  23  25
ATOM     24  F   UNL     1      -2.858   0.206   0.000  0.00  0.00    +0.000 F 
ATOM     25  C   UNL     1      -2.858  -0.619   0.000  0.00  0.00    +0.000 C 
ATOM     26  F   UNL     1      -2.143  -0.206   0.000  0.00  0.00    +0.000 F 
BRANCH  25  27
ATOM     27  C   UNL     1      -3.572  -1.031   0.000  0.00  0.00    +0.000 C 
ATOM     28  F   UNL     1      -3.572  -1.856   0.000  0.00  0.00    +0.000 F 
BRANCH  27  31
ATOM     29  F   UNL     1      -4.287   0.206   0.000  0.00  0.00    +0.000 F 
ATOM     30  F   UNL     1      -5.001  -1.031   0.000  0.00  0.00    +0.000 F 
ATOM     31  C   UNL     1      -4.287  -0.619   0.000  0.00  0.00    +0.000 C 
ATOM     32  F   UNL     1      -5.001  -0.206   0.000  0.00  0.00    +0.000 F 
ENDBRANCH  27  31
ENDBRANCH  25  27
ENDBRANCH  23  25
ENDBRANCH   3  23
TORSDOF 6
