REMARK  Name = 
REMARK  3 active torsions:
REMARK  status: ('A' for Active; 'I' for Inactive)
REMARK    1  A    between atoms: C_2  and  C_3
REMARK    2  A    between atoms: C_3  and  C_4
REMARK    3  A    between atoms: C_3  and  C_11
REMARK                            x       y       z     vdW  Elec       q    Type
REMARK                         _______ _______ _______ _____ _____    ______ ____
ROOT
ATOM      1  C   UNL     1      -0.715  -0.412   0.000  0.00  0.00    +0.000 C 
ENDROOT
BRANCH   1   2
ATOM      2  C   UNL     1      -0.715  -1.238   0.000  0.00  0.00    +0.000 A 
ATOM      3  C   UNL     1       0.000  -1.650   0.000  0.00  0.00    +0.000 A 
ATOM      4  C   UNL     1       0.000  -2.475   0.000  0.00  0.00    +0.000 A 
ATOM      5  C   UNL     1      -0.715  -2.888   0.000  0.00  0.00    +0.000 A 
ATOM      6  C   UNL     1      -1.429  -2.475   0.000  0.00  0.00    +0.000 A 
ATOM      7  C   UNL     1      -1.429  -1.650   0.000  0.00  0.00    +0.000 A 
ATOM      8 CL   UNL     1      -0.715  -3.712   0.000  0.00  0.00    +0.000 Cl
ENDBRANCH   1   2
BRANCH   1   9
ATOM      9  C   UNL     1      -1.429   0.000   0.000  0.00  0.00    +0.000 A 
ATOM     10  C   UNL     1      -2.143  -0.412   0.000  0.00  0.00    +0.000 A 
ATOM     11  C   UNL     1      -2.858   0.000   0.000  0.00  0.00    +0.000 A 
ATOM     12  C   UNL     1      -2.858   0.825   0.000  0.00  0.00    +0.000 A 
ATOM     13  C   UNL     1      -2.143   1.238   0.000  0.00  0.00    +0.000 A 
ATOM     14  C   UNL     1      -1.429   0.825   0.000  0.00  0.00    +0.000 A 
ATOM     15 CL   UNL     1      -0.715   1.238   0.000  0.00  0.00    +0.000 Cl
ENDBRANCH   1   9
BRANCH   1  17
ATOM     16  C   UNL     1      -0.412   0.715   0.000  0.00  0.00    +0.000 C 
ATOM     17  C   UNL     1       0.000   0.000   0.000  0.00  0.00    +0.000 C 
ATOM     18 CL   UNL     1       0.412  -0.715   0.000  0.00  0.00    +0.000 Cl
ATOM     19 CL   UNL     1       0.715   0.412   0.000  0.00  0.00    +0.000 Cl
ENDBRANCH   1  17
TORSDOF 3
