REMARK  Name = 
REMARK  9 active torsions:
REMARK  status: ('A' for Active; 'I' for Inactive)
REMARK    1  A    between atoms: C_5  and  C_9
REMARK    2  A    between atoms: C_8  and  C_9
REMARK    3  A    between atoms: C_9  and  C_14
REMARK    4  A    between atoms: N_17  and  C_21
REMARK    5  A    between atoms: C_21  and  C_22
REMARK    6  A    between atoms: C_22  and  C_23
REMARK    7  A    between atoms: C_23  and  C_24
REMARK    8  A    between atoms: C_24  and  C_25
REMARK    9  A    between atoms: C_29  and  C_32
REMARK                            x       y       z     vdW  Elec       q    Type
REMARK                         _______ _______ _______ _____ _____    ______ ____
ROOT
ATOM      1  C   UNL     1      31.165 -18.260   0.000  0.00  0.00    +0.000 C 
ATOM      2  C   UNL     1      31.875 -17.842   0.000  0.00  0.00    +0.000 C 
ATOM      3  C   UNL     1      31.875 -17.006   0.000  0.00  0.00    +0.000 C 
ATOM      4  N   UNL     1      31.165 -16.587   0.000  0.00  0.00    +0.000 NA
ATOM      5  C   UNL     1      30.453 -17.006   0.000  0.00  0.00    +0.000 C 
ATOM      6  C   UNL     1      30.453 -17.842   0.000  0.00  0.00    +0.000 C 
ENDROOT
BRANCH   1   7
ATOM      7  C   UNL     1      31.165 -19.097   0.000  0.00  0.00    +0.000 C 
ATOM      8  O   UNL     1      30.453 -18.679   0.000  0.00  0.00    +0.000 OA
BRANCH   7  13
ATOM      9  C   UNL     1      28.990 -19.515   0.000  0.00  0.00    +0.000 A 
ATOM     10  C   UNL     1      28.990 -20.352   0.000  0.00  0.00    +0.000 A 
ATOM     11  C   UNL     1      29.701 -20.770   0.000  0.00  0.00    +0.000 A 
ATOM     12  C   UNL     1      30.453 -20.352   0.000  0.00  0.00    +0.000 A 
ATOM     13  C   UNL     1      30.453 -19.515   0.000  0.00  0.00    +0.000 A 
ATOM     14  C   UNL     1      29.701 -19.097   0.000  0.00  0.00    +0.000 A 
ENDBRANCH   7  13
BRANCH   7  16
ATOM     15  C   UNL     1      31.875 -20.352   0.000  0.00  0.00    +0.000 A 
ATOM     16  C   UNL     1      31.875 -19.515   0.000  0.00  0.00    +0.000 A 
ATOM     17  C   UNL     1      32.628 -20.770   0.000  0.00  0.00    +0.000 A 
ATOM     18  C   UNL     1      33.339 -20.352   0.000  0.00  0.00    +0.000 A 
ATOM     19  C   UNL     1      33.339 -19.515   0.000  0.00  0.00    +0.000 A 
ATOM     20  C   UNL     1      32.628 -19.097   0.000  0.00  0.00    +0.000 A 
ENDBRANCH   7  16
ENDBRANCH   1   7
BRANCH   4  21
ATOM     21  C   UNL     1      31.165 -15.751   0.000  0.00  0.00    +0.000 C 
BRANCH  21  22
ATOM     22  C   UNL     1      31.917 -15.333   0.000  0.00  0.00    +0.000 C 
BRANCH  22  23
ATOM     23  C   UNL     1      32.628 -15.751   0.000  0.00  0.00    +0.000 C 
BRANCH  23  24
ATOM     24  C   UNL     1      33.339 -15.333   0.000  0.00  0.00    +0.000 C 
ATOM     25  O   UNL     1      33.339 -14.496   0.000  0.00  0.00    +0.000 OA
BRANCH  24  26
ATOM     26  C   UNL     1      34.050 -15.751   0.000  0.00  0.00    +0.000 A 
ATOM     27  C   UNL     1      34.050 -16.587   0.000  0.00  0.00    +0.000 A 
ATOM     28  C   UNL     1      34.761 -17.006   0.000  0.00  0.00    +0.000 A 
ATOM     29  C   UNL     1      35.472 -16.587   0.000  0.00  0.00    +0.000 A 
ATOM     30  C   UNL     1      35.472 -15.751   0.000  0.00  0.00    +0.000 A 
ATOM     31  C   UNL     1      34.761 -15.333   0.000  0.00  0.00    +0.000 A 
BRANCH  29  32
ATOM     32  C   UNL     1      36.225 -17.006   0.000  0.00  0.00    +0.000 C 
ATOM     33  C   UNL     1      36.936 -17.424   0.000  0.00  0.00    +0.000 C 
ATOM     34  C   UNL     1      35.807 -17.759   0.000  0.00  0.00    +0.000 C 
ATOM     35  C   UNL     1      36.644 -16.295   0.000  0.00  0.00    +0.000 C 
ENDBRANCH  29  32
ENDBRANCH  24  26
ENDBRANCH  23  24
ENDBRANCH  22  23
ENDBRANCH  21  22
ENDBRANCH   4  21
TORSDOF 9
