REMARK  Name = 
REMARK  8 active torsions:
REMARK  status: ('A' for Active; 'I' for Inactive)
REMARK    1  A    between atoms: O_3  and  C_9
REMARK    2  A    between atoms: O_4  and  C_13
REMARK    3  A    between atoms: O_5  and  C_14
REMARK    4  A    between atoms: N_6  and  C_8
REMARK    5  A    between atoms: N_7  and  C_15
REMARK    6  A    between atoms: C_8  and  C_11
REMARK    7  A    between atoms: C_8  and  C_12
REMARK    8  A    between atoms: C_10  and  C_15
REMARK                            x       y       z     vdW  Elec       q    Type
REMARK                         _______ _______ _______ _____ _____    ______ ____
ROOT
ATOM      1  N   UNL     1      -1.070  -1.242   0.000  0.00  0.00    +0.000 NA
ATOM      2  N   UNL     1       0.353  -2.070   0.000  0.00  0.00    +0.000 NA
ATOM      3  C   UNL     1      -1.070  -2.070   0.000  0.00  0.00    +0.000 C 
ATOM      4  C   UNL     1      -0.353  -0.823   0.000  0.00  0.00    +0.000 C 
ATOM      5  C   UNL     1      -0.353  -2.479   0.000  0.00  0.00    +0.000 C 
ATOM      6  C   UNL     1       0.353  -1.242   0.000  0.00  0.00    +0.000 C 
ENDROOT
BRANCH   1   7
ATOM      7  C   UNL     1      -1.786  -0.823   0.000  0.00  0.00    +0.000 C 
BRANCH   7   9
ATOM      8  F   UNL     1      -4.651  -2.479   0.000  0.00  0.00    +0.000 F 
ATOM      9  C   UNL     1      -2.502  -1.242   0.000  0.00  0.00    +0.000 A 
ATOM     10  C   UNL     1      -2.502  -2.070   0.000  0.00  0.00    +0.000 A 
ATOM     11  C   UNL     1      -3.218  -0.823   0.000  0.00  0.00    +0.000 A 
ATOM     12  C   UNL     1      -3.218  -2.479   0.000  0.00  0.00    +0.000 A 
ATOM     13  C   UNL     1      -3.934  -1.242   0.000  0.00  0.00    +0.000 A 
ATOM     14  C   UNL     1      -3.934  -2.070   0.000  0.00  0.00    +0.000 A 
ENDBRANCH   7   9
BRANCH   7  16
ATOM     15  F   UNL     1      -1.786   2.479   0.000  0.00  0.00    +0.000 F 
ATOM     16  C   UNL     1      -1.786  -0.005   0.000  0.00  0.00    +0.000 A 
ATOM     17  C   UNL     1      -2.502   0.405   0.000  0.00  0.00    +0.000 A 
ATOM     18  C   UNL     1      -1.070   0.405   0.000  0.00  0.00    +0.000 A 
ATOM     19  C   UNL     1      -2.502   1.242   0.000  0.00  0.00    +0.000 A 
ATOM     20  C   UNL     1      -1.070   1.242   0.000  0.00  0.00    +0.000 A 
ATOM     21  C   UNL     1      -1.786   1.651   0.000  0.00  0.00    +0.000 A 
ENDBRANCH   7  16
ENDBRANCH   1   7
BRANCH   2  22
ATOM     22  C   UNL     1       1.060  -2.479   0.000  0.00  0.00    +0.000 C 
BRANCH  22  24
ATOM     23  C   UNL     1       1.786  -1.242   0.000  0.00  0.00    +0.000 A 
ATOM     24  C   UNL     1       1.786  -2.070   0.000  0.00  0.00    +0.000 A 
ATOM     25  C   UNL     1       2.502  -0.823   0.000  0.00  0.00    +0.000 A 
ATOM     26  C   UNL     1       3.209  -1.242   0.000  0.00  0.00    +0.000 A 
ATOM     27  C   UNL     1       2.502  -2.479   0.000  0.00  0.00    +0.000 A 
ATOM     28  C   UNL     1       3.209  -2.070   0.000  0.00  0.00    +0.000 A 
BRANCH  26  29
ATOM     29  O   UNL     1       3.934  -0.823   0.000  0.00  0.00    +0.000 OA
ATOM     30  C   UNL     1       4.651  -1.242   0.000  0.00  0.00    +0.000 C 
ENDBRANCH  26  29
BRANCH  25  31
ATOM     31  O   UNL     1       2.502  -0.005   0.000  0.00  0.00    +0.000 OA
ATOM     32  C   UNL     1       3.209   0.405   0.000  0.00  0.00    +0.000 C 
ENDBRANCH  25  31
BRANCH  23  33
ATOM     33  O   UNL     1       1.060  -0.823   0.000  0.00  0.00    +0.000 OA
ATOM     34  C   UNL     1       1.060  -0.005   0.000  0.00  0.00    +0.000 C 
ENDBRANCH  23  33
ENDBRANCH  22  24
ENDBRANCH   2  22
TORSDOF 8
