REMARK  Name = 
REMARK  3 active torsions:
REMARK  status: ('A' for Active; 'I' for Inactive)
REMARK    1  A    between atoms: N_5  and  C_12
REMARK    2  A    between atoms: N_6  and  C_17
REMARK    3  A    between atoms: C_10  and  C_16
REMARK                            x       y       z     vdW  Elec       q    Type
REMARK                         _______ _______ _______ _____ _____    ______ ____
ROOT
ATOM      1  N   UNL     1       0.523  -1.238   0.000  0.00  0.00    +0.000 NA
ATOM      2  N   UNL     1      -0.191   0.000   0.000  0.00  0.00    +0.000 N 
ATOM      3  C   UNL     1      -0.191  -0.825   0.000  0.00  0.00    +0.000 C 
ATOM      4  H   UNL     1      -0.634   0.256   0.000  0.00  0.00    +0.000 HD
ATOM      5  H   UNL     1       0.252   0.256   0.000  0.00  0.00    +0.000 HD
ENDROOT
BRANCH   3   6
ATOM      6  N   UNL     1      -0.905  -1.238   0.000  0.00  0.00    +0.000 NA
ATOM      7  N   UNL     1      -2.334  -1.238   0.000  0.00  0.00    +0.000 N 
ATOM      8  N   UNL     1      -1.620   0.000   0.000  0.00  0.00    +0.000 N 
ATOM      9  C   UNL     1      -1.620  -0.825   0.000  0.00  0.00    +0.000 C 
ATOM     10  H   UNL     1      -2.777  -0.982   0.000  0.00  0.00    +0.000 HD
ATOM     11  H   UNL     1      -2.334  -1.749   0.000  0.00  0.00    +0.000 HD
ATOM     12  H   UNL     1      -2.063   0.256   0.000  0.00  0.00    +0.000 HD
ATOM     13  H   UNL     1      -1.177   0.256   0.000  0.00  0.00    +0.000 HD
ENDBRANCH   3   6
BRANCH   1  17
ATOM     14 CL   UNL     1       1.952  -2.062   0.000  0.00  0.00    +0.000 Cl
ATOM     15  C   UNL     1       1.952   0.412   0.000  0.00  0.00    +0.000 A 
ATOM     16  C   UNL     1       1.238   0.000   0.000  0.00  0.00    +0.000 A 
ATOM     17  C   UNL     1       1.238  -0.825   0.000  0.00  0.00    +0.000 A 
ATOM     18  C   UNL     1       2.667   0.000   0.000  0.00  0.00    +0.000 A 
ATOM     19  C   UNL     1       1.952  -1.238   0.000  0.00  0.00    +0.000 A 
ATOM     20  C   UNL     1       2.667  -0.825   0.000  0.00  0.00    +0.000 A 
BRANCH  15  24
ATOM     21  F   UNL     1       1.127   1.238   0.000  0.00  0.00    +0.000 F 
ATOM     22  F   UNL     1       2.777   1.238   0.000  0.00  0.00    +0.000 F 
ATOM     23  F   UNL     1       1.952   2.062   0.000  0.00  0.00    +0.000 F 
ATOM     24  C   UNL     1       1.952   1.238   0.000  0.00  0.00    +0.000 C 
ENDBRANCH  15  24
ENDBRANCH   1  17
TORSDOF 3
