REMARK  Name = 
REMARK  10 active torsions:
REMARK  status: ('A' for Active; 'I' for Inactive)
REMARK    1  A    between atoms: C_1  and  C_2
REMARK    2  A    between atoms: C_1  and  C_3
REMARK    3  A    between atoms: C_1  and  C_4
REMARK    4  A    between atoms: C_1  and  C_5
REMARK    5  A    between atoms: C_3  and  C_8
REMARK    6  A    between atoms: C_8  and  C_14
REMARK    7  A    between atoms: C_14  and  N_16
REMARK    8  A    between atoms: N_16  and  C_17
REMARK    9  A    between atoms: C_17  and  C_19
REMARK   10  A    between atoms: C_19  and  C_20
REMARK                            x       y       z     vdW  Elec       q    Type
REMARK                         _______ _______ _______ _____ _____    ______ ____
ROOT
ATOM      1  C   UNL     1      -1.428  -0.204   0.000  0.00  0.00    +0.000 C 
ENDROOT
BRANCH   1   2
ATOM      2  C   UNL     1      -2.143   0.204   0.000  0.00  0.00    +0.000 C 
BRANCH   2   3
ATOM      3  C   UNL     1      -2.851  -0.208   0.000  0.00  0.00    +0.000 A 
ATOM      4  C   UNL     1      -3.566   0.204   0.000  0.00  0.00    +0.000 A 
ATOM      5  C   UNL     1      -2.851  -1.033   0.000  0.00  0.00    +0.000 A 
ATOM      6  C   UNL     1      -4.281  -0.208   0.000  0.00  0.00    +0.000 A 
ATOM      7  C   UNL     1      -3.566  -1.449   0.000  0.00  0.00    +0.000 A 
ATOM      8  C   UNL     1      -4.281  -1.033   0.000  0.00  0.00    +0.000 A 
ENDBRANCH   2   3
BRANCH   2   9
ATOM      9  C   UNL     1      -2.147   1.029   0.000  0.00  0.00    +0.000 C 
ATOM     10  C   UNL     1      -1.432   1.449   0.000  0.00  0.00    +0.000 C 
ATOM     11  C   UNL     1      -2.858   1.442   0.000  0.00  0.00    +0.000 C 
ENDBRANCH   2   9
BRANCH   2  12
ATOM     12  C   UNL     1      -1.923  -0.593   0.000  0.00  0.00    +0.000 C 
ATOM     13  N   UNL     1      -1.933  -1.421   0.000  0.00  0.00    +0.000 NA
ENDBRANCH   2  12
ENDBRANCH   1   2
BRANCH   1  14
ATOM     14  C   UNL     1      -0.713   0.208   0.000  0.00  0.00    +0.000 C 
BRANCH  14  15
ATOM     15  C   UNL     1      -0.002  -0.198   0.000  0.00  0.00    +0.000 C 
BRANCH  15  16
ATOM     16  N   UNL     1       0.713   0.211   0.000  0.00  0.00    +0.000 NA
ATOM     17  C   UNL     1       0.713   1.040   0.000  0.00  0.00    +0.000 C 
BRANCH  16  18
ATOM     18  C   UNL     1       1.428  -0.194   0.000  0.00  0.00    +0.000 C 
BRANCH  18  19
ATOM     19  C   UNL     1       2.143   0.215   0.000  0.00  0.00    +0.000 C 
BRANCH  19  20
ATOM     20  C   UNL     1       2.851  -0.191   0.000  0.00  0.00    +0.000 A 
ATOM     21  C   UNL     1       3.566   0.222   0.000  0.00  0.00    +0.000 A 
ATOM     22  C   UNL     1       2.855  -1.012   0.000  0.00  0.00    +0.000 A 
ATOM     23  C   UNL     1       4.278  -0.187   0.000  0.00  0.00    +0.000 A 
ATOM     24  C   UNL     1       3.570  -1.425   0.000  0.00  0.00    +0.000 A 
ATOM     25  C   UNL     1       4.281  -1.009   0.000  0.00  0.00    +0.000 A 
ENDBRANCH  19  20
ENDBRANCH  18  19
ENDBRANCH  16  18
ENDBRANCH  15  16
ENDBRANCH  14  15
ENDBRANCH   1  14
TORSDOF 10
