REMARK  Name = 
REMARK  7 active torsions:
REMARK  status: ('A' for Active; 'I' for Inactive)
REMARK    1  A    between atoms: C_2  and  C_7
REMARK    2  A    between atoms: C_3  and  C_22
REMARK    3  A    between atoms: N_4  and  C_23
REMARK    4  A    between atoms: O_9  and  C_11
REMARK    5  A    between atoms: O_9  and  C_14
REMARK    6  A    between atoms: C_10  and  C_14
REMARK    7  A    between atoms: C_22  and  C_23
REMARK                            x       y       z     vdW  Elec       q    Type
REMARK                         _______ _______ _______ _____ _____    ______ ____
ROOT
ATOM      1  O   UNL     1       0.196  -1.080   0.000  0.00  0.00    +0.000 OA
ATOM      2  C   UNL     1       0.767  -0.473   0.000  0.00  0.00    +0.000 C 
ATOM      3  C   UNL     1      -0.526  -0.738   0.000  0.00  0.00    +0.000 C 
ATOM      4  C   UNL     1       0.362   0.229   0.000  0.00  0.00    +0.000 C 
ATOM      5  C   UNL     1      -0.464   0.065   0.000  0.00  0.00    +0.000 C 
ENDROOT
BRANCH   2   6
ATOM      6  C   UNL     1       1.599  -0.473   0.000  0.00  0.00    +0.000 C 
ATOM      7  C   UNL     1       2.432  -0.473   0.000  0.00  0.00    +0.000 C 
BRANCH   7   8
ATOM      8  C   UNL     1       3.263  -0.473   0.000  0.00  0.00    +0.000 C 
BRANCH   8   9
ATOM      9  C   UNL     1       3.777   0.166   0.000  0.00  0.00    +0.000 C 
BRANCH   9  11
ATOM     10  C   UNL     1       4.003   1.571   0.000  0.00  0.00    +0.000 C 
ATOM     11  N   UNL     1       3.484   0.932   0.000  0.00  0.00    +0.000 N 
ATOM     12  O   UNL     1       3.710   2.366   0.000  0.00  0.00    +0.000 OA
ATOM     13  N   UNL     1       4.798   1.374   0.000  0.00  0.00    +0.000 NA
ATOM     14  O   UNL     1       2.679   1.054   0.000  0.00  0.00    +0.000 OA
ENDBRANCH   9  11
ENDBRANCH   8   9
ENDBRANCH   7   8
ENDBRANCH   2   6
BRANCH   3  15
ATOM     15  C   UNL     1      -1.238  -1.140   0.000  0.00  0.00    +0.000 C 
BRANCH  15  16
ATOM     16  O   UNL     1      -1.952  -0.714   0.000  0.00  0.00    +0.000 OA
BRANCH  16  17
ATOM     17  C   UNL     1      -2.663  -1.127   0.000  0.00  0.00    +0.000 A 
ATOM     18  C   UNL     1      -4.087  -1.953   0.000  0.00  0.00    +0.000 A 
ATOM     19  F   UNL     1      -4.798  -2.366   0.000  0.00  0.00    +0.000 F 
ATOM     20  C   UNL     1      -2.663  -1.953   0.000  0.00  0.00    +0.000 A 
ATOM     21  C   UNL     1      -3.378  -0.714   0.000  0.00  0.00    +0.000 A 
ATOM     22  C   UNL     1      -3.378  -2.366   0.000  0.00  0.00    +0.000 A 
ATOM     23  C   UNL     1      -4.087  -1.127   0.000  0.00  0.00    +0.000 A 
ENDBRANCH  16  17
ENDBRANCH  15  16
ENDBRANCH   3  15
TORSDOF 7
