REMARK  Name = 
REMARK  6 active torsions:
REMARK  status: ('A' for Active; 'I' for Inactive)
REMARK    1  A    between atoms: N_2  and  C_3
REMARK    2  A    between atoms: C_3  and  C_4
REMARK    3  A    between atoms: C_4  and  C_5
REMARK    4  A    between atoms: C_5  and  C_6
REMARK    5  A    between atoms: C_6  and  C_7
REMARK    6  A    between atoms: C_7  and  C_8
REMARK                            x       y       z     vdW  Elec       q    Type
REMARK                         _______ _______ _______ _____ _____    ______ ____
ROOT
ATOM      1  C   UNL     1      -0.110   0.190   0.000  0.00  0.00    +0.000 C 
ATOM      2  O   UNL     1      -0.110   1.015   0.000  0.00  0.00    +0.000 OA
ENDROOT
BRANCH   1   3
ATOM      3  C   UNL     1      -0.824  -0.222   0.000  0.00  0.00    +0.000 C 
ATOM      4  O   UNL     1      -0.824  -1.047   0.000  0.00  0.00    +0.000 OA
BRANCH   3   5
ATOM      5  C   UNL     1      -1.539   0.190   0.000  0.00  0.00    +0.000 C 
BRANCH   5   7
ATOM      6  C   UNL     1      -2.968   0.190   0.000  0.00  0.00    +0.000 C 
ATOM      7  N   UNL     1      -2.253  -0.222   0.000  0.00  0.00    +0.000 NA
ENDBRANCH   5   7
ENDBRANCH   3   5
ENDBRANCH   1   3
BRANCH   1   8
ATOM      8  C   UNL     1       0.605  -0.222   0.000  0.00  0.00    +0.000 C 
ATOM      9  O   UNL     1       0.605  -1.047   0.000  0.00  0.00    +0.000 OA
BRANCH   8  10
ATOM     10  C   UNL     1       1.319   0.190   0.000  0.00  0.00    +0.000 C 
ATOM     11  O   UNL     1       1.319   1.015   0.000  0.00  0.00    +0.000 OA
BRANCH  10  12
ATOM     12  C   UNL     1       2.034  -0.222   0.000  0.00  0.00    +0.000 C 
ATOM     13  O   UNL     1       2.748   0.190   0.000  0.00  0.00    +0.000 OA
ENDBRANCH  10  12
ENDBRANCH   8  10
ENDBRANCH   1   8
TORSDOF 6
REMARK  Name = 
REMARK  6 active torsions:
REMARK  status: ('A' for Active; 'I' for Inactive)
REMARK    1  A    between atoms: N_2  and  C_3
REMARK    2  A    between atoms: C_3  and  C_4
REMARK    3  A    between atoms: C_4  and  C_5
REMARK    4  A    between atoms: C_5  and  C_6
REMARK    5  A    between atoms: C_6  and  C_7
REMARK    6  A    between atoms: C_7  and  C_8
REMARK                            x       y       z     vdW  Elec       q    Type
REMARK                         _______ _______ _______ _____ _____    ______ ____
ROOT
ATOM      1  O   UNL     1       5.753   0.715   0.000  0.00  0.00    +0.000 OA
ATOM      2 SB   UNL     1       5.341   0.000   0.000  0.00  0.00    +0.000 Sb
ATOM      3  O   UNL     1       5.753  -0.715   0.000  0.00  0.00    +0.000 OA
ATOM      4  O   UNL     1       4.516   0.000   0.000  0.00  0.00    +0.000 OA
ENDROOT
TORSDOF 0
