REMARK  Name = 
REMARK  5 active torsions:
REMARK  status: ('A' for Active; 'I' for Inactive)
REMARK    1  A    between atoms: CA_2  and  C_3
REMARK    2  A    between atoms: CA_2  and  C_23
REMARK    3  A    between atoms: C_3  and  C_4
REMARK    4  A    between atoms: N_11  and  C1*_14
REMARK    5  A    between atoms: C4*_16  and  C5*_17
REMARK                            x       y       z     vdW  Elec       q    Type
REMARK                         _______ _______ _______ _____ _____    ______ ____
ROOT
ATOM      1  C   UNL     1       1.429  -0.825   0.000  0.00  0.00    +0.000 C 
ATOM      2  O   UNL     1       1.429   0.000   0.000  0.00  0.00    +0.000 OA
ATOM      3  N   UNL     1       0.715  -1.238   0.000  0.00  0.00    +0.000 NA
ATOM      4  C   UNL     1       0.000  -0.825   0.000  0.00  0.00    +0.000 A 
ATOM      5  N   UNL     1      -0.715  -1.238   0.000  0.00  0.00    +0.000 NA
ATOM      6  C   UNL     1      -1.429  -0.825   0.000  0.00  0.00    +0.000 A 
ATOM      7  O   UNL     1      -2.143  -1.238   0.000  0.00  0.00    +0.000 OA
ATOM      8  N   UNL     1      -1.429   0.000   0.000  0.00  0.00    +0.000 N 
ATOM      9  C   UNL     1      -0.715   0.412   0.000  0.00  0.00    +0.000 A 
ATOM     10  C   UNL     1       0.000   0.000   0.000  0.00  0.00    +0.000 A 
ENDROOT
BRANCH   8  11
ATOM     11  C1* UNL     1      -2.143   0.412   0.000  0.00  0.00    +0.000 C 
ATOM     12  O4* UNL     1      -2.897   0.077   0.000  0.00  0.00    +0.000 OA
ATOM     13  C4* UNL     1      -3.449   0.690   0.000  0.00  0.00    +0.000 C 
ATOM     14  C3* UNL     1      -3.037   1.405   0.000  0.00  0.00    +0.000 C 
ATOM     15  O3* UNL     1      -3.372   2.158   0.000  0.00  0.00    +0.000 OA
ATOM     16  C2* UNL     1      -2.230   1.233   0.000  0.00  0.00    +0.000 C 
ATOM     17  O2* UNL     1      -1.617   1.785   0.000  0.00  0.00    +0.000 OA
BRANCH  13  18
ATOM     18  C5* UNL     1      -4.270   0.604   0.000  0.00  0.00    +0.000 C 
ATOM     19  O5* UNL     1      -4.755   1.271   0.000  0.00  0.00    +0.000 OA
ENDBRANCH  13  18
ENDBRANCH   8  11
BRANCH   1  20
ATOM     20  C   UNL     1       2.143  -1.238   0.000  0.00  0.00    +0.000 C 
BRANCH  20  22
ATOM     21  N   UNL     1       2.858   0.000   0.000  0.00  0.00    +0.000 NA
ATOM     22  CA  UNL     1       2.858  -0.825   0.000  0.00  0.00    +0.000 C 
BRANCH  22  23
ATOM     23  C   UNL     1       3.572  -1.238   0.000  0.00  0.00    +0.000 C 
ATOM     24  O   UNL     1       4.287  -0.825   0.000  0.00  0.00    +0.000 OA
ATOM     25  OXT UNL     1       3.572  -2.062   0.000  0.00  0.00    +0.000 OA
ENDBRANCH  22  23
ENDBRANCH  20  22
ENDBRANCH   1  20
TORSDOF 5
