REMARK  Name = 
REMARK  4 active torsions:
REMARK  status: ('A' for Active; 'I' for Inactive)
REMARK    1  A    between atoms: C_1  and  C_6
REMARK    2  A    between atoms: C_6  and  C_7
REMARK    3  A    between atoms: C_7  and  CA_9
REMARK    4  A    between atoms: CA_9  and  C_10
REMARK                            x       y       z     vdW  Elec       q    Type
REMARK                         _______ _______ _______ _____ _____    ______ ____
ROOT
ATOM      1  C   UNL     1      -0.357  -0.412   0.000  0.00  0.00    +0.000 C 
ATOM      2  O   UNL     1      -0.357  -1.237   0.000  0.00  0.00    +0.000 OA
ENDROOT
BRANCH   1   3
ATOM      3  C   UNL     1      -1.072   0.000   0.000  0.00  0.00    +0.000 A 
ATOM      4  C   UNL     1      -1.072   0.825   0.000  0.00  0.00    +0.000 A 
ATOM      5  C   UNL     1      -1.786   1.237   0.000  0.00  0.00    +0.000 A 
ATOM      6  C   UNL     1      -2.501   0.000   0.000  0.00  0.00    +0.000 A 
ATOM      7  C   UNL     1      -2.501   0.825   0.000  0.00  0.00    +0.000 A 
ATOM      8  C   UNL     1      -1.786  -0.412   0.000  0.00  0.00    +0.000 A 
ATOM      9  N   UNL     1      -1.786  -1.237   0.000  0.00  0.00    +0.000 NA
ENDBRANCH   1   3
BRANCH   1  10
ATOM     10  C   UNL     1       0.357   0.000   0.000  0.00  0.00    +0.000 C 
BRANCH  10  11
ATOM     11  CA  UNL     1       1.072  -0.412   0.000  0.00  0.00    +0.000 C 
ATOM     12  N   UNL     1       1.072  -1.237   0.000  0.00  0.00    +0.000 NA
BRANCH  11  13
ATOM     13  C   UNL     1       1.786   0.000   0.000  0.00  0.00    +0.000 C 
ATOM     14  O   UNL     1       1.786   0.825   0.000  0.00  0.00    +0.000 OA
ATOM     15  OXT UNL     1       2.501  -0.412   0.000  0.00  0.00    +0.000 OA
ENDBRANCH  11  13
ENDBRANCH  10  11
ENDBRANCH   1  10
TORSDOF 4
