REMARK  Name = 
REMARK  4 active torsions:
REMARK  status: ('A' for Active; 'I' for Inactive)
REMARK    1  A    between atoms: N_6  and  C_7
REMARK    2  A    between atoms: C_7  and  C_8
REMARK    3  A    between atoms: C_7  and  B_17
REMARK    4  A    between atoms: C_8  and  C_9
REMARK                            x       y       z     vdW  Elec       q    Type
REMARK                         _______ _______ _______ _____ _____    ______ ____
ROOT
ATOM      1  C   UNL     1      -0.357   1.031   0.000  0.00  0.00    +0.000 C 
ENDROOT
BRANCH   1   3
ATOM      2  O   UNL     1       1.072   1.856   0.000  0.00  0.00    +0.000 OA
ATOM      3  N   UNL     1       0.357   0.619   0.000  0.00  0.00    +0.000 N 
ATOM      4  C   UNL     1       1.072   1.031   0.000  0.00  0.00    +0.000 C 
ATOM      5  C   UNL     1       1.786   0.619   0.000  0.00  0.00    +0.000 C 
ATOM      6  H   UNL     1       0.357   0.107   0.000  0.00  0.00    +0.000 HD
ENDBRANCH   1   3
BRANCH   1  10
ATOM      7  O   UNL     1      -0.357   2.681   0.000  0.00  0.00    +0.000 OA
ATOM      8  O   UNL     1       0.468   1.856   0.000  0.00  0.00    +0.000 OA
ATOM      9  O   UNL     1      -1.182   1.856   0.000  0.00  0.00    +0.000 OA
ATOM     10  B   UNL     1      -0.357   1.856   0.000  0.00  0.00    +0.000 B 
ENDBRANCH   1  10
BRANCH   1  11
ATOM     11  C   UNL     1      -1.072   0.619   0.000  0.00  0.00    +0.000 C 
BRANCH  11  13
ATOM     12 CL   UNL     1      -1.072  -2.681   0.000  0.00  0.00    +0.000 Cl
ATOM     13  C   UNL     1      -1.072  -0.206   0.000  0.00  0.00    +0.000 A 
ATOM     14  C   UNL     1      -0.357  -0.619   0.000  0.00  0.00    +0.000 A 
ATOM     15  C   UNL     1      -1.786  -0.619   0.000  0.00  0.00    +0.000 A 
ATOM     16  C   UNL     1      -0.357  -1.444   0.000  0.00  0.00    +0.000 A 
ATOM     17  C   UNL     1      -1.786  -1.444   0.000  0.00  0.00    +0.000 A 
ATOM     18  C   UNL     1      -1.072  -1.856   0.000  0.00  0.00    +0.000 A 
ENDBRANCH  11  13
ENDBRANCH   1  11
TORSDOF 4
