REMARK  Name = 
REMARK  3 active torsions:
REMARK  status: ('A' for Active; 'I' for Inactive)
REMARK    1  A    between atoms: C_4  and  C_13
REMARK    2  A    between atoms: C_11  and  O_12
REMARK    3  A    between atoms: O_12  and  C_13
REMARK                            x       y       z     vdW  Elec       q    Type
REMARK                         _______ _______ _______ _____ _____    ______ ____
ROOT
ATOM      1  C   UNL     1       0.992  -2.412   0.000  0.00  0.00    +0.000 A 
ATOM      2  C   UNL     1      -0.437  -2.412   0.000  0.00  0.00    +0.000 A 
ATOM      3  C   UNL     1      -0.437  -1.587   0.000  0.00  0.00    +0.000 A 
ATOM      4  N   UNL     1      -1.222  -2.667   0.000  0.00  0.00    +0.000 NA
ATOM      5  N   UNL     1       0.278  -2.825   0.000  0.00  0.00    +0.000 NA
ATOM      6  N   UNL     1       1.706  -2.825   0.000  0.00  0.00    +0.000 NA
ATOM      7  N   UNL     1       0.992  -1.587   0.000  0.00  0.00    +0.000 NA
ATOM      8  C   UNL     1       0.278  -1.175   0.000  0.00  0.00    +0.000 A 
ATOM      9  N   UNL     1      -1.222  -1.332   0.000  0.00  0.00    +0.000 NA
ATOM     10  C   UNL     1      -1.706  -2.000   0.000  0.00  0.00    +0.000 A 
ENDROOT
BRANCH   8  11
ATOM     11  O   UNL     1       0.278  -0.350   0.000  0.00  0.00    +0.000 OA
BRANCH  11  12
ATOM     12  C   UNL     1      -0.437   0.063   0.000  0.00  0.00    +0.000 C 
BRANCH  12  13
ATOM     13  C   UNL     1      -0.437   0.888   0.000  0.00  0.00    +0.000 C 
ATOM     14  C   UNL     1      -0.024   2.157   0.000  0.00  0.00    +0.000 C 
ATOM     15  C   UNL     1       0.231   1.373   0.000  0.00  0.00    +0.000 C 
ATOM     16  C   UNL     1      -0.849   2.157   0.000  0.00  0.00    +0.000 C 
ATOM     17  O   UNL     1      -1.334   2.825   0.000  0.00  0.00    +0.000 OA
ATOM     18  N   UNL     1      -1.104   1.373   0.000  0.00  0.00    +0.000 NA
ENDBRANCH  12  13
ENDBRANCH  11  12
ENDBRANCH   8  11
TORSDOF 3
