REMARK  Name = 
REMARK  4 active torsions:
REMARK  status: ('A' for Active; 'I' for Inactive)
REMARK    1  A    between atoms: C_1  and  N_2
REMARK    2  A    between atoms: C_7  and  C_18
REMARK    3  A    between atoms: P_16  and  O_17
REMARK    4  A    between atoms: O_17  and  C_18
REMARK                            x       y       z     vdW  Elec       q    Type
REMARK                         _______ _______ _______ _____ _____    ______ ____
ROOT
ATOM      1  C   UNL     1       0.847  -0.170   0.000  0.00  0.00    +0.000 C 
ATOM      2  O   UNL     1       0.180  -0.654   0.000  0.00  0.00    +0.000 OA
ATOM      3  C   UNL     1       1.514  -0.654   0.000  0.00  0.00    +0.000 C 
ATOM      4  C   UNL     1       0.434  -1.439   0.000  0.00  0.00    +0.000 C 
ATOM      5  C   UNL     1       1.260  -1.439   0.000  0.00  0.00    +0.000 C 
ATOM      6  O   UNL     1       1.744  -2.106   0.000  0.00  0.00    +0.000 OA
ATOM      7  O   UNL     1       2.229  -0.242   0.000  0.00  0.00    +0.000 OA
ENDROOT
BRANCH   1   8
ATOM      8  N   UNL     1       0.847   0.655   0.000  0.00  0.00    +0.000 N 
ATOM      9  C   UNL     1       1.561   1.068   0.000  0.00  0.00    +0.000 A 
ATOM     10  C   UNL     1       0.133   1.068   0.000  0.00  0.00    +0.000 A 
ATOM     11  N   UNL     1       1.561   1.893   0.000  0.00  0.00    +0.000 NA
ATOM     12  O   UNL     1       2.276   0.655   0.000  0.00  0.00    +0.000 OA
ATOM     13  C   UNL     1       0.847   2.305   0.000  0.00  0.00    +0.000 A 
ATOM     14  O   UNL     1       0.847   3.130   0.000  0.00  0.00    +0.000 OA
ATOM     15  C   UNL     1       0.133   1.893   0.000  0.00  0.00    +0.000 A 
ATOM     16  C   UNL     1      -0.582   2.305   0.000  0.00  0.00    +0.000 C 
ENDBRANCH   1   8
BRANCH   4  17
ATOM     17  C   UNL     1      -0.050  -2.106   0.000  0.00  0.00    +0.000 C 
BRANCH  17  18
ATOM     18  O   UNL     1      -0.847  -1.893   0.000  0.00  0.00    +0.000 OA
BRANCH  18  22
ATOM     19  O   UNL     1      -2.276  -1.893   0.000  0.00  0.00    +0.000 OA
ATOM     20  O   UNL     1      -1.562  -3.130   0.000  0.00  0.00    +0.000 OA
ATOM     21  O   UNL     1      -1.562  -1.480   0.000  0.00  0.00    +0.000 OA
ATOM     22  P   UNL     1      -1.562  -2.305   0.000  0.00  0.00    +0.000 P 
ENDBRANCH  18  22
ENDBRANCH  17  18
ENDBRANCH   4  17
TORSDOF 4
