REMARK  Name = 
REMARK  5 active torsions:
REMARK  status: ('A' for Active; 'I' for Inactive)
REMARK    1  A    between atoms: C_5  and  O_14
REMARK    2  A    between atoms: O_14  and  C_24
REMARK    3  A    between atoms: C_24  and  C_26
REMARK    4  A    between atoms: C_26  and  C_27
REMARK    5  A    between atoms: C_27  and  C_28
REMARK                            x       y       z     vdW  Elec       q    Type
REMARK                         _______ _______ _______ _____ _____    ______ ____
ROOT
ATOM      1  C   UNL     1      -0.439   0.783   0.000  0.00  0.00    +0.000 C 
ATOM      2  C   UNL     1      -1.153   0.370   0.000  0.00  0.00    +0.000 C 
ATOM      3  C   UNL     1       0.275   0.370   0.000  0.00  0.00    +0.000 C 
ATOM      4  O   UNL     1      -1.153  -0.457   0.000  0.00  0.00    +0.000 OA
ATOM      5  C   UNL     1      -0.439  -0.870   0.000  0.00  0.00    +0.000 C 
ATOM      6  O   UNL     1      -1.478   1.046   0.000  0.00  0.00    +0.000 OA
ATOM      7  O   UNL     1      -1.954   0.558   0.000  0.00  0.00    +0.000 OA
ATOM      8  C   UNL     1      -0.476   1.639   0.000  0.00  0.00    +0.000 C 
ATOM      9  C   UNL     1      -2.305   1.301   0.000  0.00  0.00    +0.000 C 
ATOM     10  C   UNL     1       0.275  -0.457   0.000  0.00  0.00    +0.000 C 
ATOM     11  O   UNL     1      -1.541   1.702   0.000  0.00  0.00    +0.000 OA
ATOM     12  C   UNL     1       0.910   0.871   0.000  0.00  0.00    +0.000 C 
ATOM     13  C   UNL     1      -1.132   2.224   0.000  0.00  0.00    +0.000 C 
ATOM     14  C   UNL     1       0.213   2.103   0.000  0.00  0.00    +0.000 C 
ATOM     15  C   UNL     1       0.914   1.685   0.000  0.00  0.00    +0.000 C 
ATOM     16  C   UNL     1      -1.942   2.049   0.000  0.00  0.00    +0.000 C 
ATOM     17  C   UNL     1      -3.132   1.310   0.000  0.00  0.00    +0.000 C 
ATOM     18  C   UNL     1       0.989  -0.870   0.000  0.00  0.00    +0.000 C 
ATOM     19  C   UNL     1       0.208   2.929   0.000  0.00  0.00    +0.000 C 
ENDROOT
BRANCH   5  20
ATOM     20  O   UNL     1      -0.443  -1.697   0.000  0.00  0.00    +0.000 OA
BRANCH  20  21
ATOM     21  C   UNL     1       0.274  -2.105   0.000  0.00  0.00    +0.000 C 
ATOM     22  O   UNL     1       0.274  -2.930   0.000  0.00  0.00    +0.000 OA
BRANCH  21  23
ATOM     23  C   UNL     1       0.987  -1.690   0.000  0.00  0.00    +0.000 C 
BRANCH  23  24
ATOM     24  C   UNL     1       1.703  -2.100   0.000  0.00  0.00    +0.000 C 
BRANCH  24  25
ATOM     25  C   UNL     1       2.416  -1.685   0.000  0.00  0.00    +0.000 C 
ATOM     26  O   UNL     1       3.132  -2.096   0.000  0.00  0.00    +0.000 OA
ATOM     27  O   UNL     1       2.413  -0.861   0.000  0.00  0.00    +0.000 OA
ENDBRANCH  24  25
ENDBRANCH  23  24
ENDBRANCH  21  23
ENDBRANCH  20  21
ENDBRANCH   5  20
TORSDOF 5
