REMARK  Name = 
REMARK  3 active torsions:
REMARK  status: ('A' for Active; 'I' for Inactive)
REMARK    1  A    between atoms: C_10  and  C_18
REMARK    2  A    between atoms: N_20  and  C_21
REMARK    3  A    between atoms: C_21  and  C_22
REMARK                            x       y       z     vdW  Elec       q    Type
REMARK                         _______ _______ _______ _____ _____    ______ ____
ROOT
ATOM      1  C   UNL     1      -2.580   0.825   0.000  0.00  0.00    +0.000 C 
ATOM      2  C   UNL     1      -3.295   0.412   0.000  0.00  0.00    +0.000 C 
ATOM      3  N   UNL     1      -3.295  -0.412   0.000  0.00  0.00    +0.000 N 
ATOM      4  C   UNL     1      -2.580  -0.825   0.000  0.00  0.00    +0.000 C 
ATOM      5  C   UNL     1      -1.866  -0.412   0.000  0.00  0.00    +0.000 A 
ATOM      6  N   UNL     1      -1.866   0.412   0.000  0.00  0.00    +0.000 N 
ATOM      7  C   UNL     1      -1.151   0.825   0.000  0.00  0.00    +0.000 A 
ATOM      8  C   UNL     1      -1.151  -0.825   0.000  0.00  0.00    +0.000 A 
ATOM      9  C   UNL     1      -0.437  -0.412   0.000  0.00  0.00    +0.000 A 
ATOM     10  C   UNL     1      -0.437   0.412   0.000  0.00  0.00    +0.000 A 
ATOM     11  C   UNL     1      -4.079  -0.667   0.000  0.00  0.00    +0.000 C 
ATOM     12  C   UNL     1      -4.564   0.000   0.000  0.00  0.00    +0.000 C 
ATOM     13  O   UNL     1      -4.079   0.667   0.000  0.00  0.00    +0.000 OA
ATOM     14  C   UNL     1      -4.334  -1.452   0.000  0.00  0.00    +0.000 C 
ATOM     15  O   UNL     1      -2.580  -1.650   0.000  0.00  0.00    +0.000 OA
ATOM     16  O   UNL     1      -1.151  -1.650   0.000  0.00  0.00    +0.000 OA
ATOM     17  O   UNL     1       0.277  -0.825   0.000  0.00  0.00    +0.000 OA
ENDROOT
BRANCH  10  18
ATOM     18  C   UNL     1       0.277   0.825   0.000  0.00  0.00    +0.000 C 
ATOM     19  O   UNL     1       0.277   1.650   0.000  0.00  0.00    +0.000 OA
ATOM     20  N   UNL     1       0.992   0.412   0.000  0.00  0.00    +0.000 NA
BRANCH  20  21
ATOM     21  C   UNL     1       1.706   0.825   0.000  0.00  0.00    +0.000 C 
BRANCH  21  22
ATOM     22  C   UNL     1       2.421   0.412   0.000  0.00  0.00    +0.000 A 
ATOM     23  C   UNL     1       3.135   0.825   0.000  0.00  0.00    +0.000 A 
ATOM     24  C   UNL     1       2.421  -0.412   0.000  0.00  0.00    +0.000 A 
ATOM     25  C   UNL     1       3.135  -0.825   0.000  0.00  0.00    +0.000 A 
ATOM     26  C   UNL     1       3.850  -0.412   0.000  0.00  0.00    +0.000 A 
ATOM     27  C   UNL     1       3.850   0.412   0.000  0.00  0.00    +0.000 A 
ATOM     28  F   UNL     1       3.135   1.650   0.000  0.00  0.00    +0.000 F 
ATOM     29  F   UNL     1       4.564  -0.825   0.000  0.00  0.00    +0.000 F 
ENDBRANCH  21  22
ENDBRANCH  20  21
ENDBRANCH  10  18
TORSDOF 3
