REMARK  Name = 
REMARK  8 active torsions:
REMARK  status: ('A' for Active; 'I' for Inactive)
REMARK    1  A    between atoms: C_5  and  C_7
REMARK    2  A    between atoms: C_7  and  C_8
REMARK    3  A    between atoms: C_8  and  N_9
REMARK    4  A    between atoms: N_12  and  C_13
REMARK    5  A    between atoms: C_13  and  C_14
REMARK    6  A    between atoms: C_14  and  N_15
REMARK    7  A    between atoms: N_15  and  C_16
REMARK    8  A    between atoms: C_16  and  C_17
REMARK                            x       y       z     vdW  Elec       q    Type
REMARK                         _______ _______ _______ _____ _____    ______ ____
ROOT
ATOM      1  N   UNL     1      -2.399  -1.008   0.000  0.00  0.00    +0.000 NA
ATOM      2  C   UNL     1      -1.596  -0.836   0.000  0.00  0.00    +0.000 C 
ATOM      3  C   UNL     1      -1.338  -0.052   0.000  0.00  0.00    +0.000 C 
ATOM      4  N   UNL     1      -0.526   0.119   0.000  0.00  0.00    +0.000 NA
ATOM      5  C   UNL     1       0.019  -0.492   0.000  0.00  0.00    +0.000 C 
ATOM      6  C   UNL     1      -0.229  -1.276   0.000  0.00  0.00    +0.000 C 
ATOM      7  N   UNL     1      -1.042  -1.448   0.000  0.00  0.00    +0.000 NA
ATOM      8 CL   UNL     1       0.831  -0.320   0.000  0.00  0.00    +0.000 Cl
ATOM      9  O   UNL     1      -1.892   0.569   0.000  0.00  0.00    +0.000 OA
ENDROOT
BRANCH   1  10
ATOM     10  C   UNL     1      -2.657  -1.792   0.000  0.00  0.00    +0.000 C 
BRANCH  10  11
ATOM     11  C   UNL     1      -3.459  -1.964   0.000  0.00  0.00    +0.000 C 
BRANCH  11  16
ATOM     12  C   UNL     1      -4.778  -3.703   0.000  0.00  0.00    +0.000 C 
ATOM     13  C   UNL     1      -4.224  -4.315   0.000  0.00  0.00    +0.000 C 
ATOM     14  C   UNL     1      -3.421  -4.143   0.000  0.00  0.00    +0.000 C 
ATOM     15  N   UNL     1      -3.163  -3.359   0.000  0.00  0.00    +0.000 NA
ATOM     16  C   UNL     1      -3.717  -2.748   0.000  0.00  0.00    +0.000 C 
ATOM     17  C   UNL     1      -4.520  -2.920   0.000  0.00  0.00    +0.000 C 
ENDBRANCH  11  16
ENDBRANCH  10  11
ENDBRANCH   1  10
BRANCH   4  18
ATOM     18  C   UNL     1      -0.277   0.913   0.000  0.00  0.00    +0.000 C 
BRANCH  18  19
ATOM     19  C   UNL     1       0.535   1.085   0.000  0.00  0.00    +0.000 C 
BRANCH  19  20
ATOM     20  N   UNL     1       0.784   1.868   0.000  0.00  0.00    +0.000 NA
BRANCH  20  21
ATOM     21  C   UNL     1       1.596   2.040   0.000  0.00  0.00    +0.000 C 
BRANCH  21  22
ATOM     22  C   UNL     1       1.854   2.824   0.000  0.00  0.00    +0.000 A 
ATOM     23  C   UNL     1       1.367   3.493   0.000  0.00  0.00    +0.000 A 
ATOM     24  S   UNL     1       1.854   4.152   0.000  0.00  0.00    +0.000 S 
ATOM     25  C   UNL     1       2.638   3.904   0.000  0.00  0.00    +0.000 A 
ATOM     26  C   UNL     1       3.345   4.315   0.000  0.00  0.00    +0.000 A 
ATOM     27  C   UNL     1       4.062   3.904   0.000  0.00  0.00    +0.000 A 
ATOM     28  C   UNL     1       4.062   3.072   0.000  0.00  0.00    +0.000 A 
ATOM     29  C   UNL     1       3.345   2.662   0.000  0.00  0.00    +0.000 A 
ATOM     30  C   UNL     1       2.638   3.072   0.000  0.00  0.00    +0.000 A 
ATOM     31 CL   UNL     1       4.778   2.662   0.000  0.00  0.00    +0.000 Cl
ENDBRANCH  21  22
ENDBRANCH  20  21
ENDBRANCH  19  20
ENDBRANCH  18  19
ENDBRANCH   4  18
TORSDOF 8
