REMARK  Name = 
REMARK  8 active torsions:
REMARK  status: ('A' for Active; 'I' for Inactive)
REMARK    1  A    between atoms: C_20  and  O_40
REMARK    2  A    between atoms: C_21  and  C_30
REMARK    3  A    between atoms: C_24  and  C_28
REMARK    4  A    between atoms: C_25  and  O_41
REMARK    5  A    between atoms: C_26  and  O_42
REMARK    6  A    between atoms: C_27  and  S_43
REMARK    7  A    between atoms: C_30  and  N_33
REMARK    8  A    between atoms: N_34  and  S_43
REMARK                            x       y       z     vdW  Elec       q    Type
REMARK                         _______ _______ _______ _____ _____    ______ ____
ROOT
ATOM      1  C   UNL     1       3.993   0.825   0.000  0.00  0.00    +0.000 A 
ATOM      2  C   UNL     1       3.279   1.238   0.000  0.00  0.00    +0.000 A 
ATOM      3  C   UNL     1       3.279  -0.412   0.000  0.00  0.00    +0.000 A 
ATOM      4  C   UNL     1       3.993   0.000   0.000  0.00  0.00    +0.000 A 
ATOM      5  C   UNL     1       2.564   0.000   0.000  0.00  0.00    +0.000 A 
ATOM      6  C   UNL     1       2.564   0.825   0.000  0.00  0.00    +0.000 A 
ATOM      7  C   UNL     1       1.295   0.412   0.000  0.00  0.00    +0.000 C 
ATOM      8  C   UNL     1       1.780  -0.255   0.000  0.00  0.00    +0.000 C 
ATOM      9 CL   UNL     1       4.893  -0.145   0.000  0.00  0.00    +0.000 Cl
ATOM     10  N   UNL     1       1.780   1.080   0.000  0.00  0.00    +0.000 N 
ATOM     11  O   UNL     1       0.439   0.388   0.000  0.00  0.00    +0.000 OA
ENDROOT
BRANCH   8  16
ATOM     12  C   UNL     1      -0.364  -0.667   0.000  0.00  0.00    +0.000 A 
ATOM     13  C   UNL     1      -0.364  -1.492   0.000  0.00  0.00    +0.000 A 
ATOM     14  C   UNL     1       0.351  -0.255   0.000  0.00  0.00    +0.000 A 
ATOM     15  C   UNL     1       0.351  -1.905   0.000  0.00  0.00    +0.000 A 
ATOM     16  C   UNL     1       1.065  -0.667   0.000  0.00  0.00    +0.000 A 
ATOM     17  C   UNL     1       1.065  -1.492   0.000  0.00  0.00    +0.000 A 
BRANCH  17  19
ATOM     18  C   UNL     1       1.303  -3.250   0.000  0.00  0.00    +0.000 C 
ATOM     19  O   UNL     1       1.493  -2.362   0.000  0.00  0.00    +0.000 OA
ENDBRANCH  17  19
ENDBRANCH   8  16
BRANCH   8  24
ATOM     20  C   UNL     1       3.009  -2.001   0.000  0.00  0.00    +0.000 C 
ATOM     21  C   UNL     1       1.620  -1.641   0.000  0.00  0.00    +0.000 C 
ATOM     22  C   UNL     1       2.255  -2.336   0.000  0.00  0.00    +0.000 C 
ATOM     23  C   UNL     1       2.922  -1.180   0.000  0.00  0.00    +0.000 C 
ATOM     24  N   UNL     1       2.115  -1.009   0.000  0.00  0.00    +0.000 NA
ATOM     25  O   UNL     1       2.514  -3.215   0.000  0.00  0.00    +0.000 OA
BRANCH  23  28
ATOM     26  C   UNL     1       5.265  -0.955   0.000  0.00  0.00    +0.000 C 
ATOM     27  C   UNL     1       4.457  -2.133   0.000  0.00  0.00    +0.000 C 
ATOM     28  C   UNL     1       3.820  -0.830   0.000  0.00  0.00    +0.000 C 
ATOM     29  N   UNL     1       4.521  -1.310   0.000  0.00  0.00    +0.000 N 
ATOM     30  O   UNL     1       3.515   0.016   0.000  0.00  0.00    +0.000 OA
ENDBRANCH  23  28
ENDBRANCH   8  24
BRANCH  10  33
ATOM     31  O   UNL     1       2.227   2.255   0.000  0.00  0.00    +0.000 OA
ATOM     32  O   UNL     1       0.599   1.723   0.000  0.00  0.00    +0.000 OA
ATOM     33  S   UNL     1       1.461   1.847   0.000  0.00  0.00    +0.000 S 
BRANCH  33  39
ATOM     34  C   UNL     1       0.208   3.605   0.000  0.00  0.00    +0.000 A 
ATOM     35  C   UNL     1       0.463   2.821   0.000  0.00  0.00    +0.000 A 
ATOM     36  C   UNL     1       1.567   4.047   0.000  0.00  0.00    +0.000 A 
ATOM     37  C   UNL     1       0.760   4.218   0.000  0.00  0.00    +0.000 A 
ATOM     38  C   UNL     1       1.822   3.262   0.000  0.00  0.00    +0.000 A 
ATOM     39  C   UNL     1       1.270   2.649   0.000  0.00  0.00    +0.000 A 
BRANCH  38  41
ATOM     40  C   UNL     1       3.321   3.251   0.000  0.00  0.00    +0.000 C 
ATOM     41  O   UNL     1       2.621   3.688   0.000  0.00  0.00    +0.000 OA
ENDBRANCH  38  41
BRANCH  37  43
ATOM     42  C   UNL     1      -0.302   5.175   0.000  0.00  0.00    +0.000 C 
ATOM     43  O   UNL     1       0.505   5.003   0.000  0.00  0.00    +0.000 OA
ENDBRANCH  37  43
ENDBRANCH  33  39
ENDBRANCH  10  33
TORSDOF 8
