REMARK  Name = 
REMARK  11 active torsions:
REMARK  status: ('A' for Active; 'I' for Inactive)
REMARK    1  A    between atoms: C_1  and  C_2
REMARK    2  A    between atoms: C_1  and  O_9
REMARK    3  A    between atoms: C_4  and  O_12
REMARK    4  A    between atoms: O_9  and  C_13
REMARK    5  A    between atoms: N_11  and  C_14
REMARK    6  A    between atoms: N_11  and  C_15
REMARK    7  A    between atoms: N_11  and  C_16
REMARK    8  A    between atoms: O_12  and  C_17
REMARK    9  A    between atoms: C_13  and  C_14
REMARK   10  A    between atoms: C_17  and  C_18
REMARK   11  A    between atoms: C_18  and  C_19
REMARK                            x       y       z     vdW  Elec       q    Type
REMARK                         _______ _______ _______ _____ _____    ______ ____
ROOT
ATOM      1  C   UNL     1      -1.426   0.396   0.000  0.00  0.00    +0.000 A 
ATOM      2  C   UNL     1      -1.426  -0.440   0.000  0.00  0.00    +0.000 A 
ATOM      3  C   UNL     1      -2.135  -0.862   0.000  0.00  0.00    +0.000 A 
ATOM      4  C   UNL     1      -2.864  -0.440   0.000  0.00  0.00    +0.000 A 
ATOM      5  C   UNL     1      -2.150   0.804   0.000  0.00  0.00    +0.000 A 
ATOM      6  C   UNL     1      -2.864   0.381   0.000  0.00  0.00    +0.000 A 
ATOM      7  N   UNL     1      -3.578  -0.872   0.000  0.00  0.00    +0.000 NA
ENDROOT
BRANCH   1   8
ATOM      8  C   UNL     1      -0.721   0.819   0.000  0.00  0.00    +0.000 C 
ATOM      9  O   UNL     1      -0.736   1.635   0.000  0.00  0.00    +0.000 OA
BRANCH   8  10
ATOM     10  O   UNL     1      -0.007   0.406   0.000  0.00  0.00    +0.000 OA
BRANCH  10  11
ATOM     11  C   UNL     1       0.707   0.819   0.000  0.00  0.00    +0.000 C 
BRANCH  11  12
ATOM     12  C   UNL     1       1.421   0.420   0.000  0.00  0.00    +0.000 C 
BRANCH  12  13
ATOM     13  N   UNL     1       2.135   0.843   0.000  0.00  0.00    +0.000 NA
BRANCH  13  14
ATOM     14  C   UNL     1       2.864   0.449   0.000  0.00  0.00    +0.000 C 
ATOM     15  C   UNL     1       3.578   0.862   0.000  0.00  0.00    +0.000 C 
ENDBRANCH  13  14
BRANCH  13  16
ATOM     16  C   UNL     1       2.145   1.674   0.000  0.00  0.00    +0.000 C 
ATOM     17  C   UNL     1       2.845   2.087   0.000  0.00  0.00    +0.000 C 
ENDBRANCH  13  16
ENDBRANCH  12  13
ENDBRANCH  11  12
ENDBRANCH  10  11
ENDBRANCH   8  10
ENDBRANCH   1   8
BRANCH   3  18
ATOM     18  O   UNL     1      -2.126  -1.679   0.000  0.00  0.00    +0.000 OA
BRANCH  18  19
ATOM     19  C   UNL     1      -1.411  -2.087   0.000  0.00  0.00    +0.000 C 
BRANCH  19  20
ATOM     20  C   UNL     1      -0.697  -1.679   0.000  0.00  0.00    +0.000 C 
BRANCH  20  21
ATOM     21  C   UNL     1       0.007  -2.087   0.000  0.00  0.00    +0.000 C 
ATOM     22  C   UNL     1       0.736  -1.693   0.000  0.00  0.00    +0.000 C 
ENDBRANCH  20  21
ENDBRANCH  19  20
ENDBRANCH  18  19
ENDBRANCH   3  18
TORSDOF 11
