REMARK  Name = 
REMARK  14 active torsions:
REMARK  status: ('A' for Active; 'I' for Inactive)
REMARK    1  A    between atoms: O_1  and  C_5
REMARK    2  A    between atoms: O_1  and  C_33
REMARK    3  A    between atoms: C_3  and  C_4
REMARK    4  A    between atoms: C_3  and  C_11
REMARK    5  A    between atoms: C_4  and  C_5
REMARK    6  A    between atoms: C_4  and  N_13
REMARK    7  A    between atoms: C_15  and  C_16
REMARK    8  A    between atoms: C_15  and  C_23
REMARK    9  A    between atoms: C_16  and  C_17
REMARK   10  A    between atoms: C_20  and  N_24
REMARK   11  A    between atoms: N_24  and  C_27
REMARK   12  A    between atoms: N_24  and  C_29
REMARK   13  A    between atoms: C_26  and  C_27
REMARK   14  A    between atoms: C_28  and  C_29
REMARK                            x       y       z     vdW  Elec       q    Type
REMARK                         _______ _______ _______ _____ _____    ______ ____
ROOT
ATOM      1  N   UNL     1       1.784   0.202   0.000  0.00  0.00    +0.000 NA
ATOM      2  O   UNL     1       1.071   1.441   0.000  0.00  0.00    +0.000 OA
ATOM      3  C   UNL     1       1.071   0.617   0.000  0.00  0.00    +0.000 C 
ENDROOT
BRANCH   3   4
ATOM      4  C   UNL     1       0.356   0.204   0.000  0.00  0.00    +0.000 C 
ATOM      5  N   UNL     1       0.356  -0.621   0.000  0.00  0.00    +0.000 NA
BRANCH   4   6
ATOM      6  C   UNL     1      -0.357   0.619   0.000  0.00  0.00    +0.000 C 
BRANCH   6  12
ATOM      7  C   UNL     1      -1.070  -0.625   0.000  0.00  0.00    +0.000 A 
ATOM      8  C   UNL     1      -1.792  -1.033   0.000  0.00  0.00    +0.000 A 
ATOM      9  C   UNL     1      -2.508  -0.616   0.000  0.00  0.00    +0.000 A 
ATOM     10  C   UNL     1      -2.503   0.209   0.000  0.00  0.00    +0.000 A 
ATOM     11  C   UNL     1      -1.789   0.621   0.000  0.00  0.00    +0.000 A 
ATOM     12  C   UNL     1      -1.072   0.204   0.000  0.00  0.00    +0.000 A 
BRANCH   9  13
ATOM     13  N   UNL     1      -3.225  -1.025   0.000  0.00  0.00    +0.000 N 
BRANCH  13  14
ATOM     14  C   UNL     1      -3.228  -1.850   0.000  0.00  0.00    +0.000 C 
BRANCH  14  16
ATOM     15 CL   UNL     1      -2.519  -3.091   0.000  0.00  0.00    +0.000 Cl
ATOM     16  C   UNL     1      -2.515  -2.265   0.000  0.00  0.00    +0.000 C 
ENDBRANCH  14  16
ENDBRANCH  13  14
BRANCH  13  17
ATOM     17  C   UNL     1      -3.938  -0.611   0.000  0.00  0.00    +0.000 C 
BRANCH  17  18
ATOM     18  C   UNL     1      -4.653  -1.019   0.000  0.00  0.00    +0.000 C 
ATOM     19 CL   UNL     1      -5.366  -0.604   0.000  0.00  0.00    +0.000 Cl
ENDBRANCH  17  18
ENDBRANCH  13  17
ENDBRANCH   9  13
ENDBRANCH   6  12
ENDBRANCH   4   6
ENDBRANCH   3   4
BRANCH   1  20
ATOM     20  C   UNL     1       2.500   0.616   0.000  0.00  0.00    +0.000 C 
BRANCH  20  22
ATOM     21  O   UNL     1       3.214  -0.621   0.000  0.00  0.00    +0.000 OA
ATOM     22  C   UNL     1       3.213   0.202   0.000  0.00  0.00    +0.000 C 
BRANCH  22  23
ATOM     23  O   UNL     1       3.929   0.618   0.000  0.00  0.00    +0.000 OA
BRANCH  23  25
ATOM     24  C   UNL     1       5.357   0.616   0.000  0.00  0.00    +0.000 C 
ATOM     25  C   UNL     1       4.643   0.204   0.000  0.00  0.00    +0.000 C 
ENDBRANCH  23  25
ENDBRANCH  22  23
ENDBRANCH  20  22
BRANCH  20  26
ATOM     26  C   UNL     1       2.500   1.441   0.000  0.00  0.00    +0.000 C 
BRANCH  26  32
ATOM     27  C   UNL     1       3.212   2.683   0.000  0.00  0.00    +0.000 A 
ATOM     28  C   UNL     1       3.933   3.091   0.000  0.00  0.00    +0.000 A 
ATOM     29  C   UNL     1       4.650   2.674   0.000  0.00  0.00    +0.000 A 
ATOM     30  C   UNL     1       4.645   1.849   0.000  0.00  0.00    +0.000 A 
ATOM     31  C   UNL     1       3.931   1.437   0.000  0.00  0.00    +0.000 A 
ATOM     32  C   UNL     1       3.214   1.853   0.000  0.00  0.00    +0.000 A 
ATOM     33  F   UNL     1       5.366   3.083   0.000  0.00  0.00    +0.000 F 
ENDBRANCH  26  32
ENDBRANCH  20  26
ENDBRANCH   1  20
TORSDOF 14
