REMARK  Name = 
REMARK  22 active torsions:
REMARK  status: ('A' for Active; 'I' for Inactive)
REMARK    1  A    between atoms: S_1  and  C_49
REMARK    2  A    between atoms: S_1  and  C_50
REMARK    3  A    between atoms: P_2  and  O_6
REMARK    4  A    between atoms: P_3  and  O_8
REMARK    5  A    between atoms: P_3  and  O_11
REMARK    6  A    between atoms: P_4  and  O_11
REMARK    7  A    between atoms: P_4  and  O_12
REMARK    8  A    between atoms: O_6  and  C_29
REMARK    9  A    between atoms: O_8  and  C_33
REMARK   10  A    between atoms: O_12  and  C_39
REMARK   11  A    between atoms: N_22  and  C_32
REMARK   12  A    between atoms: N_26  and  C_40
REMARK   13  A    between atoms: N_27  and  C_45
REMARK   14  A    between atoms: N_28  and  C_48
REMARK   15  A    between atoms: C_31  and  C_33
REMARK   16  A    between atoms: C_37  and  C_38
REMARK   17  A    between atoms: C_37  and  C_39
REMARK   18  A    between atoms: C_38  and  C_44
REMARK   19  A    between atoms: C_45  and  C_46
REMARK   20  A    between atoms: C_46  and  C_47
REMARK   21  A    between atoms: C_48  and  C_49
REMARK   22  A    between atoms: C_50  and  C_51
REMARK                            x       y       z     vdW  Elec       q    Type
REMARK                         _______ _______ _______ _____ _____    ______ ____
ROOT
ATOM      1  P   UNL     1      -2.972   1.534   0.000  0.00  0.00    +0.000 P 
ATOM      2  O   UNL     1      -2.635   2.287   0.000  0.00  0.00    +0.000 OA
ATOM      3  O   UNL     1      -3.309   0.780   0.000  0.00  0.00    +0.000 OA
ENDROOT
BRANCH   1   4
ATOM      4  O   UNL     1      -2.219   1.197   0.000  0.00  0.00    +0.000 OA
BRANCH   4   5
ATOM      5  C   UNL     1      -1.551   1.681   0.000  0.00  0.00    +0.000 C 
BRANCH   5   6
ATOM      6  C   UNL     1      -0.798   1.344   0.000  0.00  0.00    +0.000 C 
ATOM      7  C   UNL     1      -0.461   2.097   0.000  0.00  0.00    +0.000 C 
ATOM      8  C   UNL     1      -1.135   0.591   0.000  0.00  0.00    +0.000 C 
BRANCH   6  10
ATOM      9  O   UNL     1       0.040   0.186   0.000  0.00  0.00    +0.000 OA
ATOM     10  C   UNL     1      -0.044   1.007   0.000  0.00  0.00    +0.000 C 
BRANCH  10  13
ATOM     11  O   UNL     1       0.539   2.311   0.000  0.00  0.00    +0.000 OA
ATOM     12  N   UNL     1       1.377   1.154   0.000  0.00  0.00    +0.000 N 
ATOM     13  C   UNL     1       0.624   1.490   0.000  0.00  0.00    +0.000 C 
ATOM     14  H   UNL     1       1.429   0.645   0.000  0.00  0.00    +0.000 HD
BRANCH  12  15
ATOM     15  C   UNL     1       2.045   1.637   0.000  0.00  0.00    +0.000 C 
BRANCH  15  16
ATOM     16  C   UNL     1       2.798   1.301   0.000  0.00  0.00    +0.000 C 
BRANCH  16  19
ATOM     17  O   UNL     1       3.382   2.605   0.000  0.00  0.00    +0.000 OA
ATOM     18  N   UNL     1       4.220   1.448   0.000  0.00  0.00    +0.000 N 
ATOM     19  C   UNL     1       3.466   1.784   0.000  0.00  0.00    +0.000 C 
ATOM     20  H   UNL     1       4.272   0.939   0.000  0.00  0.00    +0.000 HD
BRANCH  18  21
ATOM     21  C   UNL     1       4.888   1.931   0.000  0.00  0.00    +0.000 C 
BRANCH  21  22
ATOM     22  C   UNL     1       5.641   1.594   0.000  0.00  0.00    +0.000 C 
BRANCH  22  23
ATOM     23  S   UNL     1       6.309   2.078   0.000  0.00  0.00    +0.000 S 
BRANCH  23  24
ATOM     24  C   UNL     1       7.062   1.741   0.000  0.00  0.00    +0.000 C 
BRANCH  24  26
ATOM     25  O   UNL     1       9.736   3.676   0.000  0.00  0.00    +0.000 OA
ATOM     26  C   UNL     1       7.731   2.225   0.000  0.00  0.00    +0.000 A 
ATOM     27  C   UNL     1       8.484   1.888   0.000  0.00  0.00    +0.000 A 
ATOM     28  C   UNL     1       7.646   3.046   0.000  0.00  0.00    +0.000 A 
ATOM     29  C   UNL     1       9.152   2.372   0.000  0.00  0.00    +0.000 A 
ATOM     30  C   UNL     1       8.314   3.530   0.000  0.00  0.00    +0.000 A 
ATOM     31  C   UNL     1       9.067   3.193   0.000  0.00  0.00    +0.000 A 
ENDBRANCH  24  26
ENDBRANCH  23  24
ENDBRANCH  22  23
ENDBRANCH  21  22
ENDBRANCH  18  21
ENDBRANCH  16  19
ENDBRANCH  15  16
ENDBRANCH  12  15
ENDBRANCH  10  13
ENDBRANCH   6  10
ENDBRANCH   5   6
ENDBRANCH   4   5
ENDBRANCH   1   4
BRANCH   1  32
ATOM     32  O   UNL     1      -3.725   1.870   0.000  0.00  0.00    +0.000 OA
BRANCH  32  33
ATOM     33  P   UNL     1      -4.393   1.387   0.000  0.00  0.00    +0.000 P 
ATOM     34  O   UNL     1      -3.910   0.718   0.000  0.00  0.00    +0.000 OA
ATOM     35  O   UNL     1      -4.877   2.055   0.000  0.00  0.00    +0.000 OA
BRANCH  33  36
ATOM     36  O   UNL     1      -5.062   0.903   0.000  0.00  0.00    +0.000 OA
BRANCH  36  37
ATOM     37  C   UNL     1      -5.815   1.240   0.000  0.00  0.00    +0.000 C 
BRANCH  37  42
ATOM     38  O   UNL     1      -6.485  -0.069   0.000  0.00  0.00    +0.000 OA
ATOM     39  O   UNL     1      -8.579   0.347   0.000  0.00  0.00    +0.000 OA
ATOM     40  C   UNL     1      -7.267   1.012   0.000  0.00  0.00    +0.000 C 
ATOM     41  C   UNL     1      -7.753   0.346   0.000  0.00  0.00    +0.000 C 
ATOM     42  C   UNL     1      -6.483   0.756   0.000  0.00  0.00    +0.000 C 
ATOM     43  C   UNL     1      -7.270  -0.323   0.000  0.00  0.00    +0.000 C 
BRANCH  43  44
ATOM     44  N   UNL     1      -7.526  -1.107   0.000  0.00  0.00    +0.000 N 
ATOM     45  N   UNL     1      -7.526  -2.435   0.000  0.00  0.00    +0.000 NA
ATOM     46  N   UNL     1      -9.021  -0.946   0.000  0.00  0.00    +0.000 NA
ATOM     47  N   UNL     1      -9.736  -2.183   0.000  0.00  0.00    +0.000 NA
ATOM     48  C   UNL     1      -8.307  -1.358   0.000  0.00  0.00    +0.000 A 
ATOM     49  C   UNL     1      -7.045  -1.771   0.000  0.00  0.00    +0.000 A 
ATOM     50  C   UNL     1      -8.307  -2.183   0.000  0.00  0.00    +0.000 A 
ATOM     51  C   UNL     1      -9.021  -2.596   0.000  0.00  0.00    +0.000 A 
ATOM     52  C   UNL     1      -9.736  -1.358   0.000  0.00  0.00    +0.000 A 
BRANCH  51  53
ATOM     53  N   UNL     1      -9.021  -3.421   0.000  0.00  0.00    +0.000 N 
ATOM     54  H   UNL     1      -9.464  -3.676   0.000  0.00  0.00    +0.000 HD
ATOM     55  H   UNL     1      -8.578  -3.676   0.000  0.00  0.00    +0.000 HD
ENDBRANCH  51  53
ENDBRANCH  43  44
BRANCH  40  56
ATOM     56  O   UNL     1      -7.521   1.797   0.000  0.00  0.00    +0.000 OA
BRANCH  56  57
ATOM     57  P   UNL     1      -6.968   2.409   0.000  0.00  0.00    +0.000 P 
ATOM     58  O   UNL     1      -6.415   3.022   0.000  0.00  0.00    +0.000 OA
ATOM     59  O   UNL     1      -7.580   2.963   0.000  0.00  0.00    +0.000 OA
ATOM     60  O   UNL     1      -6.356   1.856   0.000  0.00  0.00    +0.000 OA
ENDBRANCH  56  57
ENDBRANCH  40  56
ENDBRANCH  37  42
ENDBRANCH  36  37
ENDBRANCH  33  36
ENDBRANCH  32  33
ENDBRANCH   1  32
TORSDOF 22
