REMARK  Name = 
REMARK  2 active torsions:
REMARK  status: ('A' for Active; 'I' for Inactive)
REMARK    1  A    between atoms: C_11  and  C_25
REMARK    2  A    between atoms: C_25  and  C_29
REMARK                            x       y       z     vdW  Elec       q    Type
REMARK                         _______ _______ _______ _____ _____    ______ ____
ROOT
ATOM      1  C   UNL     1      -1.762  -0.746   0.000  0.00  0.00    +0.000 C 
ATOM      2  C   UNL     1      -2.476  -1.159   0.000  0.00  0.00    +0.000 C 
ATOM      3  C   UNL     1      -1.762  -2.396   0.000  0.00  0.00    +0.000 C 
ATOM      4  C   UNL     1      -1.047  -1.984   0.000  0.00  0.00    +0.000 C 
ATOM      5  C   UNL     1      -0.333  -2.396   0.000  0.00  0.00    +0.000 C 
ATOM      6  C   UNL     1       0.382  -1.984   0.000  0.00  0.00    +0.000 C 
ATOM      7  C   UNL     1       0.382   0.491   0.000  0.00  0.00    +0.000 C 
ATOM      8  C   UNL     1       1.881  -1.001   0.000  0.00  0.00    +0.000 C 
ATOM      9  C   UNL     1      -2.476  -1.984   0.000  0.00  0.00    +0.000 C 
ATOM     10  O   UNL     1      -3.191  -2.396   0.000  0.00  0.00    +0.000 OA
ATOM     11  C   UNL     1       1.881   0.334   0.000  0.00  0.00    +0.000 C 
ATOM     12  O   UNL     1       2.595   0.746   0.000  0.00  0.00    +0.000 OA
ATOM     13  C   UNL     1       2.366  -0.334   0.000  0.00  0.00    +0.000 C 
ATOM     14  C   UNL     1       3.191  -0.334   0.000  0.00  0.00    +0.000 C 
ATOM     15  C   UNL     1      -1.047  -1.159   0.000  0.00  0.00    +0.000 C 
ATOM     16  C   UNL     1      -1.047  -0.334   0.000  0.00  0.00    +0.000 C 
ATOM     17  C   UNL     1       1.096   0.079   0.000  0.00  0.00    +0.000 C 
ATOM     18  C   UNL     1       1.096   0.904   0.000  0.00  0.00    +0.000 C 
ATOM     19  C   UNL     1       1.096  -0.746   0.000  0.00  0.00    +0.000 C 
ATOM     20  C   UNL     1      -0.333  -0.746   0.000  0.00  0.00    +0.000 C 
ATOM     21  F   UNL     1      -0.333  -1.571   0.000  0.00  0.00    +0.000 F 
ATOM     22  C   UNL     1      -0.333   0.079   0.000  0.00  0.00    +0.000 C 
ATOM     23  O   UNL     1      -1.047   0.491   0.000  0.00  0.00    +0.000 OA
ATOM     24  C   UNL     1       0.382  -1.159   0.000  0.00  0.00    +0.000 C 
ENDROOT
BRANCH  11  25
ATOM     25  C   UNL     1       1.881   1.159   0.000  0.00  0.00    +0.000 C 
ATOM     26  O   UNL     1       2.595   1.571   0.000  0.00  0.00    +0.000 OA
BRANCH  25  27
ATOM     27  C   UNL     1       1.166   1.571   0.000  0.00  0.00    +0.000 C 
ATOM     28  O   UNL     1       1.166   2.396   0.000  0.00  0.00    +0.000 OA
ENDBRANCH  25  27
ENDBRANCH  11  25
TORSDOF 2
