REMARK  Name = 
REMARK  2 active torsions:
REMARK  status: ('A' for Active; 'I' for Inactive)
REMARK    1  A    between atoms: O_1  and  C_10
REMARK    2  A    between atoms: O_1  and  C_21
REMARK                            x       y       z     vdW  Elec       q    Type
REMARK                         _______ _______ _______ _____ _____    ______ ____
ROOT
ATOM      1  O   UNL     1      -0.703   2.256   0.000  0.00  0.00    +0.000 OA
ATOM      2  N   UNL     1       0.000   1.017   0.000  0.00  0.00    +0.000 N 
ATOM      3  N   UNL     1       0.703   2.256   0.000  0.00  0.00    +0.000 NA
ATOM      4  C   UNL     1      -0.744   0.647   0.000  0.00  0.00    +0.000 A 
ATOM      5  C   UNL     1       0.744   0.647   0.000  0.00  0.00    +0.000 A 
ATOM      6  C   UNL     1      -0.906  -0.180   0.000  0.00  0.00    +0.000 A 
ATOM      7  C   UNL     1       0.906  -0.139   0.000  0.00  0.00    +0.000 A 
ATOM      8  C   UNL     1      -0.411  -0.800   0.000  0.00  0.00    +0.000 C 
ATOM      9  C   UNL     1       0.411  -0.800   0.000  0.00  0.00    +0.000 C 
ATOM     10  C   UNL     1       0.000   1.844   0.000  0.00  0.00    +0.000 C 
ATOM     11  C   UNL     1      -1.364   1.225   0.000  0.00  0.00    +0.000 A 
ATOM     12  C   UNL     1      -1.692  -0.425   0.000  0.00  0.00    +0.000 A 
ATOM     13  C   UNL     1       1.280   1.266   0.000  0.00  0.00    +0.000 A 
ATOM     14  C   UNL     1       1.733  -0.342   0.000  0.00  0.00    +0.000 A 
ATOM     15  C   UNL     1      -2.145   0.934   0.000  0.00  0.00    +0.000 A 
ATOM     16  C   UNL     1      -2.311   0.152   0.000  0.00  0.00    +0.000 A 
ATOM     17  C   UNL     1       2.103   1.017   0.000  0.00  0.00    +0.000 A 
ATOM     18  C   UNL     1       2.311   0.236   0.000  0.00  0.00    +0.000 A 
ENDROOT
BRANCH   8  19
ATOM     19  O   UNL     1      -0.786  -1.539   0.000  0.00  0.00    +0.000 OA
BRANCH  19  21
ATOM     20  O   UNL     1      -2.025  -0.827   0.000  0.00  0.00    +0.000 OA
ATOM     21  C   UNL     1      -1.609  -1.539   0.000  0.00  0.00    +0.000 C 
ATOM     22  C   UNL     1      -2.025  -2.256   0.000  0.00  0.00    +0.000 C 
ENDBRANCH  19  21
ENDBRANCH   8  19
TORSDOF 2
