REMARK  Name = 
REMARK  3 active torsions:
REMARK  status: ('A' for Active; 'I' for Inactive)
REMARK    1  A    between atoms: C_6  and  C_7
REMARK    2  A    between atoms: C_7  and  N_8
REMARK    3  A    between atoms: C_30  and  C_31
REMARK                            x       y       z     vdW  Elec       q    Type
REMARK                         _______ _______ _______ _____ _____    ______ ____
ROOT
ATOM      1  N   UNL     1       4.738   0.919   0.000  0.00  0.00    +0.000 NA
ATOM      2  C   UNL     1       4.851   0.102   0.000  0.00  0.00    +0.000 C 
ATOM      3  C   UNL     1       4.199  -0.405   0.000  0.00  0.00    +0.000 C 
ATOM      4  C   UNL     1       3.435  -0.094   0.000  0.00  0.00    +0.000 C 
ATOM      5  C   UNL     1       3.322   0.724   0.000  0.00  0.00    +0.000 C 
ATOM      6  C   UNL     1       3.974   1.230   0.000  0.00  0.00    +0.000 C 
ATOM      7  O   UNL     1       3.548  -0.911   0.000  0.00  0.00    +0.000 OA
ATOM      8  C   UNL     1       2.896  -1.417   0.000  0.00  0.00    +0.000 C 
ATOM      9  C   UNL     1       2.132  -1.106   0.000  0.00  0.00    +0.000 C 
ATOM     10  F   UNL     1       1.958  -1.913   0.000  0.00  0.00    +0.000 F 
ATOM     11  F   UNL     1       1.308  -1.075   0.000  0.00  0.00    +0.000 F 
ATOM     12  C   UNL     1       2.019  -0.289   0.000  0.00  0.00    +0.000 A 
ATOM     13  C   UNL     1       2.671   0.217   0.000  0.00  0.00    +0.000 A 
ATOM     14  S   UNL     1       2.391   0.993   0.000  0.00  0.00    +0.000 S 
ATOM     15  C   UNL     1       1.566   0.967   0.000  0.00  0.00    +0.000 A 
ATOM     16 CL   UNL     1       1.060   1.618   0.000  0.00  0.00    +0.000 Cl
ATOM     17  C   UNL     1       1.337   0.174   0.000  0.00  0.00    +0.000 A 
ENDROOT
BRANCH   1  18
ATOM     18  C   UNL     1       5.389   1.425   0.000  0.00  0.00    +0.000 C 
BRANCH  18  24
ATOM     19  C   UNL     1       3.807   2.272   0.000  0.00  0.00    +0.000 C 
ATOM     20  C   UNL     1       4.549   2.631   0.000  0.00  0.00    +0.000 A 
ATOM     21  N   UNL     1       4.694   3.443   0.000  0.00  0.00    +0.000 NA
ATOM     22  N   UNL     1       5.512   3.556   0.000  0.00  0.00    +0.000 N 
ATOM     23  C   UNL     1       5.871   2.814   0.000  0.00  0.00    +0.000 A 
ATOM     24  C   UNL     1       5.277   2.242   0.000  0.00  0.00    +0.000 A 
ATOM     25  C   UNL     1       5.901   4.284   0.000  0.00  0.00    +0.000 A 
ATOM     26  N   UNL     1       5.466   4.984   0.000  0.00  0.00    +0.000 NA
ATOM     27  C   UNL     1       5.855   5.712   0.000  0.00  0.00    +0.000 A 
ATOM     28  C   UNL     1       6.679   5.739   0.000  0.00  0.00    +0.000 A 
ATOM     29  C   UNL     1       7.115   5.038   0.000  0.00  0.00    +0.000 A 
ATOM     30  C   UNL     1       6.726   4.310   0.000  0.00  0.00    +0.000 A 
BRANCH  30  31
ATOM     31  C   UNL     1       7.161   3.610   0.000  0.00  0.00    +0.000 C 
ATOM     32  O   UNL     1       6.772   2.882   0.000  0.00  0.00    +0.000 OA
ENDBRANCH  30  31
ENDBRANCH  18  24
ENDBRANCH   1  18
TORSDOF 3
