REMARK  Name = 
REMARK  1 active torsions:
REMARK  status: ('A' for Active; 'I' for Inactive)
REMARK    1  A    between atoms: C_15  and  N_17
REMARK                            x       y       z     vdW  Elec       q    Type
REMARK                         _______ _______ _______ _____ _____    ______ ____
ROOT
ATOM      1  C   UNL     1       0.532   1.123   0.000  0.00  0.00    +0.000 A 
ATOM      2  C   UNL     1       0.352   1.928   0.000  0.00  0.00    +0.000 A 
ATOM      3  C   UNL     1       0.960   2.486   0.000  0.00  0.00    +0.000 A 
ATOM      4  C   UNL     1       1.747   2.238   0.000  0.00  0.00    +0.000 A 
ATOM      5  C   UNL     1       1.926   1.433   0.000  0.00  0.00    +0.000 A 
ATOM      6  C   UNL     1       1.319   0.875   0.000  0.00  0.00    +0.000 A 
ATOM      7  C   UNL     1      -2.713   1.458   0.000  0.00  0.00    +0.000 A 
ATOM      8  C   UNL     1      -2.525   2.262   0.000  0.00  0.00    +0.000 A 
ATOM      9  C   UNL     1      -1.736   2.501   0.000  0.00  0.00    +0.000 A 
ATOM     10  C   UNL     1      -1.134   1.936   0.000  0.00  0.00    +0.000 A 
ATOM     11  C   UNL     1      -1.322   1.133   0.000  0.00  0.00    +0.000 A 
ATOM     12  C   UNL     1      -2.112   0.894   0.000  0.00  0.00    +0.000 A 
ATOM     13  S   UNL     1      -0.389   2.290   0.000  0.00  0.00    +0.000 S 
ATOM     14  C   UNL     1      -0.811   0.485   0.000  0.00  0.00    +0.000 C 
ATOM     15  C   UNL     1       0.014   0.480   0.000  0.00  0.00    +0.000 C 
ATOM     16 CL   UNL     1       2.713   1.185   0.000  0.00  0.00    +0.000 Cl
ENDROOT
BRANCH  15  17
ATOM     17  N   UNL     1       0.368  -0.265   0.000  0.00  0.00    +0.000 NA
ATOM     18  C   UNL     1       1.190  -0.331   0.000  0.00  0.00    +0.000 C 
ATOM     19  C   UNL     1       1.544  -1.076   0.000  0.00  0.00    +0.000 C 
ATOM     20  N   UNL     1       1.075  -1.755   0.000  0.00  0.00    +0.000 NA
ATOM     21  C   UNL     1       0.253  -1.689   0.000  0.00  0.00    +0.000 C 
ATOM     22  C   UNL     1      -0.101  -0.944   0.000  0.00  0.00    +0.000 C 
ATOM     23  C   UNL     1       1.429  -2.501   0.000  0.00  0.00    +0.000 C 
ENDBRANCH  15  17
TORSDOF 1
