REMARK  Name = 
REMARK  20 active torsions:
REMARK  status: ('A' for Active; 'I' for Inactive)
REMARK    1  A    between atoms: C_16  and  C_123
REMARK    2  A    between atoms: C_18  and  O_117
REMARK    3  A    between atoms: C_27  and  O_117
REMARK    4  A    between atoms: C_46  and  O_94
REMARK    5  A    between atoms: C_53  and  C_54
REMARK    6  A    between atoms: C_54  and  C_55
REMARK    7  A    between atoms: C_55  and  C_56
REMARK    8  A    between atoms: C_56  and  C_57
REMARK    9  A    between atoms: C_57  and  C_58
REMARK   10  A    between atoms: C_58  and  C_59
REMARK   11  A    between atoms: C_59  and  C_60
REMARK   12  A    between atoms: C_60  and  C_61
REMARK   13  A    between atoms: C_62  and  N_109
REMARK   14  A    between atoms: C_63  and  O_68
REMARK   15  A    between atoms: C_65  and  C_71
REMARK   16  A    between atoms: O_68  and  C_90
REMARK   17  A    between atoms: C_80  and  N_91
REMARK   18  A    between atoms: C_81  and  O_94
REMARK   19  A    between atoms: C_83  and  C_106
REMARK   20  A    between atoms: CA_112  and  C_113
REMARK                            x       y       z     vdW  Elec       q    Type
REMARK                         _______ _______ _______ _____ _____    ______ ____
ROOT
ATOM      1  C   UNL     1       3.199  -4.502   0.000  0.00  0.00    +0.000 A 
ATOM      2  C   UNL     1       3.197  -5.330   0.000  0.00  0.00    +0.000 A 
ATOM      3  C   UNL     1       3.912  -5.742   0.000  0.00  0.00    +0.000 A 
ATOM      4  C   UNL     1       4.628  -5.329   0.000  0.00  0.00    +0.000 A 
ATOM      5  C   UNL     1       4.626  -4.499   0.000  0.00  0.00    +0.000 A 
ATOM      6  C   UNL     1       3.910  -4.090   0.000  0.00  0.00    +0.000 A 
ATOM      7  C   UNL     1       1.776  -2.027   0.000  0.00  0.00    +0.000 A 
ATOM      8  C   UNL     1       1.774  -2.854   0.000  0.00  0.00    +0.000 A 
ATOM      9  C   UNL     1       2.489  -3.267   0.000  0.00  0.00    +0.000 A 
ATOM     10  C   UNL     1       3.206  -2.854   0.000  0.00  0.00    +0.000 A 
ATOM     11  C   UNL     1       3.203  -2.023   0.000  0.00  0.00    +0.000 A 
ATOM     12  C   UNL     1       2.487  -1.614   0.000  0.00  0.00    +0.000 A 
ATOM     13  C   UNL     1      -2.499  -2.039   0.000  0.00  0.00    +0.000 A 
ATOM     14  C   UNL     1      -1.786  -3.280   0.000  0.00  0.00    +0.000 A 
ATOM     15  C   UNL     1      -1.069  -2.866   0.000  0.00  0.00    +0.000 A 
ATOM     16  C   UNL     1      -1.072  -2.036   0.000  0.00  0.00    +0.000 A 
ATOM     17  C   UNL     1      -1.788  -1.627   0.000  0.00  0.00    +0.000 A 
ATOM     18  C   UNL     1      -4.639  -3.281   0.000  0.00  0.00    +0.000 A 
ATOM     19  C   UNL     1      -4.640  -4.109   0.000  0.00  0.00    +0.000 A 
ATOM     20  C   UNL     1      -3.925  -4.522   0.000  0.00  0.00    +0.000 A 
ATOM     21  C   UNL     1      -3.209  -4.108   0.000  0.00  0.00    +0.000 A 
ATOM     22  C   UNL     1      -3.212  -3.278   0.000  0.00  0.00    +0.000 A 
ATOM     23  C   UNL     1      -3.927  -2.869   0.000  0.00  0.00    +0.000 A 
ATOM     24  O   UNL     1      -5.344  -0.398   0.000  0.00  0.00    +0.000 OA
ATOM     25  C   UNL     1      -4.631  -0.806   0.000  0.00  0.00    +0.000 C 
ATOM     26  CA  UNL     1      -3.919  -0.394   0.000  0.00  0.00    +0.000 C 
ATOM     27  N   UNL     1      -3.206  -0.802   0.000  0.00  0.00    +0.000 NA
ATOM     28  C   UNL     1      -2.494  -0.390   0.000  0.00  0.00    +0.000 C 
ATOM     29  CA  UNL     1      -1.781  -0.798   0.000  0.00  0.00    +0.000 C 
ATOM     30  N   UNL     1      -1.069  -0.385   0.000  0.00  0.00    +0.000 NA
ATOM     31  C   UNL     1      -0.356  -0.794   0.000  0.00  0.00    +0.000 C 
ATOM     32  CA  UNL     1       0.356  -0.381   0.000  0.00  0.00    +0.000 C 
ATOM     33  N   UNL     1       1.069  -0.789   0.000  0.00  0.00    +0.000 NA
ATOM     34  C   UNL     1       1.781  -0.377   0.000  0.00  0.00    +0.000 C 
ATOM     35  CA  UNL     1       2.494  -0.785   0.000  0.00  0.00    +0.000 C 
ATOM     36  N   UNL     1       3.206  -0.373   0.000  0.00  0.00    +0.000 NA
ATOM     37  C   UNL     1       3.919  -0.781   0.000  0.00  0.00    +0.000 C 
ATOM     38  CA  UNL     1       4.631  -0.369   0.000  0.00  0.00    +0.000 C 
ATOM     39  N   UNL     1       6.056  -1.281   0.000  0.00  0.00    +0.000 NA
ATOM     40  C   UNL     1      -3.902   1.344   0.000  0.00  0.00    +0.000 C 
ATOM     41  O   UNL     1      -2.498   0.435   0.000  0.00  0.00    +0.000 OA
ATOM     42  O   UNL     1      -0.360  -1.619   0.000  0.00  0.00    +0.000 OA
ATOM     43  C   UNL     1       0.390   1.348   0.000  0.00  0.00    +0.000 A 
ATOM     44  O   UNL     1       1.777   0.448   0.000  0.00  0.00    +0.000 OA
ATOM     45  O   UNL     1       3.914  -1.606   0.000  0.00  0.00    +0.000 OA
ATOM     46  C   UNL     1       2.534   2.593   0.000  0.00  0.00    +0.000 A 
ATOM     47  C   UNL     1       2.533   1.765   0.000  0.00  0.00    +0.000 A 
ATOM     48  C   UNL     1       3.248   1.353   0.000  0.00  0.00    +0.000 A 
ATOM     49  C   UNL     1       3.964   1.766   0.000  0.00  0.00    +0.000 A 
ATOM     50  C   UNL     1       3.962   2.596   0.000  0.00  0.00    +0.000 A 
ATOM     51  C   UNL     1       3.246   3.006   0.000  0.00  0.00    +0.000 A 
ATOM     52  C   UNL     1       1.107   2.589   0.000  0.00  0.00    +0.000 A 
ATOM     53  C   UNL     1       1.106   1.762   0.000  0.00  0.00    +0.000 A 
ATOM     54  O   UNL     1       1.819   3.002   0.000  0.00  0.00    +0.000 OA
ATOM     55  C   UNL     1      -0.320   2.585   0.000  0.00  0.00    +0.000 A 
ATOM     56  C   UNL     1      -0.321   1.758   0.000  0.00  0.00    +0.000 A 
ATOM     57  C   UNL     1       0.392   2.998   0.000  0.00  0.00    +0.000 A 
ATOM     58  C   UNL     1      -3.182   1.754   0.000  0.00  0.00    +0.000 A 
ATOM     59  C   UNL     1      -3.185   2.585   0.000  0.00  0.00    +0.000 A 
ATOM     60  C   UNL     1      -2.465   1.345   0.000  0.00  0.00    +0.000 A 
ATOM     61  C   UNL     1      -1.748   1.758   0.000  0.00  0.00    +0.000 A 
ATOM     62  C   UNL     1      -1.751   2.589   0.000  0.00  0.00    +0.000 A 
ATOM     63  C   UNL     1      -2.467   2.998   0.000  0.00  0.00    +0.000 A 
ATOM     64 CL   UNL     1      -1.036   1.345   0.000  0.00  0.00    +0.000 Cl
ATOM     65  O   UNL     1      -1.038   2.998   0.000  0.00  0.00    +0.000 OA
ATOM     66 CL   UNL     1       3.240   3.831   0.000  0.00  0.00    +0.000 Cl
ATOM     67  N   UNL     1      -4.635  -1.631   0.000  0.00  0.00    +0.000 NA
ATOM     68  CA  UNL     1      -3.923  -2.044   0.000  0.00  0.00    +0.000 C 
ATOM     69  O   UNL     1      -5.360  -4.514   0.000  0.00  0.00    +0.000 OA
ATOM     70  C   UNL     1      -2.502  -2.860   0.000  0.00  0.00    +0.000 A 
ATOM     71  O   UNL     1      -1.794  -4.102   0.000  0.00  0.00    +0.000 OA
ATOM     72  O   UNL     1       3.914  -3.264   0.000  0.00  0.00    +0.000 OA
ATOM     73  O   UNL     1       1.056  -3.260   0.000  0.00  0.00    +0.000 OA
ATOM     74  O   UNL     1       2.481  -4.090   0.000  0.00  0.00    +0.000 OA
ATOM     75  CA  UNL     1       5.340  -5.739   0.000  0.00  0.00    +0.000 C 
ATOM     76  C   UNL     1       6.052  -5.323   0.000  0.00  0.00    +0.000 C 
ATOM     77  O   UNL     1       6.765  -5.735   0.000  0.00  0.00    +0.000 OA
ATOM     78  N   UNL     1       5.335  -6.564   0.000  0.00  0.00    +0.000 NA
ATOM     79  C   UNL     1       4.673   1.356   0.000  0.00  0.00    +0.000 C 
ENDROOT
BRANCH  68  80
ATOM     80  C   UNL     1      -5.652  -2.998   0.000  0.00  0.00    +0.000 C 
ATOM     81  O   UNL     1      -6.431  -2.498   0.000  0.00  0.00    +0.000 OA
ATOM     82  OXT UNL     1      -5.656  -3.823   0.000  0.00  0.00    +0.000 OA
ENDBRANCH  68  80
BRANCH  57  83
ATOM     83  O   UNL     1       0.402   4.931   0.000  0.00  0.00    +0.000 OA
BRANCH  83  85
ATOM     84  C   UNL     1       1.119   6.165   0.000  0.00  0.00    +0.000 C 
ATOM     85  C   UNL     1       1.119   5.340   0.000  0.00  0.00    +0.000 C 
ATOM     86  O   UNL     1       1.831   4.931   0.000  0.00  0.00    +0.000 OA
ATOM     87  C   UNL     1       2.543   5.340   0.000  0.00  0.00    +0.000 C 
ATOM     88  C   UNL     1       2.543   6.165   0.000  0.00  0.00    +0.000 C 
ATOM     89  C   UNL     1       1.831   6.581   0.000  0.00  0.00    +0.000 C 
ATOM     90  O   UNL     1       1.823   7.406   0.000  0.00  0.00    +0.000 OA
ATOM     91  O   UNL     1       3.252   6.581   0.000  0.00  0.00    +0.000 OA
BRANCH  84  93
ATOM     92  C   UNL     1       0.398   7.402   0.000  0.00  0.00    +0.000 C 
ATOM     93  N   UNL     1       0.402   6.577   0.000  0.00  0.00    +0.000 NA
ATOM     94  O   UNL     1       1.110   7.819   0.000  0.00  0.00    +0.000 OA
BRANCH  92  95
ATOM     95  C   UNL     1      -0.315   7.810   0.000  0.00  0.00    +0.000 C 
BRANCH  95  96
ATOM     96  C   UNL     1      -1.027   7.398   0.000  0.00  0.00    +0.000 C 
BRANCH  96  97
ATOM     97  C   UNL     1      -1.740   7.806   0.000  0.00  0.00    +0.000 C 
BRANCH  97  98
ATOM     98  C   UNL     1      -2.452   7.394   0.000  0.00  0.00    +0.000 C 
BRANCH  98  99
ATOM     99  C   UNL     1      -3.165   7.802   0.000  0.00  0.00    +0.000 C 
BRANCH  99 100
ATOM    100  C   UNL     1      -3.877   7.390   0.000  0.00  0.00    +0.000 C 
BRANCH 100 101
ATOM    101  C   UNL     1      -4.590   7.798   0.000  0.00  0.00    +0.000 C 
BRANCH 101 103
ATOM    102  C   UNL     1      -6.015   7.794   0.000  0.00  0.00    +0.000 C 
ATOM    103  C   UNL     1      -5.302   7.385   0.000  0.00  0.00    +0.000 C 
ENDBRANCH 101 103
ENDBRANCH 100 101
ENDBRANCH  99 100
ENDBRANCH  98  99
ENDBRANCH  97  98
ENDBRANCH  96  97
ENDBRANCH  95  96
ENDBRANCH  92  95
ENDBRANCH  84  93
BRANCH  87 104
ATOM    104  C   UNL     1       3.252   4.927   0.000  0.00  0.00    +0.000 C 
ATOM    105  O   UNL     1       3.965   5.344   0.000  0.00  0.00    +0.000 OA
ENDBRANCH  87 104
ENDBRANCH  83  85
ENDBRANCH  57  83
BRANCH  40 106
ATOM    106  O   UNL     1      -4.619   1.683   0.000  0.00  0.00    +0.000 OA
BRANCH 106 109
ATOM    107  C   UNL     1      -5.333   3.815   0.000  0.00  0.00    +0.000 C 
ATOM    108  C   UNL     1      -5.333   2.990   0.000  0.00  0.00    +0.000 C 
ATOM    109  C   UNL     1      -4.621   2.582   0.000  0.00  0.00    +0.000 C 
ATOM    110  O   UNL     1      -3.909   2.990   0.000  0.00  0.00    +0.000 OA
ATOM    111  C   UNL     1      -3.909   3.815   0.000  0.00  0.00    +0.000 C 
ATOM    112  C   UNL     1      -4.621   4.231   0.000  0.00  0.00    +0.000 C 
ATOM    113  O   UNL     1      -6.052   4.231   0.000  0.00  0.00    +0.000 OA
ATOM    114  O   UNL     1      -4.627   5.060   0.000  0.00  0.00    +0.000 OA
BRANCH 108 115
ATOM    115  N   UNL     1      -6.045   2.577   0.000  0.00  0.00    +0.000 NA
ATOM    116  C   UNL     1      -6.046   1.750   0.000  0.00  0.00    +0.000 C 
ATOM    117  O   UNL     1      -5.332   1.337   0.000  0.00  0.00    +0.000 OA
ATOM    118  C   UNL     1      -6.765   1.344   0.000  0.00  0.00    +0.000 C 
ENDBRANCH 108 115
BRANCH 111 119
ATOM    119  C   UNL     1      -3.198   4.235   0.000  0.00  0.00    +0.000 C 
ATOM    120  O   UNL     1      -2.485   3.823   0.000  0.00  0.00    +0.000 OA
ENDBRANCH 111 119
ENDBRANCH 106 109
ENDBRANCH  40 106
BRANCH  21 121
ATOM    121  O   UNL     1      -2.498  -4.519   0.000  0.00  0.00    +0.000 OA
BRANCH 121 127
ATOM    122  C   UNL     1      -3.215  -5.760   0.000  0.00  0.00    +0.000 C 
ATOM    123  C   UNL     1      -3.215  -6.585   0.000  0.00  0.00    +0.000 C 
ATOM    124  C   UNL     1      -2.503  -6.994   0.000  0.00  0.00    +0.000 C 
ATOM    125  C   UNL     1      -1.791  -6.585   0.000  0.00  0.00    +0.000 C 
ATOM    126  O   UNL     1      -1.791  -5.760   0.000  0.00  0.00    +0.000 OA
ATOM    127  C   UNL     1      -2.503  -5.344   0.000  0.00  0.00    +0.000 C 
ATOM    128  O   UNL     1      -3.931  -5.348   0.000  0.00  0.00    +0.000 OA
ATOM    129  O   UNL     1      -3.931  -6.994   0.000  0.00  0.00    +0.000 OA
ATOM    130  O   UNL     1      -2.510  -7.819   0.000  0.00  0.00    +0.000 OA
BRANCH 125 131
ATOM    131  C   UNL     1      -1.081  -6.998   0.000  0.00  0.00    +0.000 C 
ATOM    132  O   UNL     1      -0.369  -6.581   0.000  0.00  0.00    +0.000 OA
ENDBRANCH 125 131
ENDBRANCH 121 127
ENDBRANCH  21 121
TORSDOF 20
