REMARK  Name = 
REMARK  3 active torsions:
REMARK  status: ('A' for Active; 'I' for Inactive)
REMARK    1  A    between atoms: C_3  and  C_12
REMARK    2  A    between atoms: C_14  and  C_17
REMARK    3  A    between atoms: C_19  and  N_25
REMARK                            x       y       z     vdW  Elec       q    Type
REMARK                         _______ _______ _______ _____ _____    ______ ____
ROOT
ATOM      1  C   UNL     1       0.715  -1.238   0.000  0.00  0.00    +0.000 A 
ATOM      2  N   UNL     1       1.382  -1.722   0.000  0.00  0.00    +0.000 NA
ATOM      3  C   UNL     1       1.127  -2.507   0.000  0.00  0.00    +0.000 A 
ATOM      4  O   UNL     1       0.302  -2.507   0.000  0.00  0.00    +0.000 OA
ATOM      5  N   UNL     1       0.047  -1.722   0.000  0.00  0.00    +0.000 NA
ENDROOT
BRANCH   1   8
ATOM      6  C   UNL     1       2.143  -0.412   0.000  0.00  0.00    +0.000 C 
ATOM      7  C   UNL     1       1.429   0.000   0.000  0.00  0.00    +0.000 A 
ATOM      8  C   UNL     1       0.715  -0.412   0.000  0.00  0.00    +0.000 A 
ATOM      9  C   UNL     1       0.000   0.000   0.000  0.00  0.00    +0.000 A 
ATOM     10  N   UNL     1       0.000   0.825   0.000  0.00  0.00    +0.000 N 
ATOM     11  C   UNL     1       0.715   1.238   0.000  0.00  0.00    +0.000 A 
ATOM     12  C   UNL     1       1.429   0.825   0.000  0.00  0.00    +0.000 A 
ATOM     13 CL   UNL     1       2.143   1.238   0.000  0.00  0.00    +0.000 Cl
ATOM     14  C   UNL     1       0.715   2.062   0.000  0.00  0.00    +0.000 C 
ATOM     15  O   UNL     1      -0.715   1.238   0.000  0.00  0.00    +0.000 OA
ATOM     16 CL   UNL     1      -0.715  -0.412   0.000  0.00  0.00    +0.000 Cl
ENDBRANCH   1   8
BRANCH   3  17
ATOM     17  C   UNL     1       1.612  -3.175   0.000  0.00  0.00    +0.000 A 
ATOM     18  C   UNL     1       2.432  -3.088   0.000  0.00  0.00    +0.000 A 
ATOM     19  C   UNL     1       2.917  -3.756   0.000  0.00  0.00    +0.000 A 
ATOM     20  C   UNL     1       2.582  -4.509   0.000  0.00  0.00    +0.000 A 
ATOM     21  C   UNL     1       1.761  -4.596   0.000  0.00  0.00    +0.000 A 
ATOM     22  C   UNL     1       1.276  -3.928   0.000  0.00  0.00    +0.000 A 
ATOM     23  O   UNL     1       1.426  -5.349   0.000  0.00  0.00    +0.000 OA
ATOM     24  O   UNL     1       3.067  -5.177   0.000  0.00  0.00    +0.000 OA
BRANCH  19  25
ATOM     25  N   UNL     1       3.738  -3.670   0.000  0.00  0.00    +0.000 N 
ATOM     26  O   UNL     1       4.223  -4.337   0.000  0.00  0.00    +0.000 OA
ATOM     27  O   UNL     1       4.073  -2.916   0.000  0.00  0.00    +0.000 OA
ENDBRANCH  19  25
ENDBRANCH   3  17
TORSDOF 3
