REMARK  Name = 
REMARK  7 active torsions:
REMARK  status: ('A' for Active; 'I' for Inactive)
REMARK    1  A    between atoms: O_2  and  C_3
REMARK    2  A    between atoms: C_6  and  C_15
REMARK    3  A    between atoms: C_8  and  O_9
REMARK    4  A    between atoms: O_9  and  C_10
REMARK    5  A    between atoms: C_15  and  C_16
REMARK    6  A    between atoms: C_15  and  N_20
REMARK    7  A    between atoms: C_16  and  C_17
REMARK                            x       y       z     vdW  Elec       q    Type
REMARK                         _______ _______ _______ _____ _____    ______ ____
ROOT
ATOM      1  C   UNL     1      -1.453  -0.698   0.000  0.00  0.00    +0.000 C 
ENDROOT
BRANCH   1   2
ATOM      2  N   UNL     1      -0.628  -0.698   0.000  0.00  0.00    +0.000 N 
ATOM      3  C   UNL     1      -0.143  -1.365   0.000  0.00  0.00    +0.000 C 
ATOM      4  O   UNL     1      -0.398  -2.150   0.000  0.00  0.00    +0.000 OA
ATOM      5  C   UNL     1       0.641  -1.110   0.000  0.00  0.00    +0.000 A 
ATOM      6  C   UNL     1       0.641  -0.285   0.000  0.00  0.00    +0.000 A 
ATOM      7  C   UNL     1       1.356   0.127   0.000  0.00  0.00    +0.000 A 
ATOM      8  C   UNL     1       2.070  -0.285   0.000  0.00  0.00    +0.000 A 
ATOM      9  C   UNL     1       2.070  -1.110   0.000  0.00  0.00    +0.000 A 
ATOM     10  C   UNL     1       1.356  -1.523   0.000  0.00  0.00    +0.000 A 
ATOM     11  C   UNL     1      -0.143  -0.030   0.000  0.00  0.00    +0.000 C 
ATOM     12  O   UNL     1      -0.398   0.754   0.000  0.00  0.00    +0.000 OA
ENDBRANCH   1   2
BRANCH   1  16
ATOM     13  C   UNL     1      -2.691  -2.841   0.000  0.00  0.00    +0.000 A 
ATOM     14  C   UNL     1      -3.103  -2.127   0.000  0.00  0.00    +0.000 A 
ATOM     15  C   UNL     1      -2.691  -1.412   0.000  0.00  0.00    +0.000 A 
ATOM     16  C   UNL     1      -1.866  -1.412   0.000  0.00  0.00    +0.000 A 
ATOM     17  C   UNL     1      -1.453  -2.127   0.000  0.00  0.00    +0.000 A 
ATOM     18  C   UNL     1      -1.866  -2.841   0.000  0.00  0.00    +0.000 A 
BRANCH  13  20
ATOM     19  C   UNL     1      -3.928  -3.556   0.000  0.00  0.00    +0.000 C 
ATOM     20  O   UNL     1      -3.103  -3.556   0.000  0.00  0.00    +0.000 OA
ENDBRANCH  13  20
BRANCH  18  21
ATOM     21  O   UNL     1      -1.453  -3.556   0.000  0.00  0.00    +0.000 OA
BRANCH  21  22
ATOM     22  C   UNL     1      -1.866  -4.270   0.000  0.00  0.00    +0.000 C 
ATOM     23  C   UNL     1      -1.530  -5.024   0.000  0.00  0.00    +0.000 C 
ATOM     24  C   UNL     1      -2.143  -5.576   0.000  0.00  0.00    +0.000 C 
ATOM     25  C   UNL     1      -2.858  -5.163   0.000  0.00  0.00    +0.000 C 
ATOM     26  C   UNL     1      -2.686  -4.356   0.000  0.00  0.00    +0.000 C 
ENDBRANCH  21  22
ENDBRANCH  18  21
ENDBRANCH   1  16
BRANCH   1  27
ATOM     27  C   UNL     1      -1.866   0.017   0.000  0.00  0.00    +0.000 C 
BRANCH  27  28
ATOM     28  C   UNL     1      -2.691   0.017   0.000  0.00  0.00    +0.000 C 
ATOM     29  N   UNL     1      -3.103  -0.698   0.000  0.00  0.00    +0.000 NA
ATOM     30  O   UNL     1      -3.103   0.731   0.000  0.00  0.00    +0.000 OA
ENDBRANCH  27  28
ENDBRANCH   1  27
TORSDOF 7
