REMARK  Name = 
REMARK  6 active torsions:
REMARK  status: ('A' for Active; 'I' for Inactive)
REMARK    1  A    between atoms: C_3  and  C_7
REMARK    2  A    between atoms: C_4  and  C_5
REMARK    3  A    between atoms: C_4  and  C_11
REMARK    4  A    between atoms: C_5  and  C_6
REMARK    5  A    between atoms: C_6  and  C_7
REMARK    6  A    between atoms: C_15  and  O_22
REMARK                            x       y       z     vdW  Elec       q    Type
REMARK                         _______ _______ _______ _____ _____    ______ ____
ROOT
ATOM      1  C   UNL     1       1.710   1.229   0.000  0.00  0.00    +0.000 C 
ATOM      2  C   UNL     1       2.423   0.815   0.000  0.00  0.00    +0.000 C 
ENDROOT
BRANCH   1   3
ATOM      3  C   UNL     1       1.711   2.062   0.000  0.00  0.00    +0.000 C 
ATOM      4  C   UNL     1       2.426   2.473   0.000  0.00  0.00    +0.000 C 
BRANCH   3   5
ATOM      5  C   UNL     1       0.989   2.482   0.000  0.00  0.00    +0.000 C 
BRANCH   5   8
ATOM      6  C   UNL     1      -0.442   0.820   0.000  0.00  0.00    +0.000 A 
ATOM      7  C   UNL     1      -0.444   2.473   0.000  0.00  0.00    +0.000 A 
ATOM      8  C   UNL     1       0.271   2.064   0.000  0.00  0.00    +0.000 A 
ATOM      9  C   UNL     1       0.274   1.231   0.000  0.00  0.00    +0.000 A 
ATOM     10  C   UNL     1      -1.155   1.236   0.000  0.00  0.00    +0.000 A 
ATOM     11  C   UNL     1      -1.155   2.062   0.000  0.00  0.00    +0.000 A 
ATOM     12  O   UNL     1      -1.941   2.317   0.000  0.00  0.00    +0.000 OA
ATOM     13  C   UNL     1      -2.426   1.648   0.000  0.00  0.00    +0.000 C 
ATOM     14  O   UNL     1      -1.940   0.980   0.000  0.00  0.00    +0.000 OA
ENDBRANCH   5   8
ENDBRANCH   3   5
ENDBRANCH   1   3
BRANCH   1  15
ATOM     15  C   UNL     1       0.987   0.816   0.000  0.00  0.00    +0.000 C 
BRANCH  15  16
ATOM     16  C   UNL     1       0.984  -0.009   0.000  0.00  0.00    +0.000 A 
ATOM     17  C   UNL     1       0.268  -0.414   0.000  0.00  0.00    +0.000 A 
ATOM     18  C   UNL     1       0.264  -1.239   0.000  0.00  0.00    +0.000 A 
ATOM     19  C   UNL     1       1.696  -0.418   0.000  0.00  0.00    +0.000 A 
ATOM     20  C   UNL     1       1.695  -1.241   0.000  0.00  0.00    +0.000 A 
ATOM     21  C   UNL     1       0.981  -1.657   0.000  0.00  0.00    +0.000 A 
ATOM     22  O   UNL     1       0.980  -2.482   0.000  0.00  0.00    +0.000 OA
BRANCH  20  23
ATOM     23  O   UNL     1       2.410  -1.652   0.000  0.00  0.00    +0.000 OA
ATOM     24  C   UNL     1       2.412  -2.477   0.000  0.00  0.00    +0.000 C 
ENDBRANCH  20  23
ENDBRANCH  15  16
ENDBRANCH   1  15
TORSDOF 6
