REMARK  Name = 
REMARK  7 active torsions:
REMARK  status: ('A' for Active; 'I' for Inactive)
REMARK    1  A    between atoms: N_5  and  S_7
REMARK    2  A    between atoms: S_7  and  N_10
REMARK    3  A    between atoms: N_10  and  C_11
REMARK    4  A    between atoms: C_16  and  C_17
REMARK    5  A    between atoms: C_17  and  C_19
REMARK    6  A    between atoms: C_25  and  C_28
REMARK    7  A    between atoms: C_31  and  C_34
REMARK                            x       y       z     vdW  Elec       q    Type
REMARK                         _______ _______ _______ _____ _____    ______ ____
ROOT
ATOM      1  C   UNL     1       0.884  -2.150   0.000  0.00  0.00    +0.000 C 
ATOM      2  O   UNL     1       1.436  -2.763   0.000  0.00  0.00    +0.000 OA
ENDROOT
BRANCH   1   3
ATOM      3  C   UNL     1       1.139  -1.365   0.000  0.00  0.00    +0.000 A 
ATOM      4  C   UNL     1       0.654  -0.698   0.000  0.00  0.00    +0.000 A 
ATOM      5  N   UNL     1       1.139  -0.030   0.000  0.00  0.00    +0.000 NA
ATOM      6  C   UNL     1       1.923  -0.285   0.000  0.00  0.00    +0.000 A 
ATOM      7  N   UNL     1       2.638   0.127   0.000  0.00  0.00    +0.000 NA
ATOM      8  C   UNL     1       3.352  -0.285   0.000  0.00  0.00    +0.000 A 
ATOM      9  C   UNL     1       3.352  -1.110   0.000  0.00  0.00    +0.000 A 
ATOM     10  C   UNL     1       2.638  -1.523   0.000  0.00  0.00    +0.000 A 
ATOM     11  C   UNL     1       1.923  -1.110   0.000  0.00  0.00    +0.000 A 
BRANCH   9  12
ATOM     12  C   UNL     1       4.067  -1.523   0.000  0.00  0.00    +0.000 A 
ATOM     13  C   UNL     1       4.781  -1.110   0.000  0.00  0.00    +0.000 A 
ATOM     14  N   UNL     1       5.496  -1.523   0.000  0.00  0.00    +0.000 NA
ATOM     15  C   UNL     1       5.496  -2.348   0.000  0.00  0.00    +0.000 A 
ATOM     16  N   UNL     1       4.781  -2.760   0.000  0.00  0.00    +0.000 NA
ATOM     17  C   UNL     1       4.067  -2.348   0.000  0.00  0.00    +0.000 A 
BRANCH  15  18
ATOM     18  C   UNL     1       6.210  -2.760   0.000  0.00  0.00    +0.000 C 
ATOM     19  C   UNL     1       7.035  -2.760   0.000  0.00  0.00    +0.000 C 
ATOM     20  C   UNL     1       6.623  -3.475   0.000  0.00  0.00    +0.000 C 
ENDBRANCH  15  18
ENDBRANCH   9  12
ENDBRANCH   1   3
BRANCH   1  26
ATOM     21  C   UNL     1      -0.985  -3.278   0.000  0.00  0.00    +0.000 A 
ATOM     22  C   UNL     1      -1.537  -2.665   0.000  0.00  0.00    +0.000 A 
ATOM     23  C   UNL     1      -1.282  -1.880   0.000  0.00  0.00    +0.000 A 
ATOM     24  C   UNL     1      -0.475  -1.708   0.000  0.00  0.00    +0.000 A 
ATOM     25  F   UNL     1      -0.220  -0.924   0.000  0.00  0.00    +0.000 F 
ATOM     26  C   UNL     1       0.077  -2.321   0.000  0.00  0.00    +0.000 A 
ATOM     27  C   UNL     1      -0.178  -3.106   0.000  0.00  0.00    +0.000 A 
ATOM     28  F   UNL     1       0.374  -3.719   0.000  0.00  0.00    +0.000 F 
BRANCH  21  29
ATOM     29  N   UNL     1      -1.240  -4.062   0.000  0.00  0.00    +0.000 NA
BRANCH  29  30
ATOM     30  S   UNL     1      -2.047  -4.234   0.000  0.00  0.00    +0.000 S 
ATOM     31  O   UNL     1      -1.875  -5.041   0.000  0.00  0.00    +0.000 OA
ATOM     32  O   UNL     1      -2.219  -3.427   0.000  0.00  0.00    +0.000 OA
BRANCH  30  37
ATOM     33  F   UNL     1      -4.562  -5.686   0.000  0.00  0.00    +0.000 F 
ATOM     34  C   UNL     1      -4.010  -5.073   0.000  0.00  0.00    +0.000 C 
ATOM     35  C   UNL     1      -4.181  -4.266   0.000  0.00  0.00    +0.000 C 
ATOM     36  C   UNL     1      -3.467  -3.853   0.000  0.00  0.00    +0.000 C 
ATOM     37  N   UNL     1      -2.854  -4.405   0.000  0.00  0.00    +0.000 NA
ATOM     38  C   UNL     1      -3.189  -5.159   0.000  0.00  0.00    +0.000 C 
ENDBRANCH  30  37
ENDBRANCH  29  30
ENDBRANCH  21  29
ENDBRANCH   1  26
TORSDOF 7
