REMARK  Name = 
REMARK  0 active torsions:
REMARK  status: ('A' for Active; 'I' for Inactive)
REMARK                            x       y       z     vdW  Elec       q    Type
REMARK                         _______ _______ _______ _____ _____    ______ ____
ROOT
ATOM      1  C   UNL     1      -1.641   1.791   0.000  0.00  0.00    +0.000 C 
ATOM      2  C   UNL     1      -3.020   1.446   0.000  0.00  0.00    +0.000 C 
ATOM      3  C   UNL     1      -0.454  -0.955   0.000  0.00  0.00    +0.000 C 
ATOM      4  C   UNL     1       0.310  -1.266   0.000  0.00  0.00    +0.000 C 
ATOM      5  C   UNL     1       1.500   0.564   0.000  0.00  0.00    +0.000 C 
ATOM      6  C   UNL     1       2.264   0.253   0.000  0.00  0.00    +0.000 C 
ATOM      7  C   UNL     1      -0.028   1.186   0.000  0.00  0.00    +0.000 C 
ATOM      8  C   UNL     1      -2.073  -0.187   0.000  0.00  0.00    +0.000 C 
ATOM      9  C   UNL     1      -0.792   1.496   0.000  0.00  0.00    +0.000 C 
ATOM     10  C   UNL     1      -2.645   0.408   0.000  0.00  0.00    +0.000 C 
ATOM     11  C   UNL     1       0.849   0.057   0.000  0.00  0.00    +0.000 C 
ATOM     12  C   UNL     1       0.085   0.368   0.000  0.00  0.00    +0.000 C 
ATOM     13  C   UNL     1      -0.567  -0.138   0.000  0.00  0.00    +0.000 C 
ATOM     14  C   UNL     1       0.962  -0.760   0.000  0.00  0.00    +0.000 C 
ATOM     15  C   UNL     1      -1.331   0.173   0.000  0.00  0.00    +0.000 C 
ATOM     16  C   UNL     1       2.377  -0.564   0.000  0.00  0.00    +0.000 C 
ATOM     17  C   UNL     1       1.726  -1.071   0.000  0.00  0.00    +0.000 C 
ATOM     18  C   UNL     1      -1.444   0.990   0.000  0.00  0.00    +0.000 C 
ATOM     19  C   UNL     1      -2.256   1.135   0.000  0.00  0.00    +0.000 C 
ATOM     20  O   UNL     1       3.142  -0.875   0.000  0.00  0.00    +0.000 OA
ATOM     21  O   UNL     1       1.839  -1.888   0.000  0.00  0.00    +0.000 OA
ATOM     22  O   UNL     1      -2.027   1.928   0.000  0.00  0.00    +0.000 OA
ENDROOT
TORSDOF 0
