REMARK  Name = 
REMARK  5 active torsions:
REMARK  status: ('A' for Active; 'I' for Inactive)
REMARK    1  A    between atoms: C_2  and  C_10
REMARK    2  A    between atoms: C_5  and  N_8
REMARK    3  A    between atoms: N_11  and  C_19
REMARK    4  A    between atoms: C_19  and  C_20
REMARK    5  A    between atoms: C_28  and  O_30
REMARK                            x       y       z     vdW  Elec       q    Type
REMARK                         _______ _______ _______ _____ _____    ______ ____
ROOT
ATOM      1  C   UNL     1      -0.930   0.623   0.000  0.00  0.00    +0.000 A 
ATOM      2  N   UNL     1      -1.367  -0.623   0.000  0.00  0.00    +0.000 N 
ATOM      3  C   UNL     1      -2.001  -0.163   0.000  0.00  0.00    +0.000 A 
ATOM      4  C   UNL     1      -1.753   0.623   0.000  0.00  0.00    +0.000 A 
ATOM      5  N   UNL     1      -0.657  -0.155   0.000  0.00  0.00    +0.000 NA
ATOM      6  N   UNL     1      -2.821  -0.294   0.000  0.00  0.00    +0.000 NA
ATOM      7  C   UNL     1      -3.365   0.311   0.000  0.00  0.00    +0.000 A 
ATOM      8  C   UNL     1      -3.117   1.097   0.000  0.00  0.00    +0.000 A 
ATOM      9  C   UNL     1      -2.285   1.267   0.000  0.00  0.00    +0.000 A 
ATOM     10  F   UNL     1      -3.653   1.692   0.000  0.00  0.00    +0.000 F 
ENDROOT
BRANCH   1  12
ATOM     11  N   UNL     1       0.461   0.919   0.000  0.00  0.00    +0.000 NA
ATOM     12  C   UNL     1      -0.326   1.168   0.000  0.00  0.00    +0.000 A 
ATOM     13  N   UNL     1      -0.508   1.961   0.000  0.00  0.00    +0.000 NA
ATOM     14  C   UNL     1       0.109   2.545   0.000  0.00  0.00    +0.000 A 
ATOM     15  C   UNL     1       0.896   2.296   0.000  0.00  0.00    +0.000 A 
ATOM     16  C   UNL     1       1.065   1.464   0.000  0.00  0.00    +0.000 A 
ATOM     17  N   UNL     1       1.852   1.215   0.000  0.00  0.00    +0.000 NA
ATOM     18  N   UNL     1      -0.073   3.338   0.000  0.00  0.00    +0.000 NA
BRANCH  15  19
ATOM     19  N   UNL     1       1.500   2.841   0.000  0.00  0.00    +0.000 NA
ATOM     20  C   UNL     1       2.274   2.589   0.000  0.00  0.00    +0.000 C 
ATOM     21  O   UNL     1       2.443   1.794   0.000  0.00  0.00    +0.000 OA
BRANCH  20  22
ATOM     22  O   UNL     1       2.879   3.134   0.000  0.00  0.00    +0.000 OA
ATOM     23  C   UNL     1       3.653   2.883   0.000  0.00  0.00    +0.000 C 
ENDBRANCH  20  22
ENDBRANCH  15  19
ENDBRANCH   1  12
BRANCH   2  24
ATOM     24  C   UNL     1      -1.185  -1.416   0.000  0.00  0.00    +0.000 C 
BRANCH  24  25
ATOM     25  C   UNL     1      -1.790  -1.961   0.000  0.00  0.00    +0.000 A 
ATOM     26  C   UNL     1      -1.608  -2.754   0.000  0.00  0.00    +0.000 A 
ATOM     27  C   UNL     1      -2.225  -3.338   0.000  0.00  0.00    +0.000 A 
ATOM     28  C   UNL     1      -3.012  -3.089   0.000  0.00  0.00    +0.000 A 
ATOM     29  C   UNL     1      -3.194  -2.296   0.000  0.00  0.00    +0.000 A 
ATOM     30  C   UNL     1      -2.577  -1.712   0.000  0.00  0.00    +0.000 A 
ATOM     31  F   UNL     1      -0.829  -2.989   0.000  0.00  0.00    +0.000 F 
ENDBRANCH  24  25
ENDBRANCH   2  24
TORSDOF 5
