REMARK  Name = 
REMARK  5 active torsions:
REMARK  status: ('A' for Active; 'I' for Inactive)
REMARK    1  A    between atoms: C_4  and  C_7
REMARK    2  A    between atoms: C_7  and  N_8
REMARK    3  A    between atoms: C_15  and  C_20
REMARK    4  A    between atoms: C_23  and  O_26
REMARK    5  A    between atoms: O_26  and  C_27
REMARK                            x       y       z     vdW  Elec       q    Type
REMARK                         _______ _______ _______ _____ _____    ______ ____
ROOT
ATOM      1  N   UNL     1       4.436   1.837   0.000  0.00  0.00    +0.000 N 
ATOM      2  C   UNL     1       4.794   1.094   0.000  0.00  0.00    +0.000 C 
ATOM      3  C   UNL     1       4.436   0.351   0.000  0.00  0.00    +0.000 C 
ATOM      4  O   UNL     1       3.631   0.167   0.000  0.00  0.00    +0.000 OA
ATOM      5  C   UNL     1       2.986   0.682   0.000  0.00  0.00    +0.000 A 
ATOM      6  C   UNL     1       2.272   0.269   0.000  0.00  0.00    +0.000 A 
ATOM      7  C   UNL     1       1.558   0.682   0.000  0.00  0.00    +0.000 A 
ATOM      8  C   UNL     1       1.558   1.507   0.000  0.00  0.00    +0.000 A 
ATOM      9  C   UNL     1       2.272   1.919   0.000  0.00  0.00    +0.000 A 
ATOM     10  C   UNL     1       2.986   1.507   0.000  0.00  0.00    +0.000 A 
ATOM     11  C   UNL     1       3.631   2.021   0.000  0.00  0.00    +0.000 C 
ATOM     12  O   UNL     1       3.448   2.825   0.000  0.00  0.00    +0.000 OA
ENDROOT
BRANCH   8  13
ATOM     13  C   UNL     1       0.843   1.919   0.000  0.00  0.00    +0.000 A 
ATOM     14  C   UNL     1       0.129   1.507   0.000  0.00  0.00    +0.000 A 
ATOM     15  C   UNL     1      -0.586   1.919   0.000  0.00  0.00    +0.000 A 
ATOM     16  C   UNL     1      -0.586   2.744   0.000  0.00  0.00    +0.000 A 
ATOM     17  C   UNL     1       0.129   3.157   0.000  0.00  0.00    +0.000 A 
ATOM     18  C   UNL     1       0.843   2.744   0.000  0.00  0.00    +0.000 A 
BRANCH  16  19
ATOM     19  O   UNL     1      -1.300   3.157   0.000  0.00  0.00    +0.000 OA
BRANCH  19  20
ATOM     20  C   UNL     1      -2.015   2.744   0.000  0.00  0.00    +0.000 C 
ATOM     21  F   UNL     1      -2.729   2.332   0.000  0.00  0.00    +0.000 F 
ATOM     22  F   UNL     1      -2.427   3.459   0.000  0.00  0.00    +0.000 F 
ATOM     23  F   UNL     1      -1.602   2.030   0.000  0.00  0.00    +0.000 F 
ENDBRANCH  19  20
ENDBRANCH  16  19
ENDBRANCH   8  13
BRANCH   1  24
ATOM     24  C   UNL     1       4.950   2.482   0.000  0.00  0.00    +0.000 C 
BRANCH  24  28
ATOM     25  C   UNL     1       7.398   2.114   0.000  0.00  0.00    +0.000 A 
ATOM     26  C   UNL     1       6.883   1.469   0.000  0.00  0.00    +0.000 A 
ATOM     27  N   UNL     1       6.067   1.591   0.000  0.00  0.00    +0.000 NA
ATOM     28  C   UNL     1       5.766   2.360   0.000  0.00  0.00    +0.000 A 
ATOM     29  N   UNL     1       6.280   3.005   0.000  0.00  0.00    +0.000 NA
ATOM     30  C   UNL     1       7.096   2.881   0.000  0.00  0.00    +0.000 A 
ENDBRANCH  24  28
ENDBRANCH   1  24
TORSDOF 5
