REMARK  Name = 
REMARK  8 active torsions:
REMARK  status: ('A' for Active; 'I' for Inactive)
REMARK    1  A    between atoms: C_10  and  C_19
REMARK    2  A    between atoms: C_19  and  C_23
REMARK    3  A    between atoms: C_23  and  O_26
REMARK    4  A    between atoms: O_26  and  C_28
REMARK    5  A    between atoms: C_28  and  C_29
REMARK    6  A    between atoms: C_29  and  C_31
REMARK    7  A    between atoms: C_31  and  C_32
REMARK    8  A    between atoms: C_32  and  C_33
REMARK                            x       y       z     vdW  Elec       q    Type
REMARK                         _______ _______ _______ _____ _____    ______ ____
ROOT
ATOM      1  C   UNL     1       0.140  -2.677   0.000  0.00  0.00    +0.000 C 
ATOM      2  C   UNL     1       0.878  -2.270   0.000  0.00  0.00    +0.000 C 
ATOM      3  C   UNL     1      -0.522  -2.270   0.000  0.00  0.00    +0.000 C 
ATOM      4  C   UNL     1       0.140  -3.487   0.000  0.00  0.00    +0.000 C 
ATOM      5  C   UNL     1       0.878  -1.497   0.000  0.00  0.00    +0.000 C 
ATOM      6  C   UNL     1       2.293  -2.270   0.000  0.00  0.00    +0.000 C 
ATOM      7  C   UNL     1      -1.260  -2.677   0.000  0.00  0.00    +0.000 C 
ATOM      8  C   UNL     1      -0.522  -1.497   0.000  0.00  0.00    +0.000 C 
ATOM      9  C   UNL     1      -0.522  -3.894   0.000  0.00  0.00    +0.000 C 
ATOM     10  C   UNL     1       1.575  -1.090   0.000  0.00  0.00    +0.000 C 
ATOM     11  C   UNL     1       0.140  -1.090   0.000  0.00  0.00    +0.000 C 
ATOM     12  C   UNL     1       0.878  -0.509   0.000  0.00  0.00    +0.000 C 
ATOM     13  C   UNL     1       2.293  -1.497   0.000  0.00  0.00    +0.000 C 
ATOM     14  C   UNL     1      -1.260  -3.487   0.000  0.00  0.00    +0.000 C 
ATOM     15  C   UNL     1      -1.987  -2.270   0.000  0.00  0.00    +0.000 C 
ATOM     16  C   UNL     1      -1.326  -1.863   0.000  0.00  0.00    +0.000 C 
ATOM     17  O   UNL     1      -1.300  -0.973   0.000  0.00  0.00    +0.000 OA
ATOM     18  F   UNL     1      -0.511  -4.667   0.000  0.00  0.00    +0.000 F 
ATOM     19  C   UNL     1       3.422  -1.349   0.000  0.00  0.00    +0.000 C 
ATOM     20  C   UNL     1      -1.987  -3.894   0.000  0.00  0.00    +0.000 C 
ATOM     21  C   UNL     1      -2.705  -2.677   0.000  0.00  0.00    +0.000 C 
ATOM     22  C   UNL     1      -2.705  -3.487   0.000  0.00  0.00    +0.000 C 
ATOM     23  O   UNL     1      -3.422  -3.904   0.000  0.00  0.00    +0.000 OA
ENDROOT
BRANCH  10  24
ATOM     24  C   UNL     1       1.570  -0.265   0.000  0.00  0.00    +0.000 C 
ATOM     25  O   UNL     1       2.282   0.152   0.000  0.00  0.00    +0.000 OA
BRANCH  24  26
ATOM     26  C   UNL     1       0.853   0.143   0.000  0.00  0.00    +0.000 C 
BRANCH  26  27
ATOM     27  O   UNL     1       0.848   0.968   0.000  0.00  0.00    +0.000 OA
BRANCH  27  28
ATOM     28  C   UNL     1       0.131   1.376   0.000  0.00  0.00    +0.000 C 
ATOM     29  O   UNL     1      -0.581   0.959   0.000  0.00  0.00    +0.000 OA
BRANCH  28  30
ATOM     30  C   UNL     1       0.125   2.201   0.000  0.00  0.00    +0.000 C 
BRANCH  30  31
ATOM     31  C   UNL     1      -0.591   2.609   0.000  0.00  0.00    +0.000 C 
BRANCH  31  32
ATOM     32  C   UNL     1      -0.597   3.434   0.000  0.00  0.00    +0.000 C 
BRANCH  32  33
ATOM     33  C   UNL     1      -1.314   3.842   0.000  0.00  0.00    +0.000 C 
ATOM     34  C   UNL     1      -1.319   4.667   0.000  0.00  0.00    +0.000 C 
ENDBRANCH  32  33
ENDBRANCH  31  32
ENDBRANCH  30  31
ENDBRANCH  28  30
ENDBRANCH  27  28
ENDBRANCH  26  27
ENDBRANCH  24  26
ENDBRANCH  10  24
TORSDOF 8
