REMARK  Name = 
REMARK  2 active torsions:
REMARK  status: ('A' for Active; 'I' for Inactive)
REMARK    1  A    between atoms: C_8  and  C_18
REMARK    2  A    between atoms: C_9  and  C_11
REMARK                            x       y       z     vdW  Elec       q    Type
REMARK                         _______ _______ _______ _____ _____    ______ ____
ROOT
ATOM      1  N   UNL     1      -2.143   0.398   0.000  0.00  0.00    +0.000 NA
ATOM      2  C   UNL     1      -2.144  -0.430   0.000  0.00  0.00    +0.000 A 
ATOM      3  N   UNL     1      -1.429  -0.843   0.000  0.00  0.00    +0.000 NA
ATOM      4  C   UNL     1      -1.431   0.810   0.000  0.00  0.00    +0.000 A 
ATOM      5  C   UNL     1      -0.716   0.401   0.000  0.00  0.00    +0.000 A 
ATOM      6  C   UNL     1      -0.715  -0.426   0.000  0.00  0.00    +0.000 A 
ATOM      7  N   UNL     1       0.000  -0.837   0.000  0.00  0.00    +0.000 NA
ATOM      8  C   UNL     1       0.716  -0.422   0.000  0.00  0.00    +0.000 A 
ATOM      9  C   UNL     1       0.711   0.408   0.000  0.00  0.00    +0.000 A 
ATOM     10  N   UNL     1      -0.005   0.815   0.000  0.00  0.00    +0.000 NA
ATOM     11  N   UNL     1      -1.434   1.635   0.000  0.00  0.00    +0.000 NA
ATOM     12  N   UNL     1      -2.859  -0.842   0.000  0.00  0.00    +0.000 NA
ENDROOT
BRANCH   9  13
ATOM     13  C   UNL     1       1.420   0.823   0.000  0.00  0.00    +0.000 A 
ATOM     14  C   UNL     1       2.137   0.413   0.000  0.00  0.00    +0.000 A 
ATOM     15  C   UNL     1       2.849   0.830   0.000  0.00  0.00    +0.000 A 
ATOM     16  C   UNL     1       2.844   1.655   0.000  0.00  0.00    +0.000 A 
ATOM     17  C   UNL     1       2.122   2.063   0.000  0.00  0.00    +0.000 A 
ATOM     18  C   UNL     1       1.413   1.645   0.000  0.00  0.00    +0.000 A 
ATOM     19  O   UNL     1       2.114   2.889   0.000  0.00  0.00    +0.000 OA
ENDBRANCH   9  13
BRANCH   8  20
ATOM     20  C   UNL     1       1.428  -0.828   0.000  0.00  0.00    +0.000 A 
ATOM     21  C   UNL     1       1.430  -1.654   0.000  0.00  0.00    +0.000 A 
ATOM     22  C   UNL     1       2.145  -2.063   0.000  0.00  0.00    +0.000 A 
ATOM     23  C   UNL     1       2.859  -1.648   0.000  0.00  0.00    +0.000 A 
ATOM     24  C   UNL     1       2.853  -0.819   0.000  0.00  0.00    +0.000 A 
ATOM     25  C   UNL     1       2.137  -0.413   0.000  0.00  0.00    +0.000 A 
ATOM     26  O   UNL     1       2.148  -2.889   0.000  0.00  0.00    +0.000 OA
ENDBRANCH   8  20
TORSDOF 2
