REMARK  Name = 
REMARK  11 active torsions:
REMARK  status: ('A' for Active; 'I' for Inactive)
REMARK    1  A    between atoms: O_2  and  C_3
REMARK    2  A    between atoms: C_3  and  N_25
REMARK    3  A    between atoms: C_8  and  C_22
REMARK    4  A    between atoms: C_9  and  C_12
REMARK    5  A    between atoms: C_12  and  S_13
REMARK    6  A    between atoms: S_13  and  C_14
REMARK    7  A    between atoms: N_18  and  C_19
REMARK    8  A    between atoms: C_19  and  C_20
REMARK    9  A    between atoms: C_26  and  C_28
REMARK   10  A    between atoms: C_28  and  S_29
REMARK   11  A    between atoms: S_29  and  C_30
REMARK                            x       y       z     vdW  Elec       q    Type
REMARK                         _______ _______ _______ _____ _____    ______ ____
ROOT
ATOM      1  C   UNL     1       0.302  -1.127   0.000  0.00  0.00    +0.000 C 
ATOM      2  C   UNL     1       0.715  -0.412   0.000  0.00  0.00    +0.000 C 
ATOM      3  N   UNL     1       0.000   0.000   0.000  0.00  0.00    +0.000 N 
ATOM      4  C   UNL     1      -0.412  -0.715   0.000  0.00  0.00    +0.000 C 
ATOM      5  O   UNL     1      -1.209  -0.928   0.000  0.00  0.00    +0.000 OA
ATOM      6  C   UNL     1       0.000   0.825   0.000  0.00  0.00    +0.000 C 
ATOM      7  C   UNL     1       0.715   1.238   0.000  0.00  0.00    +0.000 C 
ATOM      8  C   UNL     1       1.429   0.825   0.000  0.00  0.00    +0.000 C 
ATOM      9  O   UNL     1       1.429   0.000   0.000  0.00  0.00    +0.000 OA
ENDROOT
BRANCH   1  10
ATOM     10  N   UNL     1       1.016  -1.540   0.000  0.00  0.00    +0.000 NA
ATOM     11  C   UNL     1       1.731  -1.127   0.000  0.00  0.00    +0.000 C 
ATOM     12  O   UNL     1       1.731  -0.302   0.000  0.00  0.00    +0.000 OA
BRANCH  11  13
ATOM     13  C   UNL     1       2.445  -1.540   0.000  0.00  0.00    +0.000 C 
BRANCH  13  14
ATOM     14  S   UNL     1       3.160  -1.127   0.000  0.00  0.00    +0.000 S 
BRANCH  14  15
ATOM     15  C   UNL     1       3.874  -1.540   0.000  0.00  0.00    +0.000 C 
ATOM     16  F   UNL     1       4.589  -1.127   0.000  0.00  0.00    +0.000 F 
ATOM     17  F   UNL     1       3.874  -2.365   0.000  0.00  0.00    +0.000 F 
ENDBRANCH  14  15
ENDBRANCH  13  14
ENDBRANCH  11  13
ENDBRANCH   1  10
BRANCH   6  18
ATOM     18  C   UNL     1      -0.715   1.238   0.000  0.00  0.00    +0.000 C 
ATOM     19  O   UNL     1      -0.715   2.062   0.000  0.00  0.00    +0.000 OA
ATOM     20  O   UNL     1      -1.429   0.825   0.000  0.00  0.00    +0.000 OA
ENDBRANCH   6  18
BRANCH   1  22
ATOM     21  C   UNL     1      -0.935  -1.841   0.000  0.00  0.00    +0.000 C 
ATOM     22  O   UNL     1      -0.111  -1.841   0.000  0.00  0.00    +0.000 OA
ENDBRANCH   1  22
BRANCH   7  23
ATOM     23  C   UNL     1       0.715   2.062   0.000  0.00  0.00    +0.000 C 
BRANCH  23  24
ATOM     24  S   UNL     1       1.429   2.475   0.000  0.00  0.00    +0.000 S 
BRANCH  24  25
ATOM     25  C   UNL     1       1.429   3.300   0.000  0.00  0.00    +0.000 A 
ATOM     26  N   UNL     1       0.761   3.785   0.000  0.00  0.00    +0.000 NA
ATOM     27  N   UNL     1       1.016   4.569   0.000  0.00  0.00    +0.000 NA
ATOM     28  N   UNL     1       1.841   4.569   0.000  0.00  0.00    +0.000 NA
ATOM     29  N   UNL     1       2.096   3.785   0.000  0.00  0.00    +0.000 N 
BRANCH  29  30
ATOM     30  C   UNL     1       2.881   3.530   0.000  0.00  0.00    +0.000 C 
BRANCH  30  31
ATOM     31  C   UNL     1       3.494   4.082   0.000  0.00  0.00    +0.000 C 
ATOM     32  O   UNL     1       4.279   3.827   0.000  0.00  0.00    +0.000 OA
ENDBRANCH  30  31
ENDBRANCH  29  30
ENDBRANCH  24  25
ENDBRANCH  23  24
ENDBRANCH   7  23
TORSDOF 11
