REMARK  Name = 
REMARK  8 active torsions:
REMARK  status: ('A' for Active; 'I' for Inactive)
REMARK    1  A    between atoms: O_2  and  C_3
REMARK    2  A    between atoms: C_26  and  C_27
REMARK    3  A    between atoms: C_38  and  C_39
REMARK    4  A    between atoms: N_41  and  C_42
REMARK    5  A    between atoms: C_42  and  C_47
REMARK    6  A    between atoms: C_44  and  C_45
REMARK    7  A    between atoms: N_49  and  S_50
REMARK    8  A    between atoms: S_50  and  C_53
REMARK                            x       y       z     vdW  Elec       q    Type
REMARK                         _______ _______ _______ _____ _____    ______ ____
ROOT
ATOM      1  C   UNL     1      -0.716  -3.710   0.000  0.00  0.00    +0.000 A 
ATOM      2  C   UNL     1      -0.003  -4.125   0.000  0.00  0.00    +0.000 A 
ATOM      3  C   UNL     1       0.713  -3.715   0.000  0.00  0.00    +0.000 A 
ATOM      4  C   UNL     1       0.716  -2.890   0.000  0.00  0.00    +0.000 A 
ATOM      5  C   UNL     1       0.003  -2.475   0.000  0.00  0.00    +0.000 A 
ATOM      6  C   UNL     1      -0.713  -2.885   0.000  0.00  0.00    +0.000 A 
ATOM      7  C   UNL     1       1.432  -2.481   0.000  0.00  0.00    +0.000 A 
ATOM      8  O   UNL     1       1.436  -1.656   0.000  0.00  0.00    +0.000 OA
ATOM      9  N   UNL     1       2.145  -2.896   0.000  0.00  0.00    +0.000 N 
ATOM     10  C   UNL     1       2.861  -2.487   0.000  0.00  0.00    +0.000 C 
ATOM     11  C   UNL     1       2.865  -1.662   0.000  0.00  0.00    +0.000 C 
ATOM     12  C   UNL     1       3.581  -1.252   0.000  0.00  0.00    +0.000 C 
ATOM     13  C   UNL     1       4.293  -1.667   0.000  0.00  0.00    +0.000 C 
ATOM     14  C   UNL     1       4.290  -2.492   0.000  0.00  0.00    +0.000 C 
ATOM     15  C   UNL     1       5.003  -2.908   0.000  0.00  0.00    +0.000 C 
ATOM     16  C   UNL     1       5.789  -2.656   0.000  0.00  0.00    +0.000 C 
ATOM     17  C   UNL     1       6.271  -3.325   0.000  0.00  0.00    +0.000 C 
ATOM     18  C   UNL     1       5.814  -3.878   0.000  0.00  0.00    +0.000 C 
ATOM     19  C   UNL     1       5.000  -3.733   0.000  0.00  0.00    +0.000 C 
ATOM     20  O   UNL     1       5.712  -4.148   0.000  0.00  0.00    +0.000 OA
ATOM     21  C   UNL     1       5.709  -4.973   0.000  0.00  0.00    +0.000 C 
ATOM     22  O   UNL     1       6.422  -5.388   0.000  0.00  0.00    +0.000 OA
ATOM     23  N   UNL     1       4.993  -5.383   0.000  0.00  0.00    +0.000 NA
ATOM     24  C   UNL     1       4.990  -6.208   0.000  0.00  0.00    +0.000 C 
ATOM     25  C   UNL     1       4.273  -6.617   0.000  0.00  0.00    +0.000 C 
ATOM     26  O   UNL     1       4.270  -7.442   0.000  0.00  0.00    +0.000 OA
ATOM     27  N   UNL     1       3.561  -6.202   0.000  0.00  0.00    +0.000 N 
ATOM     28  C   UNL     1       3.564  -5.377   0.000  0.00  0.00    +0.000 C 
ATOM     29  C   UNL     1       2.851  -4.962   0.000  0.00  0.00    +0.000 C 
ATOM     30  C   UNL     1       2.343  -5.654   0.000  0.00  0.00    +0.000 C 
ATOM     31  C   UNL     1       2.753  -6.370   0.000  0.00  0.00    +0.000 C 
ATOM     32  O   UNL     1       2.854  -4.136   0.000  0.00  0.00    +0.000 OA
ATOM     33  C   UNL     1       2.142  -3.721   0.000  0.00  0.00    +0.000 A 
ATOM     34  N   UNL     1       1.426  -4.131   0.000  0.00  0.00    +0.000 NA
ENDROOT
BRANCH  24  35
ATOM     35  C   UNL     1       5.702  -6.623   0.000  0.00  0.00    +0.000 C 
ATOM     36  C   UNL     1       6.457  -6.291   0.000  0.00  0.00    +0.000 C 
ATOM     37  C   UNL     1       7.007  -6.906   0.000  0.00  0.00    +0.000 C 
ATOM     38  C   UNL     1       6.592  -7.619   0.000  0.00  0.00    +0.000 C 
ATOM     39  C   UNL     1       5.785  -7.444   0.000  0.00  0.00    +0.000 C 
ENDBRANCH  24  35
BRANCH  31  40
ATOM     40  C   UNL     1       2.414  -7.122   0.000  0.00  0.00    +0.000 C 
ATOM     41  O   UNL     1       2.897  -7.792   0.000  0.00  0.00    +0.000 OA
ATOM     42  N   UNL     1       1.594  -7.205   0.000  0.00  0.00    +0.000 NA
BRANCH  42  43
ATOM     43  C   UNL     1       1.255  -7.958   0.000  0.00  0.00    +0.000 C 
ATOM     44  C   UNL     1       1.194  -8.780   0.000  0.00  0.00    +0.000 C 
ATOM     45  C   UNL     1       1.937  -8.422   0.000  0.00  0.00    +0.000 C 
BRANCH  43  46
ATOM     46  C   UNL     1       0.455  -7.755   0.000  0.00  0.00    +0.000 C 
ATOM     47  O   UNL     1       0.231  -6.961   0.000  0.00  0.00    +0.000 OA
ATOM     48  N   UNL     1      -0.120  -8.346   0.000  0.00  0.00    +0.000 NA
BRANCH  48  49
ATOM     49  S   UNL     1      -0.920  -8.143   0.000  0.00  0.00    +0.000 S 
ATOM     50  O   UNL     1      -0.717  -7.343   0.000  0.00  0.00    +0.000 OA
ATOM     51  O   UNL     1      -1.123  -8.943   0.000  0.00  0.00    +0.000 OA
BRANCH  49  52
ATOM     52  C   UNL     1      -1.720  -7.940   0.000  0.00  0.00    +0.000 C 
ATOM     53  C   UNL     1      -1.659  -7.118   0.000  0.00  0.00    +0.000 C 
ATOM     54  C   UNL     1      -2.058  -8.693   0.000  0.00  0.00    +0.000 C 
ATOM     55  C   UNL     1      -2.540  -8.023   0.000  0.00  0.00    +0.000 C 
ENDBRANCH  49  52
ENDBRANCH  48  49
ENDBRANCH  43  46
BRANCH  45  56
ATOM     56  C   UNL     1       2.760  -8.483   0.000  0.00  0.00    +0.000 C 
ATOM     57  C   UNL     1       3.119  -9.226   0.000  0.00  0.00    +0.000 C 
ENDBRANCH  45  56
ENDBRANCH  42  43
ENDBRANCH  31  40
BRANCH   1  59
ATOM     58  C   UNL     1      -2.145  -3.704   0.000  0.00  0.00    +0.000 C 
ATOM     59  O   UNL     1      -1.432  -4.119   0.000  0.00  0.00    +0.000 OA
ENDBRANCH   1  59
TORSDOF 8
