REMARK  Name = 
REMARK  4 active torsions:
REMARK  status: ('A' for Active; 'I' for Inactive)
REMARK    1  A    between atoms: O_2  and  C_3
REMARK    2  A    between atoms: C_4  and  O_5
REMARK    3  A    between atoms: C_10  and  O_11
REMARK    4  A    between atoms: C_21  and  N_24
REMARK                            x       y       z     vdW  Elec       q    Type
REMARK                         _______ _______ _______ _____ _____    ______ ____
ROOT
ATOM      1  C   UNL     1       1.338  -1.524   0.000  0.00  0.00    +0.000 A 
ATOM      2  C   UNL     1       1.875  -0.897   0.000  0.00  0.00    +0.000 A 
ATOM      3  C   UNL     1       1.600  -0.119   0.000  0.00  0.00    +0.000 A 
ATOM      4  C   UNL     1       0.789   0.032   0.000  0.00  0.00    +0.000 A 
ATOM      5  C   UNL     1       0.252  -0.595   0.000  0.00  0.00    +0.000 A 
ATOM      6  C   UNL     1       0.527  -1.373   0.000  0.00  0.00    +0.000 A 
ATOM      7  C   UNL     1      -0.572  -0.566   0.000  0.00  0.00    +0.000 A 
ATOM      8  C   UNL     1      -0.783  -1.364   0.000  0.00  0.00    +0.000 A 
ATOM      9  C   UNL     1      -1.538  -1.696   0.000  0.00  0.00    +0.000 A 
ATOM     10  C   UNL     1      -2.269  -1.312   0.000  0.00  0.00    +0.000 A 
ATOM     11  C   UNL     1      -2.425  -0.502   0.000  0.00  0.00    +0.000 A 
ATOM     12  O   UNL     1      -3.222  -0.291   0.000  0.00  0.00    +0.000 OA
ATOM     13  C   UNL     1      -1.888   0.124   0.000  0.00  0.00    +0.000 A 
ATOM     14  C   UNL     1      -1.064   0.096   0.000  0.00  0.00    +0.000 A 
ATOM     15  C   UNL     1      -0.853   0.894   0.000  0.00  0.00    +0.000 C 
ATOM     16  C   UNL     1      -0.097   1.226   0.000  0.00  0.00    +0.000 C 
ATOM     17  C   UNL     1       0.633   0.842   0.000  0.00  0.00    +0.000 C 
ATOM     18  O   UNL     1      -2.931  -1.804   0.000  0.00  0.00    +0.000 OA
ENDROOT
BRANCH  15  19
ATOM     19  N   UNL     1      -1.480   1.430   0.000  0.00  0.00    +0.000 NA
ATOM     20  C   UNL     1      -1.328   2.241   0.000  0.00  0.00    +0.000 C 
ATOM     21  O   UNL     1      -1.955   2.777   0.000  0.00  0.00    +0.000 OA
ATOM     22  C   UNL     1      -0.550   2.516   0.000  0.00  0.00    +0.000 C 
ENDBRANCH  15  19
BRANCH   1  24
ATOM     23  C   UNL     1       2.424  -2.453   0.000  0.00  0.00    +0.000 C 
ATOM     24  O   UNL     1       1.613  -2.301   0.000  0.00  0.00    +0.000 OA
ENDBRANCH   1  24
BRANCH   2  25
ATOM     25  O   UNL     1       2.686  -1.048   0.000  0.00  0.00    +0.000 OA
ATOM     26  C   UNL     1       3.222  -0.421   0.000  0.00  0.00    +0.000 C 
ENDBRANCH   2  25
BRANCH   6  27
ATOM     27  O   UNL     1      -0.009  -1.999   0.000  0.00  0.00    +0.000 OA
ATOM     28  C   UNL     1       0.266  -2.777   0.000  0.00  0.00    +0.000 C 
ENDBRANCH   6  27
TORSDOF 4
