REMARK  Name = 
REMARK  8 active torsions:
REMARK  status: ('A' for Active; 'I' for Inactive)
REMARK    1  A    between atoms: N_4  and  C_9
REMARK    2  A    between atoms: C_14  and  C_15
REMARK    3  A    between atoms: C_15  and  O_16
REMARK    4  A    between atoms: O_16  and  P_19
REMARK    5  A    between atoms: O_17  and  P_19
REMARK    6  A    between atoms: O_17  and  P_23
REMARK    7  A    between atoms: P_23  and  O_24
REMARK    8  A    between atoms: O_24  and  C_26
REMARK                            x       y       z     vdW  Elec       q    Type
REMARK                         _______ _______ _______ _____ _____    ______ ____
ROOT
ATOM      1  O   UNL     1       1.134  -0.413   0.000  0.00  0.00    +0.000 OA
ENDROOT
BRANCH   1   3
ATOM      2  O   UNL     1       0.309   0.411   0.000  0.00  0.00    +0.000 OA
ATOM      3  P   UNL     1       0.309  -0.413   0.000  0.00  0.00    +0.000 P 
ATOM      4  O   UNL     1       0.309  -1.238   0.000  0.00  0.00    +0.000 OA
BRANCH   3   5
ATOM      5  O   UNL     1      -0.516  -0.413   0.000  0.00  0.00    +0.000 OA
BRANCH   5   8
ATOM      6  O   UNL     1      -1.341   0.411   0.000  0.00  0.00    +0.000 OA
ATOM      7  O   UNL     1      -1.341  -1.238   0.000  0.00  0.00    +0.000 OA
ATOM      8  P   UNL     1      -1.341  -0.413   0.000  0.00  0.00    +0.000 P 
BRANCH   8   9
ATOM      9  O   UNL     1      -2.166  -0.413   0.000  0.00  0.00    +0.000 OA
BRANCH   9  10
ATOM     10  C   UNL     1      -2.881  -0.826   0.000  0.00  0.00    +0.000 C 
ATOM     11  C   UNL     1      -4.309  -0.826   0.000  0.00  0.00    +0.000 C 
ATOM     12  C   UNL     1      -2.881  -1.651   0.000  0.00  0.00    +0.000 C 
ATOM     13  O   UNL     1      -2.166  -2.063   0.000  0.00  0.00    +0.000 OA
ATOM     14  C   UNL     1      -4.309  -1.651   0.000  0.00  0.00    +0.000 C 
ATOM     15  O   UNL     1      -5.024  -2.063   0.000  0.00  0.00    +0.000 OA
ATOM     16  C   UNL     1      -3.595  -2.063   0.000  0.00  0.00    +0.000 C 
ATOM     17  O   UNL     1      -3.595  -2.889   0.000  0.00  0.00    +0.000 OA
ATOM     18  O   UNL     1      -3.595  -0.413   0.000  0.00  0.00    +0.000 OA
ENDBRANCH   9  10
ENDBRANCH   8   9
ENDBRANCH   5   8
ENDBRANCH   3   5
ENDBRANCH   1   3
BRANCH   1  19
ATOM     19  C   UNL     1       1.959  -0.413   0.000  0.00  0.00    +0.000 C 
BRANCH  19  25
ATOM     20  C   UNL     1       4.008  -0.826   0.000  0.00  0.00    +0.000 C 
ATOM     21  C   UNL     1       3.753  -1.610   0.000  0.00  0.00    +0.000 C 
ATOM     22  O   UNL     1       4.166  -2.325   0.000  0.00  0.00    +0.000 OA
ATOM     23  C   UNL     1       2.928  -1.610   0.000  0.00  0.00    +0.000 C 
ATOM     24  O   UNL     1       2.516  -2.325   0.000  0.00  0.00    +0.000 OA
ATOM     25  C   UNL     1       2.673  -0.826   0.000  0.00  0.00    +0.000 C 
ATOM     26  O   UNL     1       3.341  -0.341   0.000  0.00  0.00    +0.000 OA
BRANCH  20  30
ATOM     27  C   UNL     1       5.024   0.826   0.000  0.00  0.00    +0.000 A 
ATOM     28  C   UNL     1       5.024   1.651   0.000  0.00  0.00    +0.000 A 
ATOM     29  N   UNL     1       3.595   1.651   0.000  0.00  0.00    +0.000 NA
ATOM     30  N   UNL     1       4.309   0.413   0.000  0.00  0.00    +0.000 N 
ATOM     31  C   UNL     1       4.309   2.063   0.000  0.00  0.00    +0.000 A 
ATOM     32  O   UNL     1       4.309   2.889   0.000  0.00  0.00    +0.000 OA
ATOM     33  C   UNL     1       3.595   0.826   0.000  0.00  0.00    +0.000 A 
ATOM     34  O   UNL     1       2.881   0.413   0.000  0.00  0.00    +0.000 OA
ENDBRANCH  20  30
ENDBRANCH  19  25
ENDBRANCH   1  19
TORSDOF 8
