REMARK  Name = 
REMARK  9 active torsions:
REMARK  status: ('A' for Active; 'I' for Inactive)
REMARK    1  A    between atoms: B_1  and  C_2
REMARK    2  A    between atoms: C_2  and  C_3
REMARK    3  A    between atoms: C_2  and  N_7
REMARK    4  A    between atoms: C_3  and  C_4
REMARK    5  A    between atoms: C_8  and  C_10
REMARK    6  A    between atoms: C_10  and  C_11
REMARK    7  A    between atoms: C_10  and  N_14
REMARK    8  A    between atoms: C_15  and  C_17
REMARK    9  A    between atoms: C_21  and  C_23
REMARK                            x       y       z     vdW  Elec       q    Type
REMARK                         _______ _______ _______ _____ _____    ______ ____
ROOT
ATOM      1  C   UNL     1       7.145  -6.600   0.000  0.00  0.00    +0.000 C 
ENDROOT
BRANCH   1   3
ATOM      2  N   UNL     1       5.716  -6.600   0.000  0.00  0.00    +0.000 NA
ATOM      3  C   UNL     1       6.430  -6.188   0.000  0.00  0.00    +0.000 C 
ATOM      4  O   UNL     1       6.430  -5.362   0.000  0.00  0.00    +0.000 OA
BRANCH   2   5
ATOM      5  C   UNL     1       5.001  -6.188   0.000  0.00  0.00    +0.000 C 
BRANCH   5   6
ATOM      6  B   UNL     1       5.001  -5.362   0.000  0.00  0.00    +0.000 B 
ATOM      7  O   UNL     1       5.716  -4.950   0.000  0.00  0.00    +0.000 OA
ATOM      8  O   UNL     1       4.287  -4.950   0.000  0.00  0.00    +0.000 OA
ENDBRANCH   5   6
BRANCH   5   9
ATOM      9  C   UNL     1       4.287  -6.600   0.000  0.00  0.00    +0.000 C 
BRANCH   9  10
ATOM     10  C   UNL     1       3.572  -6.188   0.000  0.00  0.00    +0.000 C 
ATOM     11  C   UNL     1       2.858  -6.600   0.000  0.00  0.00    +0.000 C 
ATOM     12  C   UNL     1       3.572  -5.362   0.000  0.00  0.00    +0.000 C 
ENDBRANCH   9  10
ENDBRANCH   5   9
ENDBRANCH   2   5
ENDBRANCH   1   3
BRANCH   1  13
ATOM     13  N   UNL     1       7.859  -6.188   0.000  0.00  0.00    +0.000 NA
ATOM     14  C   UNL     1       8.574  -6.600   0.000  0.00  0.00    +0.000 C 
ATOM     15  O   UNL     1       8.574  -7.425   0.000  0.00  0.00    +0.000 OA
BRANCH  14  16
ATOM     16  C   UNL     1       9.288  -6.188   0.000  0.00  0.00    +0.000 A 
ATOM     17  C   UNL     1       9.288  -5.362   0.000  0.00  0.00    +0.000 A 
ATOM     18  C   UNL     1      10.003  -4.950   0.000  0.00  0.00    +0.000 A 
ATOM     19  C   UNL     1      10.717  -5.362   0.000  0.00  0.00    +0.000 A 
ATOM     20  C   UNL     1      10.717  -6.188   0.000  0.00  0.00    +0.000 A 
ATOM     21  N   UNL     1      10.003  -6.600   0.000  0.00  0.00    +0.000 NA
BRANCH  20  22
ATOM     22  C   UNL     1      11.431  -6.600   0.000  0.00  0.00    +0.000 A 
ATOM     23  C   UNL     1      12.146  -6.188   0.000  0.00  0.00    +0.000 A 
ATOM     24  C   UNL     1      12.861  -6.600   0.000  0.00  0.00    +0.000 A 
ATOM     25  C   UNL     1      12.861  -7.425   0.000  0.00  0.00    +0.000 A 
ATOM     26  C   UNL     1      12.146  -7.838   0.000  0.00  0.00    +0.000 A 
ATOM     27  C   UNL     1      11.431  -7.425   0.000  0.00  0.00    +0.000 A 
ENDBRANCH  20  22
ENDBRANCH  14  16
ENDBRANCH   1  13
BRANCH   1  28
ATOM     28  C   UNL     1       7.145  -7.425   0.000  0.00  0.00    +0.000 C 
ATOM     29  C   UNL     1       7.859  -7.838   0.000  0.00  0.00    +0.000 C 
ATOM     30  O   UNL     1       6.430  -7.838   0.000  0.00  0.00    +0.000 OA
ENDBRANCH   1  28
TORSDOF 9
