REMARK  Name = 
REMARK  4 active torsions:
REMARK  status: ('A' for Active; 'I' for Inactive)
REMARK    1  A    between atoms: C_6  and  N_7
REMARK    2  A    between atoms: N_14  and  C_15
REMARK    3  A    between atoms: C_15  and  C_16
REMARK    4  A    between atoms: C_22  and  C_23
REMARK                            x       y       z     vdW  Elec       q    Type
REMARK                         _______ _______ _______ _____ _____    ______ ____
ROOT
ATOM      1  C   UNL     1      -0.715  -0.412   0.000  0.00  0.00    +0.000 C 
ATOM      2  N   UNL     1      -0.715  -1.238   0.000  0.00  0.00    +0.000 N 
ATOM      3  C   UNL     1      -1.429  -1.650   0.000  0.00  0.00    +0.000 A 
ATOM      4  O   UNL     1      -2.143  -1.238   0.000  0.00  0.00    +0.000 OA
ATOM      5  C   UNL     1      -1.429  -2.475   0.000  0.00  0.00    +0.000 A 
ATOM      6  C   UNL     1      -0.715  -2.888   0.000  0.00  0.00    +0.000 A 
ATOM      7  N   UNL     1       0.000  -2.475   0.000  0.00  0.00    +0.000 N 
ATOM      8  C   UNL     1       0.000  -1.650   0.000  0.00  0.00    +0.000 A 
ATOM      9  O   UNL     1       0.715  -1.238   0.000  0.00  0.00    +0.000 OA
ENDROOT
BRANCH   6  10
ATOM     10  N   UNL     1      -0.715  -3.712   0.000  0.00  0.00    +0.000 N 
ATOM     11  C   UNL     1       0.000  -4.125   0.000  0.00  0.00    +0.000 C 
ATOM     12  C   UNL     1       0.000  -4.950   0.000  0.00  0.00    +0.000 C 
ATOM     13  C   UNL     1      -0.715  -5.362   0.000  0.00  0.00    +0.000 C 
ATOM     14  C   UNL     1      -1.429  -4.950   0.000  0.00  0.00    +0.000 C 
ATOM     15  N   UNL     1      -2.143  -5.362   0.000  0.00  0.00    +0.000 NA
ATOM     16  C   UNL     1      -1.429  -4.125   0.000  0.00  0.00    +0.000 C 
ENDBRANCH   6  10
BRANCH   7  17
ATOM     17  C   UNL     1       0.715  -2.888   0.000  0.00  0.00    +0.000 C 
BRANCH  17  18
ATOM     18  C   UNL     1       1.429  -2.475   0.000  0.00  0.00    +0.000 A 
ATOM     19  C   UNL     1       1.429  -1.650   0.000  0.00  0.00    +0.000 A 
ATOM     20  C   UNL     1       2.143  -1.238   0.000  0.00  0.00    +0.000 A 
ATOM     21  F   UNL     1       2.143  -0.412   0.000  0.00  0.00    +0.000 F 
ATOM     22  C   UNL     1       2.858  -1.650   0.000  0.00  0.00    +0.000 A 
ATOM     23  C   UNL     1       2.858  -2.475   0.000  0.00  0.00    +0.000 A 
ATOM     24  C   UNL     1       2.143  -2.888   0.000  0.00  0.00    +0.000 A 
BRANCH  24  25
ATOM     25  C   UNL     1       2.143  -3.712   0.000  0.00  0.00    +0.000 C 
ATOM     26  N   UNL     1       2.143  -4.537   0.000  0.00  0.00    +0.000 NA
ENDBRANCH  24  25
ENDBRANCH  17  18
ENDBRANCH   7  17
TORSDOF 4
