REMARK  Name = 
REMARK  2 active torsions:
REMARK  status: ('A' for Active; 'I' for Inactive)
REMARK    1  A    between atoms: C_18  and  C_20
REMARK    2  A    between atoms: C_23  and  C_27
REMARK                            x       y       z     vdW  Elec       q    Type
REMARK                         _______ _______ _______ _____ _____    ______ ____
ROOT
ATOM      1  C   UNL     1       3.279   2.062   0.000  0.00  0.00    +0.000 C 
ATOM      2  C   UNL     1       3.279   1.238   0.000  0.00  0.00    +0.000 C 
ATOM      3  N   UNL     1       3.993   0.825   0.000  0.00  0.00    +0.000 N 
ATOM      4  C   UNL     1       3.993   0.000   0.000  0.00  0.00    +0.000 C 
ATOM      5  C   UNL     1       3.279  -0.412   0.000  0.00  0.00    +0.000 C 
ATOM      6  C   UNL     1       2.564   0.000   0.000  0.00  0.00    +0.000 A 
ATOM      7  C   UNL     1       2.564   0.825   0.000  0.00  0.00    +0.000 A 
ATOM      8  N   UNL     1       1.780   1.080   0.000  0.00  0.00    +0.000 NA
ATOM      9  N   UNL     1       1.295   0.412   0.000  0.00  0.00    +0.000 NA
ATOM     10  N   UNL     1       1.780  -0.255   0.000  0.00  0.00    +0.000 N 
ATOM     11  C   UNL     1       1.525  -1.040   0.000  0.00  0.00    +0.000 A 
ATOM     12  N   UNL     1       2.077  -1.653   0.000  0.00  0.00    +0.000 NA
ATOM     13  C   UNL     1       1.822  -2.437   0.000  0.00  0.00    +0.000 A 
ATOM     14  C   UNL     1       1.015  -2.609   0.000  0.00  0.00    +0.000 A 
ATOM     15  F   UNL     1       0.760  -3.393   0.000  0.00  0.00    +0.000 F 
ATOM     16  C   UNL     1       0.463  -1.996   0.000  0.00  0.00    +0.000 A 
ATOM     17  N   UNL     1       0.718  -1.211   0.000  0.00  0.00    +0.000 NA
ATOM     18  C   UNL     1       4.708   1.238   0.000  0.00  0.00    +0.000 C 
ATOM     19  O   UNL     1       4.708   2.062   0.000  0.00  0.00    +0.000 OA
ENDROOT
BRANCH  18  20
ATOM     20  C   UNL     1       5.422   0.825   0.000  0.00  0.00    +0.000 A 
ATOM     21  C   UNL     1       6.137   1.238   0.000  0.00  0.00    +0.000 A 
ATOM     22 CL   UNL     1       6.137   2.062   0.000  0.00  0.00    +0.000 Cl
ATOM     23  C   UNL     1       6.851   0.825   0.000  0.00  0.00    +0.000 A 
ATOM     24  C   UNL     1       6.851   0.000   0.000  0.00  0.00    +0.000 A 
ATOM     25  C   UNL     1       6.137  -0.412   0.000  0.00  0.00    +0.000 A 
ATOM     26  C   UNL     1       5.422   0.000   0.000  0.00  0.00    +0.000 A 
BRANCH  23  27
ATOM     27  C   UNL     1       7.566   1.238   0.000  0.00  0.00    +0.000 C 
ATOM     28  F   UNL     1       8.280   1.650   0.000  0.00  0.00    +0.000 F 
ATOM     29  F   UNL     1       7.978   0.523   0.000  0.00  0.00    +0.000 F 
ATOM     30  F   UNL     1       7.153   1.952   0.000  0.00  0.00    +0.000 F 
ENDBRANCH  23  27
ENDBRANCH  18  20
TORSDOF 2
