REMARK  Name = 
REMARK  6 active torsions:
REMARK  status: ('A' for Active; 'I' for Inactive)
REMARK    1  A    between atoms: C_1  and  N_17
REMARK    2  A    between atoms: C_2  and  C_7
REMARK    3  A    between atoms: N_9  and  O_13
REMARK    4  A    between atoms: O_13  and  C_14
REMARK    5  A    between atoms: C_14  and  C_15
REMARK    6  A    between atoms: N_17  and  C_18
REMARK                            x       y       z     vdW  Elec       q    Type
REMARK                         _______ _______ _______ _____ _____    ______ ____
ROOT
ATOM      1  C   UNL     1      -1.072  -0.825   0.000  0.00  0.00    +0.000 A 
ATOM      2  C   UNL     1      -1.072  -1.650   0.000  0.00  0.00    +0.000 A 
ATOM      3  C   UNL     1      -1.786  -2.062   0.000  0.00  0.00    +0.000 A 
ATOM      4  C   UNL     1      -2.501  -1.650   0.000  0.00  0.00    +0.000 A 
ATOM      5  C   UNL     1      -2.501  -0.825   0.000  0.00  0.00    +0.000 A 
ATOM      6  N   UNL     1      -1.786  -0.412   0.000  0.00  0.00    +0.000 N 
ATOM      7  O   UNL     1      -3.215  -0.412   0.000  0.00  0.00    +0.000 OA
ATOM      8  C   UNL     1      -3.215  -2.062   0.000  0.00  0.00    +0.000 C 
ATOM      9  C   UNL     1      -1.786   0.412   0.000  0.00  0.00    +0.000 C 
ENDROOT
BRANCH   2  10
ATOM     10  C   UNL     1      -0.357  -2.062   0.000  0.00  0.00    +0.000 C 
ATOM     11  O   UNL     1      -0.357  -2.888   0.000  0.00  0.00    +0.000 OA
ATOM     12  N   UNL     1       0.357  -1.650   0.000  0.00  0.00    +0.000 NA
BRANCH  12  13
ATOM     13  O   UNL     1       1.072  -2.062   0.000  0.00  0.00    +0.000 OA
BRANCH  13  14
ATOM     14  C   UNL     1       1.786  -1.650   0.000  0.00  0.00    +0.000 C 
BRANCH  14  15
ATOM     15  C   UNL     1       2.501  -2.062   0.000  0.00  0.00    +0.000 C 
ATOM     16  O   UNL     1       3.215  -1.650   0.000  0.00  0.00    +0.000 OA
ENDBRANCH  14  15
ENDBRANCH  13  14
ENDBRANCH  12  13
ENDBRANCH   2  10
BRANCH   1  17
ATOM     17  N   UNL     1      -0.357  -0.412   0.000  0.00  0.00    +0.000 NA
BRANCH  17  18
ATOM     18  C   UNL     1      -0.357   0.412   0.000  0.00  0.00    +0.000 A 
ATOM     19  C   UNL     1       0.357   0.825   0.000  0.00  0.00    +0.000 A 
ATOM     20  C   UNL     1       0.357   1.650   0.000  0.00  0.00    +0.000 A 
ATOM     21  C   UNL     1      -0.357   2.062   0.000  0.00  0.00    +0.000 A 
ATOM     22  C   UNL     1      -1.072   1.650   0.000  0.00  0.00    +0.000 A 
ATOM     23  C   UNL     1      -1.072   0.825   0.000  0.00  0.00    +0.000 A 
ATOM     24  I   UNL     1      -0.357   2.888   0.000  0.00  0.00    +0.000 I 
ATOM     25  F   UNL     1       1.072   0.412   0.000  0.00  0.00    +0.000 F 
ENDBRANCH  17  18
ENDBRANCH   1  17
TORSDOF 6
