REMARK  Name = 
REMARK  23 active torsions:
REMARK  status: ('A' for Active; 'I' for Inactive)
REMARK    1  A    between atoms: C_1  and  CA_4
REMARK    2  A    between atoms: N_7  and  C_8
REMARK    3  A    between atoms: C_20  and  C_21
REMARK    4  A    between atoms: C_26  and  C_27
REMARK    5  A    between atoms: C_27  and  C_28
REMARK    6  A    between atoms: C_41  and  C_42
REMARK    7  A    between atoms: C_42  and  C_43
REMARK    8  A    between atoms: C_43  and  C_44
REMARK    9  A    between atoms: C_44  and  N_45
REMARK   10  A    between atoms: C_58  and  C_59
REMARK   11  A    between atoms: C_59  and  C_60
REMARK   12  A    between atoms: C_66  and  C_67
REMARK   13  A    between atoms: C_67  and  C_68
REMARK   14  A    between atoms: C_78  and  C_79
REMARK   15  A    between atoms: C_79  and  C_80
REMARK   16  A    between atoms: C_86  and  C_87
REMARK   17  A    between atoms: C_87  and  C_88
REMARK   18  A    between atoms: C_103  and  C_104
REMARK   19  A    between atoms: C_104  and  C_105
REMARK   20  A    between atoms: C_105  and  C_106
REMARK   21  A    between atoms: C_112  and  C_113
REMARK   22  A    between atoms: C_113  and  C_114
REMARK   23  A    between atoms: C_117  and  C_120
REMARK                            x       y       z     vdW  Elec       q    Type
REMARK                         _______ _______ _______ _____ _____    ______ ____
ROOT
ATOM      1  C   UNK A   2      -4.664   1.762   0.000  0.00  0.00    +0.000 C 
ATOM      2  O   UNK A   2      -4.492   2.568   0.000  0.00  0.00    +0.000 OA
ATOM      3  C   UNK A   2      -5.449   1.506   0.000  0.00  0.00    +0.000 C 
ATOM      4  C   UNK A   2      -5.620   0.700   0.000  0.00  0.00    +0.000 C 
ATOM      5  S   UNK A   2      -7.780  -4.899   0.000  0.00  0.00    +0.000 S 
ATOM      6  C   UNK A   3      -2.653   0.912   0.000  0.00  0.00    +0.000 C 
ATOM      7  O   UNK A   3      -1.869   1.167   0.000  0.00  0.00    +0.000 OA
ATOM      8  N   UNK A   3      -4.051   1.209   0.000  0.00  0.00    +0.000 NA
ATOM      9  C   UNK A   3      -3.266   1.464   0.000  0.00  0.00    +0.000 C 
ATOM     10  C   UNK A   3      -3.095   2.271   0.000  0.00  0.00    +0.000 C 
ATOM     11  S   UNK A   3      -2.310   2.526   0.000  0.00  0.00    +0.000 S 
ATOM     12  C   UNK A   4      -2.383  -1.254   0.000  0.00  0.00    +0.000 C 
ATOM     13  O   UNK A   4      -3.168  -1.508   0.000  0.00  0.00    +0.000 OA
ATOM     14  N   UNK A   4      -2.825   0.105   0.000  0.00  0.00    +0.000 NA
ATOM     15  C   UNK A   4      -2.212  -0.447   0.000  0.00  0.00    +0.000 C 
ATOM     16  C   UNK A   4      -1.329  -3.165   0.000  0.00  0.00    +0.000 C 
ATOM     17  O   UNK A   4      -0.544  -2.910   0.000  0.00  0.00    +0.000 OA
ATOM     18  N   UNK A   4      -1.770  -1.806   0.000  0.00  0.00    +0.000 NA
ATOM     19  C   UNK A   4      -1.942  -2.613   0.000  0.00  0.00    +0.000 C 
ATOM     20  C   UNK A   4      -0.102  -4.269   0.000  0.00  0.00    +0.000 C 
ATOM     21  O   UNK A   4       0.069  -3.462   0.000  0.00  0.00    +0.000 OA
ATOM     22  N   UNK A   4      -1.500  -3.972   0.000  0.00  0.00    +0.000 N 
ATOM     23  C   UNK A   4      -0.887  -4.524   0.000  0.00  0.00    +0.000 C 
ATOM     24  C   UNK A   4      -1.223  -5.277   0.000  0.00  0.00    +0.000 C 
ATOM     25  C   UNK A   4      -2.043  -5.191   0.000  0.00  0.00    +0.000 C 
ATOM     26  C   UNK A   4      -2.214  -4.384   0.000  0.00  0.00    +0.000 C 
ATOM     27  C   UNK A   2       1.908  -5.118   0.000  0.00  0.00    +0.000 C 
ATOM     28  O   UNK A   2       2.296  -5.846   0.000  0.00  0.00    +0.000 OA
ATOM     29  N   UNK A   4       0.510  -4.821   0.000  0.00  0.00    +0.000 NA
ATOM     30  C   UNK A   4       1.295  -4.566   0.000  0.00  0.00    +0.000 C 
ATOM     31  C   UNK A   2       4.091  -5.160   0.000  0.00  0.00    +0.000 C 
ATOM     32  O   UNK A   2       4.704  -5.712   0.000  0.00  0.00    +0.000 OA
ATOM     33  N   UNK A   2       2.693  -4.863   0.000  0.00  0.00    +0.000 NA
ATOM     34  C   UNK A   2       3.306  -5.415   0.000  0.00  0.00    +0.000 C 
ATOM     35  C   UNK A   2       3.134  -6.222   0.000  0.00  0.00    +0.000 C 
ATOM     36  S   UNK A   2      -6.681  -5.883   0.000  0.00  0.00    +0.000 S 
ATOM     37  C   UNK A   2       5.218  -3.291   0.000  0.00  0.00    +0.000 C 
ATOM     38  O   UNK A   2       4.605  -2.739   0.000  0.00  0.00    +0.000 OA
ATOM     39  N   UNK A   2       4.262  -4.353   0.000  0.00  0.00    +0.000 NA
ATOM     40  C   UNK A   2       5.047  -4.098   0.000  0.00  0.00    +0.000 C 
ATOM     41  C   UNK A   2       6.959  -1.974   0.000  0.00  0.00    +0.000 C 
ATOM     42  O   UNK A   2       7.572  -2.526   0.000  0.00  0.00    +0.000 OA
ATOM     43  N   UNK A   2       6.003  -3.036   0.000  0.00  0.00    +0.000 NA
ATOM     44  C   UNK A   2       6.174  -2.229   0.000  0.00  0.00    +0.000 C 
ATOM     45  C   UNK A   2       6.689   0.192   0.000  0.00  0.00    +0.000 C 
ATOM     46  O   UNK A   2       7.474   0.447   0.000  0.00  0.00    +0.000 OA
ATOM     47  N   UNK A   2       7.131  -1.167   0.000  0.00  0.00    +0.000 NA
ATOM     48  C   UNK A   2       6.518  -0.615   0.000  0.00  0.00    +0.000 C 
ATOM     49  C   UNK A   2       5.634   2.103   0.000  0.00  0.00    +0.000 C 
ATOM     50  O   UNK A   2       4.850   1.848   0.000  0.00  0.00    +0.000 OA
ATOM     51  N   UNK A   2       6.076   0.744   0.000  0.00  0.00    +0.000 NA
ATOM     52  C   UNK A   2       6.247   1.551   0.000  0.00  0.00    +0.000 C 
ATOM     53  C   UNK A   3       4.408   3.207   0.000  0.00  0.00    +0.000 C 
ATOM     54  O   UNK A   3       4.237   2.400   0.000  0.00  0.00    +0.000 OA
ATOM     55  N   UNK A   2       5.806   2.910   0.000  0.00  0.00    +0.000 N 
ATOM     56  C   UNK A   2       5.193   3.462   0.000  0.00  0.00    +0.000 C 
ATOM     57  C   UNK A   2       5.528   4.215   0.000  0.00  0.00    +0.000 C 
ATOM     58  C   UNK A   2       6.349   4.129   0.000  0.00  0.00    +0.000 C 
ATOM     59  C   UNK A   2       6.520   3.322   0.000  0.00  0.00    +0.000 C 
ATOM     60  C   UNK A   3       2.397   4.056   0.000  0.00  0.00    +0.000 C 
ATOM     61  O   UNK A   3       2.569   4.863   0.000  0.00  0.00    +0.000 OA
ATOM     62  N   UNK A   3       3.795   3.759   0.000  0.00  0.00    +0.000 NA
ATOM     63  C   UNK A   3       3.010   3.504   0.000  0.00  0.00    +0.000 C 
ATOM     64  C   UNK A   3       0.215   4.098   0.000  0.00  0.00    +0.000 C 
ATOM     65  O   UNK A   3      -0.398   4.650   0.000  0.00  0.00    +0.000 OA
ATOM     66  N   UNK A   3       1.613   3.801   0.000  0.00  0.00    +0.000 NA
ATOM     67  C   UNK A   3       1.000   4.353   0.000  0.00  0.00    +0.000 C 
ATOM     68  N   UNK A   3       0.043   3.291   0.000  0.00  0.00    +0.000 NA
ATOM     69  C   UNK A   3      -0.741   3.036   0.000  0.00  0.00    +0.000 C 
ATOM     70  C   UNK A   3      -0.912   2.229   0.000  0.00  0.00    +0.000 C 
ATOM     71  S   UNK A   3      -1.697   1.974   0.000  0.00  0.00    +0.000 S 
ENDROOT
BRANCH  69  72
ATOM     72  C   UNK A   3      -1.354   3.588   0.000  0.00  0.00    +0.000 C 
ATOM     73  O   UNK A   3      -2.139   3.333   0.000  0.00  0.00    +0.000 OA
ATOM     74  N   UNK A   3      -1.183   4.395   0.000  0.00  0.00    +0.000 NA
ENDBRANCH  69  72
BRANCH   3  77
ATOM     75  C   GLY A   1      -6.846   1.804   0.000  0.00  0.00    +0.000 C 
ATOM     76  O   GLY A   1      -7.018   0.997   0.000  0.00  0.00    +0.000 OA
ATOM     77  N   UNK A   2      -6.062   2.058   0.000  0.00  0.00    +0.000 NA
BRANCH  75  79
ATOM     78  N   GLY A   1      -8.244   2.101   0.000  0.00  0.00    +0.000 NA
ATOM     79  CA  GLY A   1      -7.460   2.356   0.000  0.00  0.00    +0.000 C 
ENDBRANCH  75  79
ENDBRANCH   3  77
BRANCH  15  80
ATOM     80  C   UNK A   4      -1.427  -0.192   0.000  0.00  0.00    +0.000 C 
ATOM     81  O   UNK A   4      -1.158   0.850   0.000  0.00  0.00    +0.000 OA
ENDBRANCH  15  80
BRANCH  67  82
ATOM     82  C   UNK A   3       1.171   5.160   0.000  0.00  0.00    +0.000 C 
ATOM     83  C   UNK A   3       0.558   5.712   0.000  0.00  0.00    +0.000 C 
BRANCH  82  84
ATOM     84  C   UNK A   3       1.956   5.415   0.000  0.00  0.00    +0.000 C 
ATOM     85  C   UNK A   3       2.127   6.222   0.000  0.00  0.00    +0.000 C 
ENDBRANCH  82  84
ENDBRANCH  67  82
BRANCH  48  86
ATOM     86  C   UNK A   2       5.733  -0.870   0.000  0.00  0.00    +0.000 C 
BRANCH  86  87
ATOM     87  C   UNK A   2       5.149  -0.287   0.000  0.00  0.00    +0.000 C 
ATOM     88  O   UNK A   2       4.353  -0.500   0.000  0.00  0.00    +0.000 OA
ATOM     89  O   UNK A   2       5.363   0.510   0.000  0.00  0.00    +0.000 OA
ENDBRANCH  86  87
ENDBRANCH  48  86
BRANCH  19  90
ATOM     90  C   UNK A   4      -2.707  -2.304   0.000  0.00  0.00    +0.000 C 
BRANCH  90  91
ATOM     91  C   UNK A   4      -3.357  -2.811   0.000  0.00  0.00    +0.000 C 
ATOM     92  O   UNK A   4      -3.285  -3.633   0.000  0.00  0.00    +0.000 OA
ATOM     93  O   UNK A   4      -4.122  -2.502   0.000  0.00  0.00    +0.000 OA
ENDBRANCH  90  91
ENDBRANCH  19  90
BRANCH  52  94
ATOM     94  C   UNK A   2       7.267   1.882   0.000  0.00  0.00    +0.000 C 
BRANCH  94  95
ATOM     95  C   UNK A   2       7.490   2.931   0.000  0.00  0.00    +0.000 A 
ATOM     96  C   UNK A   2       6.938   3.544   0.000  0.00  0.00    +0.000 A 
ATOM     97  N   UNK A   2       7.351   4.259   0.000  0.00  0.00    +0.000 NA
ATOM     98  C   UNK A   2       8.158   4.087   0.000  0.00  0.00    +0.000 A 
ATOM     99  N   UNK A   2       8.244   3.267   0.000  0.00  0.00    +0.000 NA
ENDBRANCH  94  95
ENDBRANCH  52  94
BRANCH  40 100
ATOM    100  C   UNK A   2       5.660  -4.650   0.000  0.00  0.00    +0.000 C 
BRANCH 100 101
ATOM    101  C   UNK A   2       6.444  -4.395   0.000  0.00  0.00    +0.000 C 
ATOM    102  O   UNK A   2       7.028  -4.979   0.000  0.00  0.00    +0.000 OA
ATOM    103  N   UNK A   2       6.658  -3.598   0.000  0.00  0.00    +0.000 NA
ENDBRANCH 100 101
ENDBRANCH  40 100
BRANCH  63 104
ATOM    104  C   UNK A   3       2.839   2.697   0.000  0.00  0.00    +0.000 C 
BRANCH 104 105
ATOM    105  C   UNK A   3       3.452   2.145   0.000  0.00  0.00    +0.000 C 
BRANCH 105 106
ATOM    106  C   UNK A   3       3.280   1.338   0.000  0.00  0.00    +0.000 C 
ATOM    107  O   UNK A   3       2.496   1.083   0.000  0.00  0.00    +0.000 OA
ATOM    108  O   UNK A   3       3.894   0.786   0.000  0.00  0.00    +0.000 OA
ENDBRANCH 105 106
ENDBRANCH 104 105
ENDBRANCH  63 104
BRANCH  30 109
ATOM    109  C   UNK A   4       1.467  -3.759   0.000  0.00  0.00    +0.000 C 
BRANCH 109 110
ATOM    110  C   UNK A   4       0.854  -3.207   0.000  0.00  0.00    +0.000 C 
BRANCH 110 111
ATOM    111  C   UNK A   4       1.025  -2.400   0.000  0.00  0.00    +0.000 C 
BRANCH 111 112
ATOM    112  N   UNK A   4       0.412  -1.848   0.000  0.00  0.00    +0.000 NA
ATOM    113  C   UNK A   4       0.584  -1.041   0.000  0.00  0.00    +0.000 C 
ATOM    114  N   UNK A   4       1.368  -0.786   0.000  0.00  0.00    +0.000 NA
ATOM    115  N   UNK A   4      -0.029  -0.489   0.000  0.00  0.00    +0.000 NA
ENDBRANCH 111 112
ENDBRANCH 110 111
ENDBRANCH 109 110
ENDBRANCH  30 109
BRANCH  44 116
ATOM    116  C   UNK A   2       5.194  -1.346   0.000  0.00  0.00    +0.000 C 
BRANCH 116 117
ATOM    117  C   UNK A   2       4.409  -1.601   0.000  0.00  0.00    +0.000 A 
ATOM    118  C   UNK A   2       3.796  -1.049   0.000  0.00  0.00    +0.000 A 
ATOM    119  C   UNK A   2       3.011  -1.304   0.000  0.00  0.00    +0.000 A 
ATOM    120  C   UNK A   2       2.840  -2.111   0.000  0.00  0.00    +0.000 A 
ATOM    121  O   UNK A   2       2.055  -2.366   0.000  0.00  0.00    +0.000 OA
ATOM    122  C   UNK A   2       3.453  -2.663   0.000  0.00  0.00    +0.000 A 
ATOM    123  C   UNK A   2       4.237  -2.408   0.000  0.00  0.00    +0.000 A 
ENDBRANCH 116 117
ENDBRANCH  44 116
TORSDOF 23
