REMARK  Name = 
REMARK  4 active torsions:
REMARK  status: ('A' for Active; 'I' for Inactive)
REMARK    1  A    between atoms: S_2  and  C_5
REMARK    2  A    between atoms: C_8  and  N_12
REMARK    3  A    between atoms: C_15  and  O_19
REMARK    4  A    between atoms: O_19  and  C_20
REMARK                            x       y       z     vdW  Elec       q    Type
REMARK                         _______ _______ _______ _____ _____    ______ ____
ROOT
ATOM      1  N   UNL     1       4.287  -7.425   0.000  0.00  0.00    +0.000 N 
ATOM      2  C   UNL     1       5.001  -7.838   0.000  0.00  0.00    +0.000 A 
ATOM      3  C   UNL     1       5.001  -8.662   0.000  0.00  0.00    +0.000 A 
ATOM      4  C   UNL     1       4.287  -9.075   0.000  0.00  0.00    +0.000 A 
ATOM      5  C   UNL     1       3.572  -8.662   0.000  0.00  0.00    +0.000 A 
ATOM      6  C   UNL     1       3.572  -7.838   0.000  0.00  0.00    +0.000 A 
ATOM      7  O   UNL     1       2.858  -7.425   0.000  0.00  0.00    +0.000 OA
ATOM      8 CL   UNL     1       5.716  -9.075   0.000  0.00  0.00    +0.000 Cl
ENDROOT
BRANCH   1  12
ATOM      9  C   UNL     1       4.287  -4.950   0.000  0.00  0.00    +0.000 A 
ATOM     10  C   UNL     1       5.001  -5.362   0.000  0.00  0.00    +0.000 A 
ATOM     11  C   UNL     1       5.001  -6.188   0.000  0.00  0.00    +0.000 A 
ATOM     12  C   UNL     1       4.287  -6.600   0.000  0.00  0.00    +0.000 A 
ATOM     13  C   UNL     1       3.572  -6.188   0.000  0.00  0.00    +0.000 A 
ATOM     14  C   UNL     1       3.572  -5.362   0.000  0.00  0.00    +0.000 A 
ATOM     15  F   UNL     1       2.858  -6.600   0.000  0.00  0.00    +0.000 F 
BRANCH   9  17
ATOM     16  C   UNL     1       4.287  -3.300   0.000  0.00  0.00    +0.000 C 
ATOM     17  S   UNL     1       4.287  -4.125   0.000  0.00  0.00    +0.000 S 
ATOM     18  O   UNL     1       3.462  -4.125   0.000  0.00  0.00    +0.000 OA
ATOM     19  O   UNL     1       5.112  -4.125   0.000  0.00  0.00    +0.000 OA
ENDBRANCH   9  17
ENDBRANCH   1  12
BRANCH   4  20
ATOM     20  O   UNL     1       4.287  -9.900   0.000  0.00  0.00    +0.000 OA
BRANCH  20  21
ATOM     21  C   UNL     1       3.572 -10.312   0.000  0.00  0.00    +0.000 C 
ATOM     22  C   UNL     1       3.572 -11.137   0.000  0.00  0.00    +0.000 C 
ATOM     23  C   UNL     1       2.858 -11.550   0.000  0.00  0.00    +0.000 C 
ATOM     24  N   UNL     1       2.143 -11.137   0.000  0.00  0.00    +0.000 N 
ATOM     25  C   UNL     1       2.143 -10.312   0.000  0.00  0.00    +0.000 C 
ATOM     26  C   UNL     1       2.858  -9.900   0.000  0.00  0.00    +0.000 C 
ATOM     27  C   UNL     1       1.429 -11.550   0.000  0.00  0.00    +0.000 A 
ATOM     28  N   UNL     1       1.429 -12.375   0.000  0.00  0.00    +0.000 NA
ATOM     29  C   UNL     1       0.715 -12.787   0.000  0.00  0.00    +0.000 A 
ATOM     30  C   UNL     1       0.000 -12.375   0.000  0.00  0.00    +0.000 A 
ATOM     31  C   UNL     1       0.000 -11.550   0.000  0.00  0.00    +0.000 A 
ATOM     32  N   UNL     1       0.715 -11.137   0.000  0.00  0.00    +0.000 NA
ATOM     33 CL   UNL     1      -0.715 -12.787   0.000  0.00  0.00    +0.000 Cl
ENDBRANCH  20  21
ENDBRANCH   4  20
TORSDOF 4
