REMARK  Name = 
REMARK  14 active torsions:
REMARK  status: ('A' for Active; 'I' for Inactive)
REMARK    1  A    between atoms: C_2  and  O_3
REMARK    2  A    between atoms: O_3  and  C_4
REMARK    3  A    between atoms: C_7  and  C_8
REMARK    4  A    between atoms: C_11  and  N_12
REMARK    5  A    between atoms: N_12  and  C_13
REMARK    6  A    between atoms: C_13  and  C_14
REMARK    7  A    between atoms: C_16  and  C_24
REMARK    8  A    between atoms: C_18  and  C_20
REMARK    9  A    between atoms: C_31  and  O_32
REMARK   10  A    between atoms: O_32  and  C_33
REMARK   11  A    between atoms: C_33  and  C_34
REMARK   12  A    between atoms: C_34  and  C_35
REMARK   13  A    between atoms: C_35  and  C_36
REMARK   14  A    between atoms: C_45  and  C_47
REMARK                            x       y       z     vdW  Elec       q    Type
REMARK                         _______ _______ _______ _____ _____    ______ ____
ROOT
ATOM      1  N   UNL     1      -1.429  -3.300   0.000  0.00  0.00    +0.000 N 
ATOM      2  C   UNL     1      -0.715  -3.712   0.000  0.00  0.00    +0.000 A 
ATOM      3  N   UNL     1       0.000  -3.300   0.000  0.00  0.00    +0.000 NA
ATOM      4  C   UNL     1       0.715  -3.712   0.000  0.00  0.00    +0.000 A 
ATOM      5  C   UNL     1       0.715  -4.537   0.000  0.00  0.00    +0.000 A 
ATOM      6  C   UNL     1       0.000  -4.950   0.000  0.00  0.00    +0.000 A 
ATOM      7  N   UNL     1      -0.715  -4.537   0.000  0.00  0.00    +0.000 NA
ENDROOT
BRANCH   1  13
ATOM      8  C   UNL     1      -4.287  -4.950   0.000  0.00  0.00    +0.000 C 
ATOM      9  O   UNL     1      -4.287  -5.775   0.000  0.00  0.00    +0.000 OA
ATOM     10  N   UNL     1      -3.572  -4.537   0.000  0.00  0.00    +0.000 N 
ATOM     11  C   UNL     1      -2.858  -4.950   0.000  0.00  0.00    +0.000 C 
ATOM     12  C   UNL     1      -2.143  -4.537   0.000  0.00  0.00    +0.000 C 
ATOM     13  C   UNL     1      -2.143  -3.712   0.000  0.00  0.00    +0.000 C 
ATOM     14  C   UNL     1      -2.858  -3.300   0.000  0.00  0.00    +0.000 A 
ATOM     15  C   UNL     1      -3.572  -3.712   0.000  0.00  0.00    +0.000 A 
ATOM     16  C   UNL     1      -4.287  -3.300   0.000  0.00  0.00    +0.000 A 
ATOM     17  C   UNL     1      -4.287  -2.475   0.000  0.00  0.00    +0.000 A 
ATOM     18  C   UNL     1      -3.572  -2.062   0.000  0.00  0.00    +0.000 A 
ATOM     19  C   UNL     1      -2.858  -2.475   0.000  0.00  0.00    +0.000 A 
BRANCH  18  20
ATOM     20  C   UNL     1      -3.572  -1.238   0.000  0.00  0.00    +0.000 C 
ATOM     21  F   UNL     1      -3.572  -0.412   0.000  0.00  0.00    +0.000 F 
ATOM     22  F   UNL     1      -2.747  -1.238   0.000  0.00  0.00    +0.000 F 
ATOM     23  F   UNL     1      -4.397  -1.238   0.000  0.00  0.00    +0.000 F 
ENDBRANCH  18  20
BRANCH  11  24
ATOM     24  C   UNL     1      -2.858  -5.775   0.000  0.00  0.00    +0.000 C 
ATOM     25  C   UNL     1      -2.143  -6.188   0.000  0.00  0.00    +0.000 C 
ENDBRANCH  11  24
BRANCH   8  26
ATOM     26  O   UNL     1      -5.001  -4.537   0.000  0.00  0.00    +0.000 OA
BRANCH  26  28
ATOM     27  C   UNL     1      -6.430  -4.537   0.000  0.00  0.00    +0.000 C 
ATOM     28  C   UNL     1      -5.716  -4.950   0.000  0.00  0.00    +0.000 C 
ENDBRANCH  26  28
ENDBRANCH   8  26
ENDBRANCH   1  13
BRANCH   1  29
ATOM     29  C   UNL     1      -1.429  -2.475   0.000  0.00  0.00    +0.000 C 
BRANCH  29  30
ATOM     30  C   UNL     1      -0.715  -2.062   0.000  0.00  0.00    +0.000 A 
ATOM     31  C   UNL     1      -0.715  -1.238   0.000  0.00  0.00    +0.000 A 
ATOM     32  C   UNL     1       0.000  -0.825   0.000  0.00  0.00    +0.000 A 
ATOM     33  C   UNL     1       0.715  -1.238   0.000  0.00  0.00    +0.000 A 
ATOM     34  C   UNL     1       0.715  -2.062   0.000  0.00  0.00    +0.000 A 
ATOM     35  C   UNL     1       0.000  -2.475   0.000  0.00  0.00    +0.000 A 
BRANCH  34  36
ATOM     36  C   UNL     1       1.429  -2.475   0.000  0.00  0.00    +0.000 C 
ATOM     37  F   UNL     1       2.143  -2.888   0.000  0.00  0.00    +0.000 F 
ATOM     38  F   UNL     1       1.016  -3.189   0.000  0.00  0.00    +0.000 F 
ATOM     39  F   UNL     1       1.841  -1.760   0.000  0.00  0.00    +0.000 F 
ENDBRANCH  34  36
BRANCH  32  40
ATOM     40  C   UNL     1       0.000   0.000   0.000  0.00  0.00    +0.000 C 
ATOM     41  F   UNL     1       0.000   0.825   0.000  0.00  0.00    +0.000 F 
ATOM     42  F   UNL     1       0.825   0.000   0.000  0.00  0.00    +0.000 F 
ATOM     43  F   UNL     1      -0.825   0.000   0.000  0.00  0.00    +0.000 F 
ENDBRANCH  32  40
ENDBRANCH  29  30
ENDBRANCH   1  29
BRANCH   5  44
ATOM     44  O   UNL     1       1.429  -4.950   0.000  0.00  0.00    +0.000 OA
BRANCH  44  45
ATOM     45  C   UNL     1       2.143  -4.537   0.000  0.00  0.00    +0.000 C 
BRANCH  45  46
ATOM     46  C   UNL     1       2.858  -4.950   0.000  0.00  0.00    +0.000 C 
BRANCH  46  47
ATOM     47  C   UNL     1       3.572  -4.537   0.000  0.00  0.00    +0.000 C 
BRANCH  47  48
ATOM     48  C   UNL     1       4.287  -4.950   0.000  0.00  0.00    +0.000 C 
ATOM     49  O   UNL     1       5.001  -4.537   0.000  0.00  0.00    +0.000 OA
ATOM     50  O   UNL     1       4.287  -5.775   0.000  0.00  0.00    +0.000 OA
ENDBRANCH  47  48
ENDBRANCH  46  47
ENDBRANCH  45  46
ENDBRANCH  44  45
ENDBRANCH   5  44
TORSDOF 14
