REMARK  Name = 
REMARK  13 active torsions:
REMARK  status: ('A' for Active; 'I' for Inactive)
REMARK    1  A    between atoms: C_2  and  C_3
REMARK    2  A    between atoms: C_2  and  C_18
REMARK    3  A    between atoms: C_3  and  C_4
REMARK    4  A    between atoms: C_4  and  C_5
REMARK    5  A    between atoms: N_7  and  C_8
REMARK    6  A    between atoms: C_8  and  C_9
REMARK    7  A    between atoms: C_8  and  C_11
REMARK    8  A    between atoms: C_9  and  S_10
REMARK    9  A    between atoms: S_10  and  C_21
REMARK   10  A    between atoms: N_13  and  CA_14
REMARK   11  A    between atoms: CA_14  and  C_15
REMARK   12  A    between atoms: C_21  and  C_22
REMARK   13  A    between atoms: C_25  and  N_28
REMARK                            x       y       z     vdW  Elec       q    Type
REMARK                         _______ _______ _______ _____ _____    ______ ____
ROOT
ATOM      1  C   UNK A   1      -0.357  -1.650   0.000  0.00  0.00    +0.000 C 
ENDROOT
BRANCH   1   4
ATOM      2  C   UNK A   1       1.072  -1.650   0.000  0.00  0.00    +0.000 C 
ATOM      3  O   UNK A   1       1.072  -0.825   0.000  0.00  0.00    +0.000 OA
ATOM      4  N   UNK A   1       0.357  -2.062   0.000  0.00  0.00    +0.000 NA
BRANCH   2   5
ATOM      5  C   UNK A   1       1.786  -2.062   0.000  0.00  0.00    +0.000 C 
BRANCH   5   6
ATOM      6  C   UNK A   1       2.501  -1.650   0.000  0.00  0.00    +0.000 C 
BRANCH   6   8
ATOM      7  N   UNK A   1       3.215  -2.887   0.000  0.00  0.00    +0.000 NA
ATOM      8  C   UNK A   1       3.215  -2.062   0.000  0.00  0.00    +0.000 C 
BRANCH   8   9
ATOM      9  C   UNK A   1       3.930  -1.650   0.000  0.00  0.00    +0.000 C 
ATOM     10  O   UNK A   1       3.930  -0.825   0.000  0.00  0.00    +0.000 OA
ATOM     11  O   UNK A   1       4.644  -2.063   0.000  0.00  0.00    +0.000 OA
ENDBRANCH   8   9
ENDBRANCH   6   8
ENDBRANCH   5   6
ENDBRANCH   2   5
ENDBRANCH   1   4
BRANCH   1  12
ATOM     12  C   UNK A   1      -1.072  -2.063   0.000  0.00  0.00    +0.000 C 
ATOM     13  O   UNK A   1      -1.072  -2.888   0.000  0.00  0.00    +0.000 OA
ATOM     14  N   GLY A   2      -1.786  -1.650   0.000  0.00  0.00    +0.000 NA
BRANCH  14  15
ATOM     15  CA  GLY A   2      -2.501  -2.063   0.000  0.00  0.00    +0.000 C 
BRANCH  15  16
ATOM     16  C   GLY A   2      -3.215  -1.650   0.000  0.00  0.00    +0.000 C 
ATOM     17  O   GLY A   2      -3.215  -0.825   0.000  0.00  0.00    +0.000 OA
ATOM     18  OXT GLY A   2      -3.929  -2.063   0.000  0.00  0.00    +0.000 OA
ENDBRANCH  15  16
ENDBRANCH  14  15
ENDBRANCH   1  12
BRANCH   1  19
ATOM     19  C   UNK A   1      -0.357  -0.825   0.000  0.00  0.00    +0.000 C 
BRANCH  19  20
ATOM     20  S   UNK A   1      -1.072  -0.412   0.000  0.00  0.00    +0.000 S 
BRANCH  20  21
ATOM     21  C   UNK A   1      -1.071   0.412   0.000  0.00  0.00    +0.000 C 
BRANCH  21  22
ATOM     22  C   UNK A   1      -1.786   0.825   0.000  0.00  0.00    +0.000 A 
ATOM     23  C   UNK A   1      -2.501   0.413   0.000  0.00  0.00    +0.000 A 
ATOM     24  C   UNK A   1      -3.215   0.825   0.000  0.00  0.00    +0.000 A 
ATOM     25  C   UNK A   1      -3.215   1.650   0.000  0.00  0.00    +0.000 A 
ATOM     26  C   UNK A   1      -2.501   2.063   0.000  0.00  0.00    +0.000 A 
ATOM     27  C   UNK A   1      -1.786   1.650   0.000  0.00  0.00    +0.000 A 
BRANCH  25  28
ATOM     28  N   UNK A   1      -3.929   2.063   0.000  0.00  0.00    +0.000 N 
ATOM     29  O   UNK A   1      -3.929   2.888   0.000  0.00  0.00    +0.000 OA
ATOM     30  O   UNK A   1      -4.644   1.650   0.000  0.00  0.00    +0.000 OA
ENDBRANCH  25  28
ENDBRANCH  21  22
ENDBRANCH  20  21
ENDBRANCH  19  20
ENDBRANCH   1  19
TORSDOF 13
