REMARK  Name = 
REMARK  6 active torsions:
REMARK  status: ('A' for Active; 'I' for Inactive)
REMARK    1  A    between atoms: C_8  and  C_11
REMARK    2  A    between atoms: C_8  and  O_17
REMARK    3  A    between atoms: C_9  and  C_12
REMARK    4  A    between atoms: C_13  and  O_18
REMARK    5  A    between atoms: C_14  and  O_17
REMARK    6  A    between atoms: C_14  and  O_18
REMARK                            x       y       z     vdW  Elec       q    Type
REMARK                         _______ _______ _______ _____ _____    ______ ____
ROOT
ATOM      1  C   UNL     1       2.143  -1.856   0.000  0.00  0.00    +0.000 C 
ATOM      2  C   UNL     1       2.858  -0.619   0.000  0.00  0.00    +0.000 C 
ATOM      3  C   UNL     1       2.858   0.206   0.000  0.00  0.00    +0.000 C 
ATOM      4  C   UNL     1       1.429  -0.619   0.000  0.00  0.00    +0.000 C 
ATOM      5  C   UNL     1       2.143  -1.031   0.000  0.00  0.00    +0.000 C 
ATOM      6  C   UNL     1       2.143   0.619   0.000  0.00  0.00    +0.000 C 
ATOM      7  C   UNL     1       1.429   0.206   0.000  0.00  0.00    +0.000 C 
ENDROOT
BRANCH   6  10
ATOM      8  C   UNL     1       2.858   1.856   0.000  0.00  0.00    +0.000 C 
ATOM      9  C   UNL     1       1.429   1.856   0.000  0.00  0.00    +0.000 C 
ATOM     10  C   UNL     1       2.143   1.444   0.000  0.00  0.00    +0.000 C 
ENDBRANCH   6  10
BRANCH   7  11
ATOM     11  O   UNL     1       0.714   0.619   0.000  0.00  0.00    +0.000 OA
BRANCH  11  12
ATOM     12  C   UNL     1       0.000   0.206   0.000  0.00  0.00    +0.000 C 
ATOM     13  O   UNL     1       0.000  -0.619   0.000  0.00  0.00    +0.000 OA
BRANCH  12  14
ATOM     14  O   UNL     1      -0.714   0.619   0.000  0.00  0.00    +0.000 OA
BRANCH  14  15
ATOM     15  C   UNL     1      -1.429   0.206   0.000  0.00  0.00    +0.000 C 
BRANCH  15  17
ATOM     16  C   UNL     1      -2.858   0.206   0.000  0.00  0.00    +0.000 C 
ATOM     17  C   UNL     1      -2.143   0.619   0.000  0.00  0.00    +0.000 C 
ATOM     18  O   UNL     1      -2.143   1.444   0.000  0.00  0.00    +0.000 OA
ENDBRANCH  15  17
ENDBRANCH  14  15
ENDBRANCH  12  14
ENDBRANCH  11  12
ENDBRANCH   7  11
TORSDOF 6
