REMARK  Name = 
REMARK  5 active torsions:
REMARK  status: ('A' for Active; 'I' for Inactive)
REMARK    1  A    between atoms: C_2  and  C_3
REMARK    2  A    between atoms: C_6  and  C_20
REMARK    3  A    between atoms: C_8  and  C_9
REMARK    4  A    between atoms: C_9  and  C_10
REMARK    5  A    between atoms: C_22  and  C_23
REMARK                            x       y       z     vdW  Elec       q    Type
REMARK                         _______ _______ _______ _____ _____    ______ ____
ROOT
ATOM      1  C   UNL     1      -0.715  -2.888   0.000  0.00  0.00    +0.000 A 
ATOM      2  C   UNL     1      -0.715  -3.712   0.000  0.00  0.00    +0.000 A 
ATOM      3  C   UNL     1      -1.429  -4.125   0.000  0.00  0.00    +0.000 A 
ATOM      4  C   UNL     1      -2.143  -3.712   0.000  0.00  0.00    +0.000 A 
ATOM      5  C   UNL     1      -2.143  -2.888   0.000  0.00  0.00    +0.000 A 
ATOM      6  C   UNL     1      -1.429  -2.475   0.000  0.00  0.00    +0.000 A 
ENDROOT
BRANCH   4   7
ATOM      7  C   UNL     1      -2.858  -4.125   0.000  0.00  0.00    +0.000 C 
ATOM      8  O   UNL     1      -2.858  -4.950   0.000  0.00  0.00    +0.000 OA
ATOM      9  C   UNL     1      -3.572  -5.362   0.000  0.00  0.00    +0.000 C 
ATOM     10  C   UNL     1      -4.287  -4.950   0.000  0.00  0.00    +0.000 C 
ATOM     11  O   UNL     1      -5.001  -5.362   0.000  0.00  0.00    +0.000 OA
ATOM     12  C   UNL     1      -4.287  -4.125   0.000  0.00  0.00    +0.000 C 
ATOM     13  O   UNL     1      -5.001  -3.712   0.000  0.00  0.00    +0.000 OA
ATOM     14  C   UNL     1      -3.572  -3.712   0.000  0.00  0.00    +0.000 C 
ATOM     15  O   UNL     1      -3.572  -2.888   0.000  0.00  0.00    +0.000 OA
BRANCH   9  16
ATOM     16  C   UNL     1      -3.572  -6.188   0.000  0.00  0.00    +0.000 C 
ATOM     17  O   UNL     1      -2.858  -6.600   0.000  0.00  0.00    +0.000 OA
ENDBRANCH   9  16
ENDBRANCH   4   7
BRANCH   1  19
ATOM     18  C   UNL     1       0.715  -2.888   0.000  0.00  0.00    +0.000 C 
ATOM     19  C   UNL     1       0.000  -2.475   0.000  0.00  0.00    +0.000 C 
ENDBRANCH   1  19
BRANCH   6  20
ATOM     20  C   UNL     1      -1.429  -1.650   0.000  0.00  0.00    +0.000 C 
BRANCH  20  21
ATOM     21  C   UNL     1      -0.715  -1.238   0.000  0.00  0.00    +0.000 A 
ATOM     22  C   UNL     1       0.000  -1.650   0.000  0.00  0.00    +0.000 A 
ATOM     23  C   UNL     1       0.715  -1.238   0.000  0.00  0.00    +0.000 A 
ATOM     24  C   UNL     1       0.715  -0.412   0.000  0.00  0.00    +0.000 A 
ATOM     25  O   UNL     1       1.429   0.000   0.000  0.00  0.00    +0.000 OA
ATOM     26  C   UNL     1       2.143  -0.412   0.000  0.00  0.00    +0.000 C 
ATOM     27  C   UNL     1       2.143  -1.238   0.000  0.00  0.00    +0.000 C 
ATOM     28  O   UNL     1       1.429  -1.650   0.000  0.00  0.00    +0.000 OA
ATOM     29  C   UNL     1       0.000   0.000   0.000  0.00  0.00    +0.000 A 
ATOM     30  C   UNL     1      -0.715  -0.412   0.000  0.00  0.00    +0.000 A 
ENDBRANCH  20  21
ENDBRANCH   6  20
TORSDOF 5
