REMARK  Name = 
REMARK  3 active torsions:
REMARK  status: ('A' for Active; 'I' for Inactive)
REMARK    1  A    between atoms: C_2  and  C_3
REMARK    2  A    between atoms: C_25  and  C_26
REMARK    3  A    between atoms: C_26  and  N_27
REMARK                            x       y       z     vdW  Elec       q    Type
REMARK                         _______ _______ _______ _____ _____    ______ ____
ROOT
ATOM      1  C   UNL     1       6.938   1.178   0.000  0.00  0.00    +0.000 C 
ATOM      2  C   UNL     1       6.429   0.529   0.000  0.00  0.00    +0.000 A 
ATOM      3  C   UNL     1       5.612   0.646   0.000  0.00  0.00    +0.000 A 
ATOM      4  C   UNL     1       5.103  -0.003   0.000  0.00  0.00    +0.000 A 
ATOM      5  N   UNL     1       5.410  -0.769   0.000  0.00  0.00    +0.000 N 
ATOM      6  C   UNL     1       6.227  -0.885   0.000  0.00  0.00    +0.000 A 
ATOM      7  O   UNL     1       6.534  -1.651   0.000  0.00  0.00    +0.000 OA
ATOM      8  C   UNL     1       6.736  -0.236   0.000  0.00  0.00    +0.000 A 
ATOM      9  C   UNL     1       7.553  -0.353   0.000  0.00  0.00    +0.000 C 
ATOM     10  O   UNL     1       8.062   0.296   0.000  0.00  0.00    +0.000 OA
ATOM     11  C   UNL     1       7.755   1.062   0.000  0.00  0.00    +0.000 C 
ATOM     12  O   UNL     1       8.264   1.710   0.000  0.00  0.00    +0.000 OA
ATOM     13  C   UNL     1       4.777  -1.298   0.000  0.00  0.00    +0.000 C 
ATOM     14  C   UNL     1       4.078  -0.859   0.000  0.00  0.00    +0.000 A 
ATOM     15  C   UNL     1       4.279  -0.059   0.000  0.00  0.00    +0.000 A 
ATOM     16  N   UNL     1       3.687   0.515   0.000  0.00  0.00    +0.000 NA
ATOM     17  C   UNL     1       2.894   0.289   0.000  0.00  0.00    +0.000 A 
ATOM     18  C   UNL     1       2.301   0.864   0.000  0.00  0.00    +0.000 A 
ATOM     19  C   UNL     1       1.508   0.638   0.000  0.00  0.00    +0.000 A 
ATOM     20  C   UNL     1       1.307  -0.162   0.000  0.00  0.00    +0.000 A 
ATOM     21  C   UNL     1       1.899  -0.736   0.000  0.00  0.00    +0.000 A 
ATOM     22  C   UNL     1       2.692  -0.510   0.000  0.00  0.00    +0.000 A 
ATOM     23  C   UNL     1       3.285  -1.085   0.000  0.00  0.00    +0.000 A 
ATOM     24  O   UNL     1       0.513  -0.388   0.000  0.00  0.00    +0.000 OA
ATOM     25  C   UNL     1      -0.079   0.187   0.000  0.00  0.00    +0.000 C 
ATOM     26  C   UNL     1       0.122   0.987   0.000  0.00  0.00    +0.000 C 
ATOM     27  O   UNL     1       0.916   1.213   0.000  0.00  0.00    +0.000 OA
ATOM     28  O   UNL     1       6.210   1.567   0.000  0.00  0.00    +0.000 OA
ENDROOT
BRANCH   1  30
ATOM     29  C   UNL     1       6.644   2.576   0.000  0.00  0.00    +0.000 C 
ATOM     30  C   UNL     1       7.195   1.962   0.000  0.00  0.00    +0.000 C 
ENDBRANCH   1  30
BRANCH  23  31
ATOM     31  C   UNL     1       3.083  -1.885   0.000  0.00  0.00    +0.000 C 
BRANCH  31  32
ATOM     32  N   UNL     1       2.290  -2.111   0.000  0.00  0.00    +0.000 NA
ATOM     33  C   UNL     1       2.088  -2.911   0.000  0.00  0.00    +0.000 C 
ATOM     34  C   UNL     1       1.295  -3.136   0.000  0.00  0.00    +0.000 C 
ATOM     35  N   UNL     1       0.703  -2.562   0.000  0.00  0.00    +0.000 NA
ATOM     36  C   UNL     1       0.904  -1.762   0.000  0.00  0.00    +0.000 C 
ATOM     37  C   UNL     1       1.698  -1.536   0.000  0.00  0.00    +0.000 C 
ATOM     38  C   UNL     1      -0.091  -2.788   0.000  0.00  0.00    +0.000 C 
ENDBRANCH  31  32
ENDBRANCH  23  31
TORSDOF 3
