REMARK  Name = 
REMARK  5 active torsions:
REMARK  status: ('A' for Active; 'I' for Inactive)
REMARK    1  A    between atoms: C_1  and  C_4
REMARK    2  A    between atoms: C_9  and  O_10
REMARK    3  A    between atoms: O_10  and  C_11
REMARK    4  A    between atoms: C_11  and  C_12
REMARK    5  A    between atoms: C_12  and  N_13
REMARK                            x       y       z     vdW  Elec       q    Type
REMARK                         _______ _______ _______ _____ _____    ______ ____
ROOT
ATOM      1  C   UNL     1       1.897   1.001   0.000  0.00  0.00    +0.000 A 
ATOM      2  C   UNL     1       1.485   0.293   0.000  0.00  0.00    +0.000 A 
ATOM      3  C   UNL     1       1.460   1.748   0.000  0.00  0.00    +0.000 A 
ATOM      4  C   UNL     1       0.635   0.293   0.000  0.00  0.00    +0.000 A 
ATOM      5  C   UNL     1       0.635   1.748   0.000  0.00  0.00    +0.000 A 
ATOM      6  C   UNL     1       0.222   1.001   0.000  0.00  0.00    +0.000 A 
ENDROOT
BRANCH   1   7
ATOM      7  C   UNL     1       2.722   1.001   0.000  0.00  0.00    +0.000 C 
ATOM      8  O   UNL     1       3.156   0.293   0.000  0.00  0.00    +0.000 OA
ATOM      9  O   UNL     1       3.135   1.748   0.000  0.00  0.00    +0.000 OA
ENDBRANCH   1   7
BRANCH   6  10
ATOM     10  O   UNL     1      -0.621   1.001   0.000  0.00  0.00    +0.000 OA
BRANCH  10  11
ATOM     11  C   UNL     1      -1.033   0.293   0.000  0.00  0.00    +0.000 C 
BRANCH  11  12
ATOM     12  C   UNL     1      -1.858   0.293   0.000  0.00  0.00    +0.000 C 
BRANCH  12  13
ATOM     13  N   UNL     1      -2.271  -0.418   0.000  0.00  0.00    +0.000 N 
ATOM     14  C   UNL     1      -1.858  -1.165   0.000  0.00  0.00    +0.000 A 
ATOM     15  C   UNL     1      -3.078  -0.599   0.000  0.00  0.00    +0.000 A 
ATOM     16  C   UNL     1      -2.413  -1.748   0.000  0.00  0.00    +0.000 A 
ATOM     17  N   UNL     1      -3.156  -1.438   0.000  0.00  0.00    +0.000 NA
ENDBRANCH  12  13
ENDBRANCH  11  12
ENDBRANCH  10  11
ENDBRANCH   6  10
TORSDOF 5
