REMARK  Name = 
REMARK  49 active torsions:
REMARK  status: ('A' for Active; 'I' for Inactive)
REMARK    1  A    between atoms: C_1  and  C_2
REMARK    2  A    between atoms: C_1  and  C_13
REMARK    3  A    between atoms: C_2  and  C_3
REMARK    4  A    between atoms: C_3  and  C_4
REMARK    5  A    between atoms: C_4  and  C_5
REMARK    6  A    between atoms: C_5  and  C_6
REMARK    7  A    between atoms: C_6  and  C_7
REMARK    8  A    between atoms: C_7  and  C_8
REMARK    9  A    between atoms: C_8  and  C_9
REMARK   10  A    between atoms: C_9  and  C_10
REMARK   11  A    between atoms: C_10  and  C_11
REMARK   12  A    between atoms: C_13  and  C_14
REMARK   13  A    between atoms: C_15  and  C_16
REMARK   14  A    between atoms: C_16  and  C_18
REMARK   15  A    between atoms: C_18  and  N_19
REMARK   16  A    between atoms: C_18  and  C_39
REMARK   17  A    between atoms: C_20  and  C_22
REMARK   18  A    between atoms: C_22  and  C_23
REMARK   19  A    between atoms: C_23  and  C_24
REMARK   20  A    between atoms: C_24  and  C_25
REMARK   21  A    between atoms: C_25  and  C_26
REMARK   22  A    between atoms: C_26  and  C_27
REMARK   23  A    between atoms: C_27  and  C_28
REMARK   24  A    between atoms: C_28  and  C_29
REMARK   25  A    between atoms: C_29  and  C_30
REMARK   26  A    between atoms: C_30  and  C_31
REMARK   27  A    between atoms: C_31  and  C_32
REMARK   28  A    between atoms: C_32  and  C_33
REMARK   29  A    between atoms: C_33  and  C_34
REMARK   30  A    between atoms: C_34  and  C_35
REMARK   31  A    between atoms: C_35  and  C_36
REMARK   32  A    between atoms: C_36  and  C_37
REMARK   33  A    between atoms: C_39  and  O_40
REMARK   34  A    between atoms: O_40  and  C_41
REMARK   35  A    between atoms: C_43  and  C_44
REMARK   36  A    between atoms: C_46  and  O_47
REMARK   37  A    between atoms: O_47  and  C_48
REMARK   38  A    between atoms: C_50  and  C_51
REMARK   39  A    between atoms: C_53  and  O_54
REMARK   40  A    between atoms: O_54  and  C_55
REMARK   41  A    between atoms: C_57  and  C_58
REMARK   42  A    between atoms: C_62  and  O_63
REMARK   43  A    between atoms: O_63  and  C_64
REMARK   44  A    between atoms: C_66  and  C_67
REMARK   45  A    between atoms: C_75  and  N_76
REMARK   46  A    between atoms: C_86  and  N_87
REMARK   47  A    between atoms: C_91  and  C_92
REMARK   48  A    between atoms: C_92  and  C_94
REMARK   49  A    between atoms: C_94  and  C_95
REMARK                            x       y       z     vdW  Elec       q    Type
REMARK                         _______ _______ _______ _____ _____    ______ ____
ROOT
ATOM      1  C   UNL     1      -2.887  -2.501   0.000  0.00  0.00    +0.000 C 
ATOM      2  O   UNL     1      -3.300  -1.786   0.000  0.00  0.00    +0.000 OA
ATOM      3  C   UNL     1      -4.125  -1.786   0.000  0.00  0.00    +0.000 C 
ATOM      4  C   UNL     1      -4.537  -2.501   0.000  0.00  0.00    +0.000 C 
ATOM      5  C   UNL     1      -4.125  -3.215   0.000  0.00  0.00    +0.000 C 
ATOM      6  O   UNL     1      -4.537  -3.929   0.000  0.00  0.00    +0.000 OA
ATOM      7  C   UNL     1      -4.125  -4.644   0.000  0.00  0.00    +0.000 C 
ATOM      8  C   UNL     1      -3.712  -5.358   0.000  0.00  0.00    +0.000 C 
ATOM      9  C   UNL     1      -4.125  -6.073   0.000  0.00  0.00    +0.000 C 
ATOM     10  O   UNL     1      -3.712  -6.787   0.000  0.00  0.00    +0.000 OA
ATOM     11  C   UNL     1      -4.950  -6.073   0.000  0.00  0.00    +0.000 C 
ATOM     12  C   UNL     1      -5.362  -5.358   0.000  0.00  0.00    +0.000 C 
ATOM     13  O   UNL     1      -4.950  -4.644   0.000  0.00  0.00    +0.000 OA
ATOM     14  C   UNL     1      -3.300  -4.644   0.000  0.00  0.00    +0.000 C 
ATOM     15  O   UNL     1      -2.887  -3.929   0.000  0.00  0.00    +0.000 OA
ATOM     16  C   UNL     1      -3.300  -3.215   0.000  0.00  0.00    +0.000 C 
ATOM     17  O   UNL     1      -2.887  -5.358   0.000  0.00  0.00    +0.000 OA
ENDROOT
BRANCH  11  18
ATOM     18  N   UNL     1      -5.362  -6.787   0.000  0.00  0.00    +0.000 NA
ATOM     19  C   UNL     1      -4.950  -7.502   0.000  0.00  0.00    +0.000 C 
ATOM     20  O   UNL     1      -5.362  -8.216   0.000  0.00  0.00    +0.000 OA
ATOM     21  C   UNL     1      -4.125  -7.502   0.000  0.00  0.00    +0.000 C 
ENDBRANCH  11  18
BRANCH   3  22
ATOM     22  C   UNL     1      -4.537  -1.072   0.000  0.00  0.00    +0.000 C 
ATOM     23  O   UNL     1      -4.125  -0.357   0.000  0.00  0.00    +0.000 OA
ENDBRANCH   3  22
BRANCH  12  24
ATOM     24  C   UNL     1      -5.994  -5.889   0.000  0.00  0.00    +0.000 C 
ATOM     25  O   UNL     1      -6.069  -6.745   0.000  0.00  0.00    +0.000 OA
BRANCH  24  26
ATOM     26  C   UNL     1      -6.770  -5.607   0.000  0.00  0.00    +0.000 C 
ATOM     27  O   UNL     1      -6.913  -4.794   0.000  0.00  0.00    +0.000 OA
BRANCH  26  28
ATOM     28  C   UNL     1      -7.402  -6.137   0.000  0.00  0.00    +0.000 C 
ATOM     29  O   UNL     1      -8.177  -5.855   0.000  0.00  0.00    +0.000 OA
ENDBRANCH  26  28
ENDBRANCH  24  26
ENDBRANCH  12  24
BRANCH   1  30
ATOM     30  O   UNL     1      -2.062  -2.501   0.000  0.00  0.00    +0.000 OA
BRANCH  30  34
ATOM     31  C   UNL     1      -0.825  -0.357   0.000  0.00  0.00    +0.000 C 
ATOM     32  O   UNL     1      -0.412  -1.072   0.000  0.00  0.00    +0.000 OA
ATOM     33  C   UNL     1      -0.825  -1.786   0.000  0.00  0.00    +0.000 C 
ATOM     34  C   UNL     1      -1.650  -1.786   0.000  0.00  0.00    +0.000 C 
ATOM     35  C   UNL     1      -2.062  -1.072   0.000  0.00  0.00    +0.000 C 
ATOM     36  O   UNL     1      -2.887  -1.072   0.000  0.00  0.00    +0.000 OA
ATOM     37  C   UNL     1      -1.650  -0.357   0.000  0.00  0.00    +0.000 C 
ATOM     38  O   UNL     1      -2.062   0.357   0.000  0.00  0.00    +0.000 OA
BRANCH  33  39
ATOM     39  C   UNL     1      -0.412  -2.501   0.000  0.00  0.00    +0.000 C 
ATOM     40  O   UNL     1       0.412  -2.501   0.000  0.00  0.00    +0.000 OA
ENDBRANCH  33  39
BRANCH  31  41
ATOM     41  O   UNL     1      -0.412   0.357   0.000  0.00  0.00    +0.000 OA
BRANCH  41  42
ATOM     42  C   UNL     1       0.412   0.357   0.000  0.00  0.00    +0.000 C 
BRANCH  42  43
ATOM     43  C   UNL     1       0.825   1.072   0.000  0.00  0.00    +0.000 C 
BRANCH  43  44
ATOM     44  N   UNL     1       0.412   1.786   0.000  0.00  0.00    +0.000 NA
ATOM     45  C   UNL     1      -0.412   1.786   0.000  0.00  0.00    +0.000 C 
ATOM     46  O   UNL     1      -0.825   1.072   0.000  0.00  0.00    +0.000 OA
BRANCH  45  47
ATOM     47  C   UNL     1      -0.825   2.501   0.000  0.00  0.00    +0.000 C 
BRANCH  47  48
ATOM     48  C   UNL     1      -1.650   2.501   0.000  0.00  0.00    +0.000 C 
BRANCH  48  49
ATOM     49  C   UNL     1      -2.062   3.215   0.000  0.00  0.00    +0.000 C 
BRANCH  49  50
ATOM     50  C   UNL     1      -2.887   3.215   0.000  0.00  0.00    +0.000 C 
BRANCH  50  51
ATOM     51  C   UNL     1      -3.300   3.930   0.000  0.00  0.00    +0.000 C 
BRANCH  51  52
ATOM     52  C   UNL     1      -4.125   3.930   0.000  0.00  0.00    +0.000 C 
BRANCH  52  53
ATOM     53  C   UNL     1      -4.537   4.644   0.000  0.00  0.00    +0.000 C 
BRANCH  53  54
ATOM     54  C   UNL     1      -5.362   4.644   0.000  0.00  0.00    +0.000 C 
BRANCH  54  55
ATOM     55  C   UNL     1      -5.775   5.359   0.000  0.00  0.00    +0.000 C 
BRANCH  55  56
ATOM     56  C   UNL     1      -6.600   5.359   0.000  0.00  0.00    +0.000 C 
BRANCH  56  57
ATOM     57  C   UNL     1      -7.013   6.073   0.000  0.00  0.00    +0.000 C 
BRANCH  57  58
ATOM     58  C   UNL     1      -7.838   6.073   0.000  0.00  0.00    +0.000 C 
BRANCH  58  59
ATOM     59  C   UNL     1      -8.250   6.787   0.000  0.00  0.00    +0.000 C 
BRANCH  59  60
ATOM     60  C   UNL     1      -9.075   6.787   0.000  0.00  0.00    +0.000 C 
BRANCH  60  61
ATOM     61  C   UNL     1      -9.488   7.502   0.000  0.00  0.00    +0.000 C 
BRANCH  61  62
ATOM     62  C   UNL     1     -10.312   7.502   0.000  0.00  0.00    +0.000 C 
ATOM     63  C   UNL     1     -10.725   8.216   0.000  0.00  0.00    +0.000 C 
ENDBRANCH  61  62
ENDBRANCH  60  61
ENDBRANCH  59  60
ENDBRANCH  58  59
ENDBRANCH  57  58
ENDBRANCH  56  57
ENDBRANCH  55  56
ENDBRANCH  54  55
ENDBRANCH  53  54
ENDBRANCH  52  53
ENDBRANCH  51  52
ENDBRANCH  50  51
ENDBRANCH  49  50
ENDBRANCH  48  49
ENDBRANCH  47  48
ENDBRANCH  45  47
ENDBRANCH  43  44
BRANCH  43  64
ATOM     64  C   UNL     1       1.650   1.072   0.000  0.00  0.00    +0.000 C 
ATOM     65  O   UNL     1       2.062   0.357   0.000  0.00  0.00    +0.000 OA
BRANCH  64  67
ATOM     66  C   UNL     1       2.888   1.786   0.000  0.00  0.00    +0.000 C 
ATOM     67  C   UNL     1       2.062   1.786   0.000  0.00  0.00    +0.000 C 
BRANCH  66  68
ATOM     68  C   UNL     1       3.300   2.501   0.000  0.00  0.00    +0.000 C 
BRANCH  68  69
ATOM     69  C   UNL     1       4.125   2.501   0.000  0.00  0.00    +0.000 C 
BRANCH  69  70
ATOM     70  C   UNL     1       4.537   3.215   0.000  0.00  0.00    +0.000 C 
BRANCH  70  71
ATOM     71  C   UNL     1       5.362   3.215   0.000  0.00  0.00    +0.000 C 
BRANCH  71  72
ATOM     72  C   UNL     1       5.775   3.930   0.000  0.00  0.00    +0.000 C 
BRANCH  72  73
ATOM     73  C   UNL     1       6.600   3.930   0.000  0.00  0.00    +0.000 C 
BRANCH  73  74
ATOM     74  C   UNL     1       7.013   4.644   0.000  0.00  0.00    +0.000 C 
BRANCH  74  75
ATOM     75  C   UNL     1       7.838   4.644   0.000  0.00  0.00    +0.000 C 
BRANCH  75  76
ATOM     76  C   UNL     1       8.250   5.359   0.000  0.00  0.00    +0.000 C 
BRANCH  76  77
ATOM     77  C   UNL     1       9.075   5.359   0.000  0.00  0.00    +0.000 C 
BRANCH  77  78
ATOM     78  C   UNL     1       9.488   6.073   0.000  0.00  0.00    +0.000 C 
BRANCH  78  79
ATOM     79  C   UNL     1      10.312   6.073   0.000  0.00  0.00    +0.000 C 
ATOM     80  C   UNL     1      10.725   6.787   0.000  0.00  0.00    +0.000 C 
ENDBRANCH  78  79
ENDBRANCH  77  78
ENDBRANCH  76  77
ENDBRANCH  75  76
ENDBRANCH  74  75
ENDBRANCH  73  74
ENDBRANCH  72  73
ENDBRANCH  71  72
ENDBRANCH  70  71
ENDBRANCH  69  70
ENDBRANCH  68  69
ENDBRANCH  66  68
ENDBRANCH  64  67
ENDBRANCH  43  64
ENDBRANCH  42  43
ENDBRANCH  41  42
ENDBRANCH  31  41
ENDBRANCH  30  34
ENDBRANCH   1  30
BRANCH   4  81
ATOM     81  O   UNL     1      -5.362  -2.501   0.000  0.00  0.00    +0.000 OA
BRANCH  81  82
ATOM     82  C   UNL     1      -5.645  -1.725   0.000  0.00  0.00    +0.000 C 
ATOM     83  O   UNL     1      -5.114  -1.093   0.000  0.00  0.00    +0.000 OA
ATOM     84  C   UNL     1      -5.396  -0.318   0.000  0.00  0.00    +0.000 C 
ATOM     85  C   UNL     1      -6.209  -0.175   0.000  0.00  0.00    +0.000 C 
ATOM     86  O   UNL     1      -6.491   0.600   0.000  0.00  0.00    +0.000 OA
ATOM     87  C   UNL     1      -6.739  -0.807   0.000  0.00  0.00    +0.000 C 
ATOM     88  C   UNL     1      -6.457  -1.582   0.000  0.00  0.00    +0.000 C 
BRANCH  88  89
ATOM     89  N   UNL     1      -6.987  -2.214   0.000  0.00  0.00    +0.000 NA
ATOM     90  C   UNL     1      -7.800  -2.071   0.000  0.00  0.00    +0.000 C 
ATOM     91  O   UNL     1      -8.330  -2.703   0.000  0.00  0.00    +0.000 OA
ATOM     92  C   UNL     1      -8.082  -1.296   0.000  0.00  0.00    +0.000 C 
ENDBRANCH  88  89
BRANCH  84  93
ATOM     93  C   UNL     1      -4.866   0.314   0.000  0.00  0.00    +0.000 C 
ATOM     94  O   UNL     1      -4.054   0.171   0.000  0.00  0.00    +0.000 OA
ENDBRANCH  84  93
BRANCH  87  95
ATOM     95  O   UNL     1      -7.552  -0.663   0.000  0.00  0.00    +0.000 OA
BRANCH  95  96
ATOM     96  C   UNL     1      -7.834   0.112   0.000  0.00  0.00    +0.000 C 
ATOM     97  O   UNL     1      -7.304   0.744   0.000  0.00  0.00    +0.000 OA
ATOM     98  C   UNL     1      -7.586   1.519   0.000  0.00  0.00    +0.000 C 
ATOM     99  C   UNL     1      -8.398   1.662   0.000  0.00  0.00    +0.000 C 
ATOM    100  O   UNL     1      -8.680   2.437   0.000  0.00  0.00    +0.000 OA
ATOM    101  C   UNL     1      -8.929   1.030   0.000  0.00  0.00    +0.000 C 
ATOM    102  O   UNL     1      -9.741   1.173   0.000  0.00  0.00    +0.000 OA
ATOM    103  C   UNL     1      -8.646   0.255   0.000  0.00  0.00    +0.000 C 
ATOM    104  O   UNL     1      -9.177  -0.377   0.000  0.00  0.00    +0.000 OA
BRANCH  98 105
ATOM    105  C   UNL     1      -7.055   2.151   0.000  0.00  0.00    +0.000 C 
ATOM    106  O   UNL     1      -7.338   2.926   0.000  0.00  0.00    +0.000 OA
ENDBRANCH  98 105
ENDBRANCH  95  96
ENDBRANCH  87  95
ENDBRANCH  81  82
ENDBRANCH   4  81
TORSDOF 49
