REMARK  Name = 
REMARK  13 active torsions:
REMARK  status: ('A' for Active; 'I' for Inactive)
REMARK    1  A    between atoms: C_1  and  N_2
REMARK    2  A    between atoms: C_7  and  C_13
REMARK    3  A    between atoms: C_13  and  O_16
REMARK    4  A    between atoms: O_16  and  P_17
REMARK    5  A    between atoms: P_17  and  O_18
REMARK    6  A    between atoms: O_18  and  P_21
REMARK    7  A    between atoms: P_21  and  O_25
REMARK    8  A    between atoms: O_25  and  C_26
REMARK    9  A    between atoms: C_26  and  C_29
REMARK   10  A    between atoms: C_27  and  C_32
REMARK   11  A    between atoms: C_29  and  C_32
REMARK   12  A    between atoms: C_32  and  O_33
REMARK   13  A    between atoms: O_33  and  P_36
REMARK                            x       y       z     vdW  Elec       q    Type
REMARK                         _______ _______ _______ _____ _____    ______ ____
ROOT
ATOM      1  P   UNL     1      -0.664  -0.759   0.000  0.00  0.00    +0.000 P 
ATOM      2  O   UNL     1      -0.668  -1.581   0.000  0.00  0.00    +0.000 OA
ATOM      3  O   UNL     1      -0.668   0.062   0.000  0.00  0.00    +0.000 OA
ENDROOT
BRANCH   1   4
ATOM      4  O   UNL     1      -1.486  -0.759   0.000  0.00  0.00    +0.000 OA
BRANCH   4   5
ATOM      5  P   UNL     1      -2.307  -0.756   0.000  0.00  0.00    +0.000 P 
ATOM      6  O   UNL     1      -2.314  -1.577   0.000  0.00  0.00    +0.000 OA
ATOM      7  O   UNL     1      -2.314   0.004   0.000  0.00  0.00    +0.000 OA
BRANCH   5   8
ATOM      8  O   UNL     1      -3.132  -0.756   0.000  0.00  0.00    +0.000 OA
BRANCH   8   9
ATOM      9  C   UNL     1      -3.846  -0.343   0.000  0.00  0.00    +0.000 C 
BRANCH   9  10
ATOM     10  C   UNL     1      -4.561  -0.756   0.000  0.00  0.00    +0.000 C 
ATOM     11  O   UNL     1      -4.561  -1.581   0.000  0.00  0.00    +0.000 OA
BRANCH  10  13
ATOM     12  C   UNL     1      -5.859   0.240   0.000  0.00  0.00    +0.000 C 
ATOM     13  C   UNL     1      -5.275  -0.343   0.000  0.00  0.00    +0.000 C 
BRANCH  13  14
ATOM     14  C   UNL     1      -5.990  -0.756   0.000  0.00  0.00    +0.000 C 
ATOM     15  O   UNL     1      -5.990  -1.581   0.000  0.00  0.00    +0.000 OA
ENDBRANCH  13  14
BRANCH  13  16
ATOM     16  O   UNL     1      -4.692   0.240   0.000  0.00  0.00    +0.000 OA
BRANCH  16  19
ATOM     17  O   UNL     1      -3.867   1.065   0.000  0.00  0.00    +0.000 OA
ATOM     18  O   UNL     1      -5.517   1.065   0.000  0.00  0.00    +0.000 OA
ATOM     19  P   UNL     1      -4.692   1.065   0.000  0.00  0.00    +0.000 P 
ATOM     20  O   UNL     1      -4.692   1.890   0.000  0.00  0.00    +0.000 OA
ENDBRANCH  16  19
ENDBRANCH  13  16
ENDBRANCH  10  13
ENDBRANCH   9  10
ENDBRANCH   8   9
ENDBRANCH   5   8
ENDBRANCH   4   5
ENDBRANCH   1   4
BRANCH   1  21
ATOM     21  O   UNL     1       0.157  -0.759   0.000  0.00  0.00    +0.000 OA
BRANCH  21  22
ATOM     22  C   UNL     1       0.742  -0.185   0.000  0.00  0.00    +0.000 C 
BRANCH  22  26
ATOM     23  C   UNL     1       2.841  -0.419   0.000  0.00  0.00    +0.000 C 
ATOM     24  O   UNL     1       2.199   0.052   0.000  0.00  0.00    +0.000 OA
ATOM     25  C   UNL     1       2.601  -1.227   0.000  0.00  0.00    +0.000 C 
ATOM     26  C   UNL     1       1.528  -0.440   0.000  0.00  0.00    +0.000 C 
ATOM     27  C   UNL     1       1.772  -1.227   0.000  0.00  0.00    +0.000 C 
ATOM     28  O   UNL     1       3.085  -1.890   0.000  0.00  0.00    +0.000 OA
ATOM     29  O   UNL     1       1.284  -1.887   0.000  0.00  0.00    +0.000 OA
BRANCH  23  30
ATOM     30  N   UNL     1       3.632  -0.161   0.000  0.00  0.00    +0.000 N 
ATOM     31  C   UNL     1       4.251  -0.711   0.000  0.00  0.00    +0.000 A 
ATOM     32  C   UNL     1       3.804   0.646   0.000  0.00  0.00    +0.000 A 
ATOM     33  N   UNL     1       5.038  -0.450   0.000  0.00  0.00    +0.000 NA
ATOM     34  O   UNL     1       4.086  -1.515   0.000  0.00  0.00    +0.000 OA
ATOM     35  C   UNL     1       4.580   0.911   0.000  0.00  0.00    +0.000 A 
ATOM     36  C   UNL     1       5.206   0.358   0.000  0.00  0.00    +0.000 A 
ATOM     37  N   UNL     1       5.990   0.616   0.000  0.00  0.00    +0.000 NA
ENDBRANCH  23  30
ENDBRANCH  22  26
ENDBRANCH  21  22
ENDBRANCH   1  21
TORSDOF 13
