REMARK  Name = 
REMARK  6 active torsions:
REMARK  status: ('A' for Active; 'I' for Inactive)
REMARK    1  A    between atoms: O_2  and  C_3
REMARK    2  A    between atoms: C_3  and  C_5
REMARK    3  A    between atoms: C_5  and  N_6
REMARK    4  A    between atoms: C_5  and  C_19
REMARK    5  A    between atoms: C_13  and  O_14
REMARK    6  A    between atoms: O_14  and  C_15
REMARK                            x       y       z     vdW  Elec       q    Type
REMARK                         _______ _______ _______ _____ _____    ______ ____
ROOT
ATOM      1  N   UNL     1       3.352   1.935   0.000  0.00  0.00    +0.000 NA
ATOM      2  C   UNL     1       3.352   1.110   0.000  0.00  0.00    +0.000 C 
ATOM      3  C   UNL     1       2.638   0.698   0.000  0.00  0.00    +0.000 C 
ATOM      4  C   UNL     1       1.923   1.110   0.000  0.00  0.00    +0.000 A 
ATOM      5  C   UNL     1       1.923   1.935   0.000  0.00  0.00    +0.000 A 
ATOM      6  C   UNL     1       2.638   2.348   0.000  0.00  0.00    +0.000 C 
ATOM      7  C   UNL     1       1.139   2.190   0.000  0.00  0.00    +0.000 A 
ATOM      8  C   UNL     1       0.654   1.523   0.000  0.00  0.00    +0.000 A 
ATOM      9  S   UNL     1       1.139   0.856   0.000  0.00  0.00    +0.000 S 
ENDROOT
BRANCH   1  10
ATOM     10  C   UNL     1       4.067   2.348   0.000  0.00  0.00    +0.000 C 
BRANCH  10  11
ATOM     11  C   UNL     1       4.781   1.935   0.000  0.00  0.00    +0.000 A 
ATOM     12  C   UNL     1       5.496   2.348   0.000  0.00  0.00    +0.000 A 
ATOM     13 CL   UNL     1       5.496   3.173   0.000  0.00  0.00    +0.000 Cl
ATOM     14  C   UNL     1       6.210   1.935   0.000  0.00  0.00    +0.000 A 
ATOM     15  C   UNL     1       6.210   1.110   0.000  0.00  0.00    +0.000 A 
ATOM     16  C   UNL     1       5.496   0.698   0.000  0.00  0.00    +0.000 A 
ATOM     17  C   UNL     1       4.781   1.110   0.000  0.00  0.00    +0.000 A 
ENDBRANCH  10  11
BRANCH  10  18
ATOM     18  C   UNL     1       4.067   3.173   0.000  0.00  0.00    +0.000 C 
ATOM     19  O   UNL     1       4.781   3.585   0.000  0.00  0.00    +0.000 OA
BRANCH  18  21
ATOM     20  C   UNL     1       2.638   3.173   0.000  0.00  0.00    +0.000 C 
ATOM     21  O   UNL     1       3.352   3.585   0.000  0.00  0.00    +0.000 OA
ENDBRANCH  18  21
ENDBRANCH  10  18
ENDBRANCH   1  10
BRANCH   8  22
ATOM     22  O   UNL     1      -0.171   1.523   0.000  0.00  0.00    +0.000 OA
BRANCH  22  23
ATOM     23  C   UNL     1      -0.584   0.808   0.000  0.00  0.00    +0.000 C 
ATOM     24  C   UNL     1      -1.409   0.808   0.000  0.00  0.00    +0.000 C 
ATOM     25  O   UNL     1      -0.171   0.094   0.000  0.00  0.00    +0.000 OA
ENDBRANCH  22  23
ENDBRANCH   8  22
TORSDOF 6
