REMARK  Name = 
REMARK  22 active torsions:
REMARK  status: ('A' for Active; 'I' for Inactive)
REMARK    1  A    between atoms: C_1  and  N_20
REMARK    2  A    between atoms: C_3  and  C_17
REMARK    3  A    between atoms: C_5  and  C_8
REMARK    4  A    between atoms: N_9  and  C_10
REMARK    5  A    between atoms: C_10  and  C_11
REMARK    6  A    between atoms: C_11  and  C_12
REMARK    7  A    between atoms: N_20  and  C_21
REMARK    8  A    between atoms: C_21  and  C_22
REMARK    9  A    between atoms: C_22  and  C_23
REMARK   10  A    between atoms: C_23  and  N_24
REMARK   11  A    between atoms: N_24  and  C_25
REMARK   12  A    between atoms: C_27  and  C_34
REMARK   13  A    between atoms: C_29  and  C_32
REMARK   14  A    between atoms: N_35  and  C_36
REMARK   15  A    between atoms: C_36  and  C_37
REMARK   16  A    between atoms: C_37  and  C_38
REMARK   17  A    between atoms: N_50  and  C_51
REMARK   18  A    between atoms: C_51  and  C_52
REMARK   19  A    between atoms: C_52  and  C_53
REMARK   20  A    between atoms: N_56  and  C_58
REMARK   21  A    between atoms: C_58  and  C_59
REMARK   22  A    between atoms: C_59  and  C_60
REMARK                            x       y       z     vdW  Elec       q    Type
REMARK                         _______ _______ _______ _____ _____    ______ ____
ROOT
ATOM      1  C   UNL     1       0.003  -1.030   0.000  0.00  0.00    +0.000 C 
ATOM      2  O   UNL     1       0.003  -1.857   0.000  0.00  0.00    +0.000 OA
ENDROOT
BRANCH   1   3
ATOM      3  C   UNL     1       0.717  -0.617   0.000  0.00  0.00    +0.000 C 
BRANCH   3   4
ATOM      4  N   UNL     1       1.431  -1.030   0.000  0.00  0.00    +0.000 N 
ATOM      5  C   UNL     1       1.431  -1.857   0.000  0.00  0.00    +0.000 C 
ATOM      6  O   UNL     1       0.717  -2.266   0.000  0.00  0.00    +0.000 OA
ATOM      7  C   UNL     1       2.146  -2.266   0.000  0.00  0.00    +0.000 C 
BRANCH   4   8
ATOM      8  C   UNL     1       2.146  -0.617   0.000  0.00  0.00    +0.000 A 
ATOM      9  C   UNL     1       2.146   0.209   0.000  0.00  0.00    +0.000 A 
ATOM     10  C   UNL     1       2.860   0.618   0.000  0.00  0.00    +0.000 A 
ATOM     11  C   UNL     1       3.574   0.209   0.000  0.00  0.00    +0.000 A 
ATOM     12  C   UNL     1       3.574  -0.617   0.000  0.00  0.00    +0.000 A 
ATOM     13  C   UNL     1       2.860  -1.030   0.000  0.00  0.00    +0.000 A 
ATOM     14  I   UNL     1       2.860  -1.857   0.000  0.00  0.00    +0.000 I 
ATOM     15  I   UNL     1       4.288   0.618   0.000  0.00  0.00    +0.000 I 
ATOM     16  I   UNL     1       1.431   0.618   0.000  0.00  0.00    +0.000 I 
BRANCH  12  17
ATOM     17  C   UNL     1       4.288  -1.030   0.000  0.00  0.00    +0.000 C 
ATOM     18  N   UNL     1       4.287  -1.855   0.000  0.00  0.00    +0.000 NA
ATOM     19  O   UNL     1       5.003  -0.619   0.000  0.00  0.00    +0.000 OA
BRANCH  18  20
ATOM     20  C   UNL     1       5.001  -2.269   0.000  0.00  0.00    +0.000 C 
BRANCH  20  21
ATOM     21  C   UNL     1       5.001  -3.094   0.000  0.00  0.00    +0.000 C 
ATOM     22  O   UNL     1       4.286  -3.506   0.000  0.00  0.00    +0.000 OA
BRANCH  21  23
ATOM     23  C   UNL     1       5.715  -3.507   0.000  0.00  0.00    +0.000 C 
ATOM     24  O   UNL     1       5.714  -4.332   0.000  0.00  0.00    +0.000 OA
ENDBRANCH  21  23
ENDBRANCH  20  21
ENDBRANCH  18  20
ENDBRANCH  12  17
BRANCH  10  25
ATOM     25  C   UNL     1       2.860   1.444   0.000  0.00  0.00    +0.000 C 
ATOM     26  N   UNL     1       3.574   1.857   0.000  0.00  0.00    +0.000 NA
ATOM     27  O   UNL     1       2.146   1.857   0.000  0.00  0.00    +0.000 OA
BRANCH  26  28
ATOM     28  C   UNL     1       3.574   2.683   0.000  0.00  0.00    +0.000 C 
BRANCH  28  29
ATOM     29  C   UNL     1       4.288   3.097   0.000  0.00  0.00    +0.000 C 
ATOM     30  O   UNL     1       5.002   2.683   0.000  0.00  0.00    +0.000 OA
BRANCH  29  31
ATOM     31  C   UNL     1       4.288   3.918   0.000  0.00  0.00    +0.000 C 
ATOM     32  O   UNL     1       5.002   4.332   0.000  0.00  0.00    +0.000 OA
ENDBRANCH  29  31
ENDBRANCH  28  29
ENDBRANCH  26  28
ENDBRANCH  10  25
ENDBRANCH   4   8
ENDBRANCH   3   4
ENDBRANCH   1   3
BRANCH   1  33
ATOM     33  C   UNL     1      -0.715  -0.617   0.000  0.00  0.00    +0.000 C 
BRANCH  33  34
ATOM     34  N   UNL     1      -1.429  -1.030   0.000  0.00  0.00    +0.000 N 
ATOM     35  C   UNL     1      -1.429  -1.857   0.000  0.00  0.00    +0.000 C 
ATOM     36  O   UNL     1      -0.715  -2.266   0.000  0.00  0.00    +0.000 OA
ATOM     37  C   UNL     1      -2.143  -2.266   0.000  0.00  0.00    +0.000 C 
BRANCH  34  38
ATOM     38  C   UNL     1      -2.143  -0.617   0.000  0.00  0.00    +0.000 A 
ATOM     39  C   UNL     1      -2.857  -1.030   0.000  0.00  0.00    +0.000 A 
ATOM     40  C   UNL     1      -3.571  -0.617   0.000  0.00  0.00    +0.000 A 
ATOM     41  C   UNL     1      -3.571   0.209   0.000  0.00  0.00    +0.000 A 
ATOM     42  C   UNL     1      -2.857   0.618   0.000  0.00  0.00    +0.000 A 
ATOM     43  C   UNL     1      -2.143   0.209   0.000  0.00  0.00    +0.000 A 
ATOM     44  I   UNL     1      -1.429   0.618   0.000  0.00  0.00    +0.000 I 
ATOM     45  I   UNL     1      -4.286   0.618   0.000  0.00  0.00    +0.000 I 
ATOM     46  I   UNL     1      -2.857  -1.857   0.000  0.00  0.00    +0.000 I 
BRANCH  42  47
ATOM     47  C   UNL     1      -2.857   1.444   0.000  0.00  0.00    +0.000 C 
ATOM     48  N   UNL     1      -3.571   1.857   0.000  0.00  0.00    +0.000 NA
ATOM     49  O   UNL     1      -2.143   1.857   0.000  0.00  0.00    +0.000 OA
BRANCH  48  50
ATOM     50  C   UNL     1      -3.571   2.683   0.000  0.00  0.00    +0.000 C 
BRANCH  50  51
ATOM     51  C   UNL     1      -4.286   3.097   0.000  0.00  0.00    +0.000 C 
ATOM     52  O   UNL     1      -5.000   2.683   0.000  0.00  0.00    +0.000 OA
BRANCH  51  53
ATOM     53  C   UNL     1      -4.286   3.918   0.000  0.00  0.00    +0.000 C 
ATOM     54  O   UNL     1      -5.000   4.332   0.000  0.00  0.00    +0.000 OA
ENDBRANCH  51  53
ENDBRANCH  50  51
ENDBRANCH  48  50
ENDBRANCH  42  47
BRANCH  40  55
ATOM     55  C   UNL     1      -4.286  -1.030   0.000  0.00  0.00    +0.000 C 
ATOM     56  O   UNL     1      -5.000  -0.617   0.000  0.00  0.00    +0.000 OA
ATOM     57  N   UNL     1      -4.286  -1.855   0.000  0.00  0.00    +0.000 NA
BRANCH  57  58
ATOM     58  C   UNL     1      -5.000  -2.268   0.000  0.00  0.00    +0.000 C 
BRANCH  58  59
ATOM     59  C   UNL     1      -5.000  -3.093   0.000  0.00  0.00    +0.000 C 
ATOM     60  O   UNL     1      -4.286  -3.506   0.000  0.00  0.00    +0.000 OA
BRANCH  59  61
ATOM     61  C   UNL     1      -5.715  -3.506   0.000  0.00  0.00    +0.000 C 
ATOM     62  O   UNL     1      -5.715  -4.330   0.000  0.00  0.00    +0.000 OA
ENDBRANCH  59  61
ENDBRANCH  58  59
ENDBRANCH  57  58
ENDBRANCH  40  55
ENDBRANCH  34  38
ENDBRANCH  33  34
ENDBRANCH   1  33
TORSDOF 22
