REMARK  Name = 
REMARK  7 active torsions:
REMARK  status: ('A' for Active; 'I' for Inactive)
REMARK    1  A    between atoms: C_4  and  C_5
REMARK    2  A    between atoms: C_11  and  N_14
REMARK    3  A    between atoms: C_17  and  O_20
REMARK    4  A    between atoms: O_20  and  C_21
REMARK    5  A    between atoms: C_21  and  C_22
REMARK    6  A    between atoms: C_23  and  C_35
REMARK    7  A    between atoms: C_26  and  C_27
REMARK                            x       y       z     vdW  Elec       q    Type
REMARK                         _______ _______ _______ _____ _____    ______ ____
ROOT
ATOM      1  N   UNL     1       2.784   0.127   0.000  0.00  0.00    +0.000 N 
ATOM      2  C   UNL     1       2.784   0.952   0.000  0.00  0.00    +0.000 C 
ATOM      3  C   UNL     1       3.499   1.365   0.000  0.00  0.00    +0.000 C 
ATOM      4  C   UNL     1       4.213   0.952   0.000  0.00  0.00    +0.000 C 
ATOM      5  C   UNL     1       4.213   0.127   0.000  0.00  0.00    +0.000 C 
ATOM      6  C   UNL     1       3.499  -0.285   0.000  0.00  0.00    +0.000 C 
ENDROOT
BRANCH   1  14
ATOM      7  C   UNL     1      -0.398   0.754   0.000  0.00  0.00    +0.000 C 
ATOM      8  N   UNL     1      -0.143  -0.030   0.000  0.00  0.00    +0.000 N 
ATOM      9  C   UNL     1      -0.628  -0.698   0.000  0.00  0.00    +0.000 A 
ATOM     10  C   UNL     1      -0.143  -1.365   0.000  0.00  0.00    +0.000 A 
ATOM     11  C   UNL     1       0.641  -1.110   0.000  0.00  0.00    +0.000 A 
ATOM     12  C   UNL     1       0.641  -0.285   0.000  0.00  0.00    +0.000 A 
ATOM     13  C   UNL     1       1.356   0.127   0.000  0.00  0.00    +0.000 A 
ATOM     14  C   UNL     1       2.070  -0.285   0.000  0.00  0.00    +0.000 A 
ATOM     15  C   UNL     1       2.070  -1.110   0.000  0.00  0.00    +0.000 A 
ATOM     16  C   UNL     1       1.356  -1.523   0.000  0.00  0.00    +0.000 A 
BRANCH  10  17
ATOM     17  C   UNL     1      -0.398  -2.150   0.000  0.00  0.00    +0.000 C 
ATOM     18  O   UNL     1      -1.205  -2.321   0.000  0.00  0.00    +0.000 OA
ATOM     19  O   UNL     1       0.154  -2.763   0.000  0.00  0.00    +0.000 OA
ENDBRANCH  10  17
ENDBRANCH   1  14
BRANCH   4  20
ATOM     20  O   UNL     1       4.928   1.365   0.000  0.00  0.00    +0.000 OA
BRANCH  20  21
ATOM     21  C   UNL     1       5.642   0.952   0.000  0.00  0.00    +0.000 C 
BRANCH  21  22
ATOM     22  C   UNL     1       6.357   1.365   0.000  0.00  0.00    +0.000 A 
ATOM     23  C   UNL     1       6.443   2.185   0.000  0.00  0.00    +0.000 A 
ATOM     24  O   UNL     1       7.250   2.357   0.000  0.00  0.00    +0.000 OA
ATOM     25  N   UNL     1       7.663   1.642   0.000  0.00  0.00    +0.000 NA
ATOM     26  C   UNL     1       7.111   1.029   0.000  0.00  0.00    +0.000 A 
BRANCH  26  27
ATOM     27  C   UNL     1       7.282   0.222   0.000  0.00  0.00    +0.000 A 
ATOM     28  C   UNL     1       8.067  -0.033   0.000  0.00  0.00    +0.000 A 
ATOM     29 CL   UNL     1       8.680   0.519   0.000  0.00  0.00    +0.000 Cl
ATOM     30  C   UNL     1       8.238  -0.840   0.000  0.00  0.00    +0.000 A 
ATOM     31  C   UNL     1       7.625  -1.392   0.000  0.00  0.00    +0.000 A 
ATOM     32  C   UNL     1       6.840  -1.137   0.000  0.00  0.00    +0.000 A 
ATOM     33  C   UNL     1       6.669  -0.330   0.000  0.00  0.00    +0.000 A 
ATOM     34 CL   UNL     1       5.884  -0.075   0.000  0.00  0.00    +0.000 Cl
ENDBRANCH  26  27
BRANCH  23  35
ATOM     35  C   UNL     1       5.830   2.737   0.000  0.00  0.00    +0.000 C 
ATOM     36  C   UNL     1       5.023   2.909   0.000  0.00  0.00    +0.000 C 
ATOM     37  C   UNL     1       5.575   3.522   0.000  0.00  0.00    +0.000 C 
ENDBRANCH  23  35
ENDBRANCH  21  22
ENDBRANCH  20  21
ENDBRANCH   4  20
TORSDOF 7
