REMARK  Name = 
REMARK  4 active torsions:
REMARK  status: ('A' for Active; 'I' for Inactive)
REMARK    1  A    between atoms: C_6  and  C_9
REMARK    2  A    between atoms: C_7  and  C_9
REMARK    3  A    between atoms: C_7  and  O_13
REMARK    4  A    between atoms: C_10  and  O_13
REMARK                            x       y       z     vdW  Elec       q    Type
REMARK                         _______ _______ _______ _____ _____    ______ ____
ROOT
ATOM      1  C   UNL     1       6.430   0.412   0.000  0.00  0.00    +0.000 C 
ATOM      2  C   UNL     1       7.145   2.475   0.000  0.00  0.00    +0.000 A 
ATOM      3  C   UNL     1       6.430   2.888   0.000  0.00  0.00    +0.000 A 
ATOM      4  C   UNL     1       7.145   1.650   0.000  0.00  0.00    +0.000 A 
ATOM      5  C   UNL     1       5.716   2.475   0.000  0.00  0.00    +0.000 A 
ATOM      6  C   UNL     1       6.430   1.238   0.000  0.00  0.00    +0.000 A 
ATOM      7  C   UNL     1       5.716   1.650   0.000  0.00  0.00    +0.000 A 
ENDROOT
BRANCH   7   8
ATOM      8  O   UNL     1       5.001   1.238   0.000  0.00  0.00    +0.000 OA
BRANCH   8   9
ATOM      9  C   UNL     1       4.287   1.650   0.000  0.00  0.00    +0.000 C 
BRANCH   9  10
ATOM     10  C   UNL     1       3.572   1.238   0.000  0.00  0.00    +0.000 C 
ATOM     11  O   UNL     1       3.572   0.412   0.000  0.00  0.00    +0.000 OA
BRANCH  10  12
ATOM     12  C   UNL     1       2.858   1.650   0.000  0.00  0.00    +0.000 C 
ATOM     13  O   UNL     1       2.143   1.238   0.000  0.00  0.00    +0.000 OA
ENDBRANCH  10  12
ENDBRANCH   9  10
ENDBRANCH   8   9
ENDBRANCH   7   8
TORSDOF 4
