REMARK  Name = 
REMARK  5 active torsions:
REMARK  status: ('A' for Active; 'I' for Inactive)
REMARK    1  A    between atoms: C_1  and  C_2
REMARK    2  A    between atoms: C_1  and  C_5
REMARK    3  A    between atoms: C_5  and  C_6
REMARK    4  A    between atoms: C_5  and  C_8
REMARK    5  A    between atoms: C_8  and  C_9
REMARK                            x       y       z     vdW  Elec       q    Type
REMARK                         _______ _______ _______ _____ _____    ______ ____
ROOT
ATOM      1  C   UNL     1      -0.344   0.809   0.000  0.00  0.00    +0.000 C 
ENDROOT
BRANCH   1   2
ATOM      2  C   UNL     1      -1.050   1.237   0.000  0.00  0.00    +0.000 C 
ATOM      3  N   UNL     1      -1.773   0.841   0.000  0.00  0.00    +0.000 NA
ENDBRANCH   1   2
BRANCH   1   4
ATOM      4  C   UNL     1       0.379   1.206   0.000  0.00  0.00    +0.000 C 
BRANCH   4   5
ATOM      5  C   UNL     1       1.108   0.763   0.000  0.00  0.00    +0.000 C 
ATOM      6  O   UNL     1       1.791   1.206   0.000  0.00  0.00    +0.000 OA
ATOM      7  O   UNL     1       1.108  -0.051   0.000  0.00  0.00    +0.000 OA
ENDBRANCH   4   5
ENDBRANCH   1   4
BRANCH   1   8
ATOM      8  C   UNL     1      -0.363  -0.016   0.000  0.00  0.00    +0.000 C 
BRANCH   8   9
ATOM      9  C   UNL     1      -1.086  -0.412   0.000  0.00  0.00    +0.000 C 
ATOM     10  C   UNL     1      -1.791   0.016   0.000  0.00  0.00    +0.000 C 
ATOM     11  C   UNL     1      -1.104  -1.237   0.000  0.00  0.00    +0.000 C 
ENDBRANCH   8   9
ENDBRANCH   1   8
TORSDOF 5
