REMARK  Name = 
REMARK  16 active torsions:
REMARK  status: ('A' for Active; 'I' for Inactive)
REMARK    1  A    between atoms: C_21  and  C_22
REMARK    2  A    between atoms: C_21  and  C_27
REMARK    3  A    between atoms: C_22  and  C_30
REMARK    4  A    between atoms: C_23  and  C_24
REMARK    5  A    between atoms: C_23  and  C_30
REMARK    6  A    between atoms: C_24  and  S_43
REMARK    7  A    between atoms: C_25  and  C_28
REMARK    8  A    between atoms: C_25  and  C_32
REMARK    9  A    between atoms: C_26  and  C_29
REMARK   10  A    between atoms: C_26  and  O_41
REMARK   11  A    between atoms: C_30  and  N_35
REMARK   12  A    between atoms: C_31  and  O_42
REMARK   13  A    between atoms: C_32  and  C_33
REMARK   14  A    between atoms: C_32  and  N_36
REMARK   15  A    between atoms: C_34  and  O_41
REMARK   16  A    between atoms: O_42  and  S_43
REMARK                            x       y       z     vdW  Elec       q    Type
REMARK                         _______ _______ _______ _____ _____    ______ ____
ROOT
ATOM      1  C   UNL     1       0.354  -0.825   0.000  0.00  0.00    +0.000 C 
ATOM      2  N   UNL     1      -0.361  -1.235   0.000  0.00  0.00    +0.000 NA
ATOM      3  O   UNL     1       0.356   0.000   0.000  0.00  0.00    +0.000 OA
ENDROOT
BRANCH   2   4
ATOM      4  C   UNL     1      -1.075  -0.821   0.000  0.00  0.00    +0.000 C 
BRANCH   4   5
ATOM      5  C   UNL     1      -1.072   0.004   0.000  0.00  0.00    +0.000 C 
BRANCH   5   6
ATOM      6  C   UNL     1      -0.356   0.415   0.000  0.00  0.00    +0.000 C 
BRANCH   6   9
ATOM      7  O   UNL     1      -1.179   1.242   0.000  0.00  0.00    +0.000 OA
ATOM      8  O   UNL     1       0.471   1.237   0.000  0.00  0.00    +0.000 OA
ATOM      9  S   UNL     1      -0.354   1.240   0.000  0.00  0.00    +0.000 S 
BRANCH   9  10
ATOM     10  O   UNL     1      -0.352   2.064   0.000  0.00  0.00    +0.000 OA
BRANCH  10  16
ATOM     11  C   UNL     1       1.795   3.304   0.000  0.00  0.00    +0.000 A 
ATOM     12  C   UNL     1       1.079   3.714   0.000  0.00  0.00    +0.000 A 
ATOM     13  C   UNL     1       1.795   2.475   0.000  0.00  0.00    +0.000 A 
ATOM     14  C   UNL     1       0.364   3.304   0.000  0.00  0.00    +0.000 A 
ATOM     15  C   UNL     1       1.079   2.056   0.000  0.00  0.00    +0.000 A 
ATOM     16  C   UNL     1       0.364   2.475   0.000  0.00  0.00    +0.000 A 
ENDBRANCH  10  16
ENDBRANCH   9  10
ENDBRANCH   6   9
ENDBRANCH   5   6
ENDBRANCH   4   5
BRANCH   4  17
ATOM     17  C   UNL     1      -1.790  -1.231   0.000  0.00  0.00    +0.000 C 
BRANCH  17  18
ATOM     18  C   UNL     1      -2.503  -0.816   0.000  0.00  0.00    +0.000 C 
BRANCH  18  24
ATOM     19  C   UNL     1      -4.650  -2.056   0.000  0.00  0.00    +0.000 A 
ATOM     20  C   UNL     1      -3.935  -2.466   0.000  0.00  0.00    +0.000 A 
ATOM     21  C   UNL     1      -4.650  -1.227   0.000  0.00  0.00    +0.000 A 
ATOM     22  C   UNL     1      -3.219  -2.056   0.000  0.00  0.00    +0.000 A 
ATOM     23  C   UNL     1      -3.935  -0.808   0.000  0.00  0.00    +0.000 A 
ATOM     24  C   UNL     1      -3.219  -1.227   0.000  0.00  0.00    +0.000 A 
ENDBRANCH  18  24
ENDBRANCH  17  18
ENDBRANCH   4  17
ENDBRANCH   2   4
BRANCH   1  25
ATOM     25  C   UNL     1       1.067  -1.239   0.000  0.00  0.00    +0.000 C 
BRANCH  25  27
ATOM     26  C   UNL     1       1.785  -0.004   0.000  0.00  0.00    +0.000 C 
ATOM     27  N   UNL     1       1.783  -0.829   0.000  0.00  0.00    +0.000 NA
ATOM     28  O   UNL     1       1.072   0.410   0.000  0.00  0.00    +0.000 OA
BRANCH  26  29
ATOM     29  O   UNL     1       2.501   0.406   0.000  0.00  0.00    +0.000 OA
BRANCH  29  30
ATOM     30  C   UNL     1       2.503   1.231   0.000  0.00  0.00    +0.000 C 
BRANCH  30  36
ATOM     31  C   UNL     1       4.650   2.470   0.000  0.00  0.00    +0.000 A 
ATOM     32  C   UNL     1       3.935   2.881   0.000  0.00  0.00    +0.000 A 
ATOM     33  C   UNL     1       4.650   1.641   0.000  0.00  0.00    +0.000 A 
ATOM     34  C   UNL     1       3.219   2.470   0.000  0.00  0.00    +0.000 A 
ATOM     35  C   UNL     1       3.935   1.222   0.000  0.00  0.00    +0.000 A 
ATOM     36  C   UNL     1       3.219   1.641   0.000  0.00  0.00    +0.000 A 
ENDBRANCH  30  36
ENDBRANCH  29  30
ENDBRANCH  26  29
ENDBRANCH  25  27
BRANCH  25  37
ATOM     37  C   UNL     1       1.065  -2.064   0.000  0.00  0.00    +0.000 C 
BRANCH  37  43
ATOM     38  C   UNL     1      -1.082  -3.304   0.000  0.00  0.00    +0.000 A 
ATOM     39  C   UNL     1      -0.366  -3.714   0.000  0.00  0.00    +0.000 A 
ATOM     40  C   UNL     1      -1.082  -2.475   0.000  0.00  0.00    +0.000 A 
ATOM     41  C   UNL     1       0.349  -3.304   0.000  0.00  0.00    +0.000 A 
ATOM     42  C   UNL     1      -0.366  -2.056   0.000  0.00  0.00    +0.000 A 
ATOM     43  C   UNL     1       0.349  -2.475   0.000  0.00  0.00    +0.000 A 
ENDBRANCH  37  43
ENDBRANCH  25  37
ENDBRANCH   1  25
TORSDOF 16
