REMARK  Name = 
REMARK  0 active torsions:
REMARK  status: ('A' for Active; 'I' for Inactive)
REMARK                            x       y       z     vdW  Elec       q    Type
REMARK                         _______ _______ _______ _____ _____    ______ ____
ROOT
ATOM      1  C   UNL     1      -0.714   1.238   0.000  0.00  0.00    +0.000 C 
ATOM      2  C   UNL     1       0.000   0.825   0.000  0.00  0.00    +0.000 A 
ATOM      3  C   UNL     1       0.714   1.237   0.000  0.00  0.00    +0.000 A 
ATOM      4  C   UNL     1       1.429   0.825   0.000  0.00  0.00    +0.000 A 
ATOM      5  N   UNL     1       2.143   1.238   0.000  0.00  0.00    +0.000 NA
ATOM      6  C   UNL     1       1.429   0.000   0.000  0.00  0.00    +0.000 A 
ATOM      7  N   UNL     1       2.143  -0.412   0.000  0.00  0.00    +0.000 NA
ATOM      8  C   UNL     1       0.714  -0.412   0.000  0.00  0.00    +0.000 A 
ATOM      9  C   UNL     1       0.000   0.000   0.000  0.00  0.00    +0.000 A 
ATOM     10  C   UNL     1      -0.715  -0.412   0.000  0.00  0.00    +0.000 C 
ENDROOT
TORSDOF 0
