REMARK  Name = 
REMARK  2 active torsions:
REMARK  status: ('A' for Active; 'I' for Inactive)
REMARK    1  A    between atoms: C_6  and  C_7
REMARK    2  A    between atoms: C_7  and  C_9
REMARK                            x       y       z     vdW  Elec       q    Type
REMARK                         _______ _______ _______ _____ _____    ______ ____
ROOT
ATOM      1  C   UNL     1      -0.143  -1.365   0.000  0.00  0.00    +0.000 A 
ATOM      2  C   UNL     1       0.641  -1.110   0.000  0.00  0.00    +0.000 A 
ATOM      3  C   UNL     1       0.641  -0.285   0.000  0.00  0.00    +0.000 A 
ATOM      4  S   UNL     1      -0.143  -0.030   0.000  0.00  0.00    +0.000 S 
ATOM      5  C   UNL     1      -0.628  -0.698   0.000  0.00  0.00    +0.000 A 
ATOM      6  N   UNL     1      -1.453  -0.698   0.000  0.00  0.00    +0.000 NA
ATOM      7  C   UNL     1       1.356   0.127   0.000  0.00  0.00    +0.000 C 
ATOM      8  C   UNL     1       2.070  -0.285   0.000  0.00  0.00    +0.000 C 
ATOM      9  C   UNL     1       2.070  -1.110   0.000  0.00  0.00    +0.000 C 
ATOM     10  C   UNL     1       1.356  -1.523   0.000  0.00  0.00    +0.000 C 
ENDROOT
BRANCH   1  11
ATOM     11  C   UNL     1      -0.398  -2.150   0.000  0.00  0.00    +0.000 C 
ATOM     12  O   UNL     1       0.154  -2.763   0.000  0.00  0.00    +0.000 OA
BRANCH  11  18
ATOM     13  C   UNL     1      -1.460  -3.106   0.000  0.00  0.00    +0.000 A 
ATOM     14  C   UNL     1      -2.267  -3.278   0.000  0.00  0.00    +0.000 A 
ATOM     15  C   UNL     1      -2.819  -2.665   0.000  0.00  0.00    +0.000 A 
ATOM     16  C   UNL     1      -2.564  -1.880   0.000  0.00  0.00    +0.000 A 
ATOM     17  C   UNL     1      -1.758  -1.708   0.000  0.00  0.00    +0.000 A 
ATOM     18  C   UNL     1      -1.205  -2.321   0.000  0.00  0.00    +0.000 A 
ATOM     19 CL   UNL     1      -3.626  -2.836   0.000  0.00  0.00    +0.000 Cl
ENDBRANCH  11  18
ENDBRANCH   1  11
TORSDOF 2
