REMARK  Name = 
REMARK  1 active torsions:
REMARK  status: ('A' for Active; 'I' for Inactive)
REMARK    1  A    between atoms: C_9  and  O_10
REMARK                            x       y       z     vdW  Elec       q    Type
REMARK                         _______ _______ _______ _____ _____    ______ ____
ROOT
ATOM      1  O   UNL     1      -1.429   0.619   0.000  0.00  0.00    +0.000 OA
ATOM      2  C   UNL     1      -0.715   0.206   0.000  0.00  0.00    +0.000 C 
ATOM      3  C   UNL     1      -0.715  -0.619   0.000  0.00  0.00    +0.000 C 
ATOM      4  O   UNL     1      -1.429  -1.031   0.000  0.00  0.00    +0.000 OA
ATOM      5  C   UNL     1       0.000  -1.031   0.000  0.00  0.00    +0.000 C 
ATOM      6  O   UNL     1       0.000  -1.856   0.000  0.00  0.00    +0.000 OA
ATOM      7  C   UNL     1       0.715  -0.619   0.000  0.00  0.00    +0.000 C 
ATOM      8  O   UNL     1       0.715   0.206   0.000  0.00  0.00    +0.000 OA
ATOM      9  C   UNL     1       0.000   0.619   0.000  0.00  0.00    +0.000 C 
ATOM     10  C   UNL     1       1.429  -1.031   0.000  0.00  0.00    +0.000 C 
ENDROOT
BRANCH   9  11
ATOM     11  O   UNL     1       0.000   1.444   0.000  0.00  0.00    +0.000 OA
ATOM     12  C   UNL     1      -0.715   1.856   0.000  0.00  0.00    +0.000 C 
ENDBRANCH   9  11
TORSDOF 1
