REMARK  Name = 
REMARK  7 active torsions:
REMARK  status: ('A' for Active; 'I' for Inactive)
REMARK    1  A    between atoms: C_1  and  C_4
REMARK    2  A    between atoms: C_2  and  O_12
REMARK    3  A    between atoms: N_9  and  C_14
REMARK    4  A    between atoms: N_13  and  C_15
REMARK    5  A    between atoms: N_13  and  C_16
REMARK    6  A    between atoms: N_13  and  C_17
REMARK    7  A    between atoms: C_14  and  C_15
REMARK                            x       y       z     vdW  Elec       q    Type
REMARK                         _______ _______ _______ _____ _____    ______ ____
ROOT
ATOM      1  C   UNL     1      -1.426   0.204   0.000  0.00  0.00    +0.000 A 
ATOM      2  C   UNL     1      -1.428  -0.617   0.000  0.00  0.00    +0.000 A 
ATOM      3  C   UNL     1      -2.138   0.612   0.000  0.00  0.00    +0.000 A 
ATOM      4  C   UNL     1      -2.143  -1.030   0.000  0.00  0.00    +0.000 A 
ATOM      5  C   UNL     1      -2.852   0.199   0.000  0.00  0.00    +0.000 A 
ATOM      6  C   UNL     1      -2.855  -0.621   0.000  0.00  0.00    +0.000 A 
ATOM      7  N   UNL     1      -3.569  -1.034   0.000  0.00  0.00    +0.000 NA
ATOM      8 CL   UNL     1      -3.567   0.612   0.000  0.00  0.00    +0.000 Cl
ENDROOT
BRANCH   1   9
ATOM      9  C   UNL     1      -0.711   0.616   0.000  0.00  0.00    +0.000 C 
ATOM     10  O   UNL     1      -0.713   1.434   0.000  0.00  0.00    +0.000 OA
ATOM     11  N   UNL     1      -0.004   0.205   0.000  0.00  0.00    +0.000 NA
BRANCH  11  12
ATOM     12  C   UNL     1       0.711   0.618   0.000  0.00  0.00    +0.000 C 
BRANCH  12  13
ATOM     13  C   UNL     1       1.425   0.205   0.000  0.00  0.00    +0.000 C 
BRANCH  13  14
ATOM     14  N   UNL     1       2.140   0.617   0.000  0.00  0.00    +0.000 NA
BRANCH  14  15
ATOM     15  C   UNL     1       2.854   0.204   0.000  0.00  0.00    +0.000 C 
ATOM     16  C   UNL     1       3.569   0.617   0.000  0.00  0.00    +0.000 C 
ENDBRANCH  14  15
BRANCH  14  17
ATOM     17  C   UNL     1       2.139   1.443   0.000  0.00  0.00    +0.000 C 
ATOM     18  C   UNL     1       2.854   1.855   0.000  0.00  0.00    +0.000 C 
ENDBRANCH  14  17
ENDBRANCH  13  14
ENDBRANCH  12  13
ENDBRANCH  11  12
ENDBRANCH   1   9
BRANCH   2  19
ATOM     19  O   UNL     1      -0.713  -1.030   0.000  0.00  0.00    +0.000 OA
ATOM     20  C   UNL     1      -0.713  -1.855   0.000  0.00  0.00    +0.000 C 
ENDBRANCH   2  19
TORSDOF 7
