REMARK  Name = 
REMARK  3 active torsions:
REMARK  status: ('A' for Active; 'I' for Inactive)
REMARK    1  A    between atoms: P_1  and  O_5
REMARK    2  A    between atoms: O_5  and  C_18
REMARK    3  A    between atoms: C_16  and  C_18
REMARK                            x       y       z     vdW  Elec       q    Type
REMARK                         _______ _______ _______ _____ _____    ______ ____
ROOT
ATOM      1  O   UNL     1       0.536  -0.559   0.000  0.00  0.00    +0.000 OA
ATOM      2  O   UNL     1      -1.583  -0.814   0.000  0.00  0.00    +0.000 OA
ATOM      3  O   UNL     1      -1.028   0.893   0.000  0.00  0.00    +0.000 OA
ATOM      4  O   UNL     1       1.321  -1.274   0.000  0.00  0.00    +0.000 OA
ATOM      5  O   UNL     1      -1.028  -2.981   0.000  0.00  0.00    +0.000 OA
ATOM      6  N   UNL     1      -0.798  -1.529   0.000  0.00  0.00    +0.000 N 
ATOM      7  N   UNL     1       0.281  -2.314   0.000  0.00  0.00    +0.000 N 
ATOM      8  C   UNL     1      -0.131  -1.044   0.000  0.00  0.00    +0.000 C 
ATOM      9  C   UNL     1      -0.798  -0.559   0.000  0.00  0.00    +0.000 C 
ATOM     10  C   UNL     1      -0.543   0.225   0.000  0.00  0.00    +0.000 C 
ATOM     11  C   UNL     1       0.281   0.225   0.000  0.00  0.00    +0.000 C 
ATOM     12  C   UNL     1       0.536  -1.529   0.000  0.00  0.00    +0.000 C 
ATOM     13  C   UNL     1      -0.543  -2.314   0.000  0.00  0.00    +0.000 C 
ATOM     14  H   UNL     1      -1.285  -1.371   0.000  0.00  0.00    +0.000 HD
ATOM     15  H   UNL     1       0.582  -2.728   0.000  0.00  0.00    +0.000 HD
ENDROOT
BRANCH  11  16
ATOM     16  C   UNL     1       0.766   0.893   0.000  0.00  0.00    +0.000 C 
BRANCH  16  17
ATOM     17  O   UNL     1       0.431   1.646   0.000  0.00  0.00    +0.000 OA
BRANCH  17  18
ATOM     18  P   UNL     1       0.916   2.314   0.000  0.00  0.00    +0.000 P 
ATOM     19  O   UNL     1       1.401   2.981   0.000  0.00  0.00    +0.000 OA
ATOM     20  O   UNL     1       0.248   2.799   0.000  0.00  0.00    +0.000 OA
ATOM     21  O   UNL     1       1.583   1.829   0.000  0.00  0.00    +0.000 OA
ENDBRANCH  17  18
ENDBRANCH  16  17
ENDBRANCH  11  16
TORSDOF 3
