REMARK  Name = 
REMARK  6 active torsions:
REMARK  status: ('A' for Active; 'I' for Inactive)
REMARK    1  A    between atoms: C_2  and  C_25
REMARK    2  A    between atoms: C_22  and  C_35
REMARK    3  A    between atoms: C_35  and  C_37
REMARK    4  A    between atoms: C_37  and  O_38
REMARK    5  A    between atoms: O_38  and  C_39
REMARK    6  A    between atoms: C_39  and  C_41
REMARK                            x       y       z     vdW  Elec       q    Type
REMARK                         _______ _______ _______ _____ _____    ______ ____
ROOT
ATOM      1  C   UNL     1      -3.508  -1.762   0.000  0.00  0.00    +0.000 C 
ATOM      2  C   UNL     1      -3.508  -2.588   0.000  0.00  0.00    +0.000 C 
ATOM      3  C   UNL     1      -2.795  -3.001   0.000  0.00  0.00    +0.000 C 
ATOM      4  C   UNL     1      -2.795  -1.350   0.000  0.00  0.00    +0.000 C 
ATOM      5  C   UNL     1      -2.081  -1.762   0.000  0.00  0.00    +0.000 C 
ATOM      6  C   UNL     1      -2.085  -2.588   0.000  0.00  0.00    +0.000 C 
ATOM      7  C   UNL     1      -1.375  -3.002   0.000  0.00  0.00    +0.000 C 
ATOM      8  C   UNL     1      -0.658  -2.594   0.000  0.00  0.00    +0.000 C 
ATOM      9  C   UNL     1      -1.368  -1.350   0.000  0.00  0.00    +0.000 C 
ATOM     10  C   UNL     1      -0.657  -1.770   0.000  0.00  0.00    +0.000 C 
ATOM     11  C   UNL     1      -0.643  -0.120   0.000  0.00  0.00    +0.000 C 
ATOM     12  C   UNL     1      -1.365  -0.526   0.000  0.00  0.00    +0.000 C 
ATOM     13  C   UNL     1       0.069  -0.540   0.000  0.00  0.00    +0.000 C 
ATOM     14  C   UNL     1       0.060  -1.364   0.000  0.00  0.00    +0.000 C 
ATOM     15  C   UNL     1       0.841  -1.627   0.000  0.00  0.00    +0.000 C 
ATOM     16  C   UNL     1       0.855  -0.294   0.000  0.00  0.00    +0.000 C 
ATOM     17  C   UNL     1       1.334  -0.961   0.000  0.00  0.00    +0.000 C 
ATOM     18  O   UNL     1       2.116  -0.711   0.000  0.00  0.00    +0.000 OA
ATOM     19  C   UNL     1       2.121   0.110   0.000  0.00  0.00    +0.000 C 
ATOM     20  O   UNL     1       1.341   0.368   0.000  0.00  0.00    +0.000 OA
ATOM     21  O   UNL     1      -4.223  -3.001   0.000  0.00  0.00    +0.000 OA
ATOM     22  C   UNL     1      -2.090  -0.937   0.000  0.00  0.00    +0.000 C 
ATOM     23  O   UNL     1      -2.077  -0.108   0.000  0.00  0.00    +0.000 OA
ATOM     24  C   UNL     1       0.062   0.287   0.000  0.00  0.00    +0.000 C 
ENDROOT
BRANCH  19  26
ATOM     25  C   UNL     1       2.796   1.419   0.000  0.00  0.00    +0.000 C 
ATOM     26  C   UNL     1       2.796   0.593   0.000  0.00  0.00    +0.000 C 
ATOM     27  C   UNL     1       3.510   0.180   0.000  0.00  0.00    +0.000 C 
ATOM     28  C   UNL     1       4.223   0.593   0.000  0.00  0.00    +0.000 C 
ATOM     29  C   UNL     1       4.223   1.419   0.000  0.00  0.00    +0.000 C 
ATOM     30  C   UNL     1       3.510   1.832   0.000  0.00  0.00    +0.000 C 
ENDBRANCH  19  26
BRANCH  16  31
ATOM     31  C   UNL     1       0.849   0.535   0.000  0.00  0.00    +0.000 C 
ATOM     32  O   UNL     1       1.561   0.953   0.000  0.00  0.00    +0.000 OA
BRANCH  31  33
ATOM     33  C   UNL     1       0.131   0.943   0.000  0.00  0.00    +0.000 C 
BRANCH  33  34
ATOM     34  O   UNL     1       0.124   1.768   0.000  0.00  0.00    +0.000 OA
BRANCH  34  35
ATOM     35  C   UNL     1      -0.594   2.176   0.000  0.00  0.00    +0.000 C 
ATOM     36  O   UNL     1      -0.599   3.002   0.000  0.00  0.00    +0.000 OA
BRANCH  35  37
ATOM     37  C   UNL     1      -1.306   1.758   0.000  0.00  0.00    +0.000 C 
ATOM     38  C   UNL     1      -2.023   2.165   0.000  0.00  0.00    +0.000 C 
ATOM     39  C   UNL     1      -1.299   0.932   0.000  0.00  0.00    +0.000 C 
ENDBRANCH  35  37
ENDBRANCH  34  35
ENDBRANCH  33  34
ENDBRANCH  31  33
ENDBRANCH  16  31
TORSDOF 6
