REMARK  Name = 
REMARK  13 active torsions:
REMARK  status: ('A' for Active; 'I' for Inactive)
REMARK    1  A    between atoms: C_2  and  C_4
REMARK    2  A    between atoms: C_4  and  C_5
REMARK    3  A    between atoms: C_5  and  C_6
REMARK    4  A    between atoms: C_6  and  N_7
REMARK    5  A    between atoms: C_6  and  C_29
REMARK    6  A    between atoms: N_10  and  C_11
REMARK    7  A    between atoms: C_11  and  C_12
REMARK    8  A    between atoms: C_11  and  C_26
REMARK    9  A    between atoms: C_12  and  C_13
REMARK   10  A    between atoms: C_13  and  C_14
REMARK   11  A    between atoms: C_14  and  C_15
REMARK   12  A    between atoms: C_15  and  N_16
REMARK   13  A    between atoms: C_17  and  C_19
REMARK                            x       y       z     vdW  Elec       q    Type
REMARK                         _______ _______ _______ _____ _____    ______ ____
ROOT
ATOM      1  C   UNK A   1       9.288  -8.662   0.000  0.00  0.00    +0.000 C 
ENDROOT
BRANCH   1   5
ATOM      2  N   UNK A   1       7.145  -9.075   0.000  0.00  0.00    +0.000 NA
ATOM      3  C   UNK A   0       7.859  -8.662   0.000  0.00  0.00    +0.000 C 
ATOM      4  O   UNK A   0       7.859  -7.838   0.000  0.00  0.00    +0.000 OA
ATOM      5  N   UNK A   1       8.574  -9.075   0.000  0.00  0.00    +0.000 NA
BRANCH   2   6
ATOM      6  C   UNK A   1       6.430  -8.662   0.000  0.00  0.00    +0.000 C 
BRANCH   6   7
ATOM      7  C   UNK A   1       6.430  -7.838   0.000  0.00  0.00    +0.000 C 
ATOM      8  O   UNK A   1       7.145  -7.425   0.000  0.00  0.00    +0.000 OA
ATOM      9  O   UNK A   1       5.716  -7.425   0.000  0.00  0.00    +0.000 OA
ENDBRANCH   6   7
BRANCH   6  10
ATOM     10  C   UNK A   1       5.716  -9.075   0.000  0.00  0.00    +0.000 C 
BRANCH  10  11
ATOM     11  C   UNK A   1       5.001  -8.662   0.000  0.00  0.00    +0.000 C 
BRANCH  11  13
ATOM     12  O   UNK A   1       3.572  -8.662   0.000  0.00  0.00    +0.000 OA
ATOM     13  C   UNK A   1       4.287  -9.075   0.000  0.00  0.00    +0.000 C 
ATOM     14  O   UNK A   1       4.287  -9.900   0.000  0.00  0.00    +0.000 OA
ENDBRANCH  11  13
ENDBRANCH  10  11
ENDBRANCH   6  10
ENDBRANCH   2   6
ENDBRANCH   1   5
BRANCH   1  15
ATOM     15  C   UNK A   1       9.288  -7.838   0.000  0.00  0.00    +0.000 C 
ATOM     16  O   UNK A   1      10.003  -7.425   0.000  0.00  0.00    +0.000 OA
ATOM     17  O   UNK A   1       8.574  -7.425   0.000  0.00  0.00    +0.000 OA
ENDBRANCH   1  15
BRANCH   1  18
ATOM     18  C   UNK A   1      10.003  -9.075   0.000  0.00  0.00    +0.000 C 
BRANCH  18  19
ATOM     19  C   UNK A   1      10.717  -8.662   0.000  0.00  0.00    +0.000 C 
BRANCH  19  20
ATOM     20  C   UNK A   1      11.431  -9.075   0.000  0.00  0.00    +0.000 C 
BRANCH  20  21
ATOM     21  C   UNK A   1      12.146  -8.662   0.000  0.00  0.00    +0.000 C 
BRANCH  21  22
ATOM     22  N   UNK A   1      12.861  -9.075   0.000  0.00  0.00    +0.000 NA
ATOM     23  C   UNK A   1      13.575  -8.662   0.000  0.00  0.00    +0.000 C 
ATOM     24  O   UNK A   1      13.575  -7.838   0.000  0.00  0.00    +0.000 OA
BRANCH  23  25
ATOM     25  C   UNK A   1      14.289  -9.075   0.000  0.00  0.00    +0.000 A 
ATOM     26  C   UNK A   1      15.004  -8.662   0.000  0.00  0.00    +0.000 A 
ATOM     27  C   UNK A   1      15.718  -9.075   0.000  0.00  0.00    +0.000 A 
ATOM     28  C   UNK A   1      15.718  -9.900   0.000  0.00  0.00    +0.000 A 
ATOM     29  F   UNK A   1      16.433 -10.312   0.000  0.00  0.00    +0.000 F 
ATOM     30  N   UNK A   1      15.004 -10.312   0.000  0.00  0.00    +0.000 NA
ATOM     31  C   UNK A   1      14.289  -9.900   0.000  0.00  0.00    +0.000 A 
ENDBRANCH  23  25
ENDBRANCH  21  22
ENDBRANCH  20  21
ENDBRANCH  19  20
ENDBRANCH  18  19
ENDBRANCH   1  18
TORSDOF 13
