REMARK  Name = 
REMARK  15 active torsions:
REMARK  status: ('A' for Active; 'I' for Inactive)
REMARK    1  A    between atoms: C_1  and  C_4
REMARK    2  A    between atoms: C_4  and  C_9
REMARK    3  A    between atoms: C_9  and  C_14
REMARK    4  A    between atoms: C_11  and  C_79
REMARK    5  A    between atoms: C_13  and  C_18
REMARK    6  A    between atoms: C_14  and  C_19
REMARK    7  A    between atoms: C_26  and  C_32
REMARK    8  A    between atoms: C_32  and  C_36
REMARK    9  A    between atoms: C_39  and  C_46
REMARK   10  A    between atoms: C_43  and  C_48
REMARK   11  A    between atoms: C_46  and  C_51
REMARK   12  A    between atoms: C_48  and  C_54
REMARK   13  A    between atoms: C_59  and  C_65
REMARK   14  A    between atoms: C_73  and  C_82
REMARK   15  A    between atoms: C_82  and  C_83
REMARK                            x       y       z     vdW  Elec       q    Type
REMARK                         _______ _______ _______ _____ _____    ______ ____
ROOT
ATOM      1  C   UNL     1       0.694   1.336   0.000  0.00  0.00    +0.000 C 
ATOM      2  N   UNL     1      -0.020   0.923   0.000  0.00  0.00    +0.000 N 
ATOM      3  C   UNL     1       1.409   0.923   0.000  0.00  0.00    +0.000 C 
ATOM      4  C   UNL     1      -0.734   1.336   0.000  0.00  0.00    +0.000 C 
ATOM      5  C   UNL     1      -0.020   0.101   0.000  0.00  0.00    +0.000 C 
ATOM      6  N   UNL     1       2.122   1.336   0.000  0.00  0.00    +0.000 NA
ATOM      7  O   UNL     1       1.409   0.101   0.000  0.00  0.00    +0.000 OA
ATOM      8  C   UNL     1      -1.448   0.923   0.000  0.00  0.00    +0.000 C 
ATOM      9  O   UNL     1      -0.734   2.158   0.000  0.00  0.00    +0.000 OA
ATOM     10  C   UNL     1       2.837   0.923   0.000  0.00  0.00    +0.000 C 
ATOM     11  N   UNL     1      -2.162   1.336   0.000  0.00  0.00    +0.000 N 
ATOM     12  C   UNL     1       3.551   1.336   0.000  0.00  0.00    +0.000 C 
ATOM     13  C   UNL     1      -2.876   0.923   0.000  0.00  0.00    +0.000 C 
ATOM     14  C   UNL     1      -2.162   2.158   0.000  0.00  0.00    +0.000 C 
ATOM     15  N   UNL     1       4.265   0.923   0.000  0.00  0.00    +0.000 N 
ATOM     16  O   UNL     1       3.551   2.158   0.000  0.00  0.00    +0.000 OA
ATOM     17  C   UNL     1      -3.590   1.336   0.000  0.00  0.00    +0.000 C 
ATOM     18  O   UNL     1      -2.876   0.101   0.000  0.00  0.00    +0.000 OA
ATOM     19  C   UNL     1       4.265   0.101   0.000  0.00  0.00    +0.000 C 
ATOM     20  C   UNL     1       4.979   1.336   0.000  0.00  0.00    +0.000 C 
ATOM     21  N   UNL     1      -4.304   0.923   0.000  0.00  0.00    +0.000 N 
ATOM     22  C   UNL     1       4.979  -0.313   0.000  0.00  0.00    +0.000 C 
ATOM     23  C   UNL     1      -4.284  -1.697   0.000  0.00  0.00    +0.000 C 
ATOM     24  C   UNL     1      -5.130   0.923   0.000  0.00  0.00    +0.000 C 
ATOM     25  N   UNL     1       5.269  -1.542   0.000  0.00  0.00    +0.000 N 
ATOM     26  O   UNL     1       5.693   0.101   0.000  0.00  0.00    +0.000 OA
ATOM     27  C   UNL     1      -4.998  -2.110   0.000  0.00  0.00    +0.000 C 
ATOM     28  O   UNL     1      -3.494  -1.476   0.000  0.00  0.00    +0.000 OA
ATOM     29  C   UNL     1       4.998  -2.933   0.000  0.00  0.00    +0.000 C 
ATOM     30  C   UNL     1       5.985  -1.496   0.000  0.00  0.00    +0.000 C 
ATOM     31  N   UNL     1      -4.998  -2.933   0.000  0.00  0.00    +0.000 N 
ATOM     32  C   UNL     1       4.284  -3.346   0.000  0.00  0.00    +0.000 C 
ATOM     33  C   UNL     1      -4.284  -3.346   0.000  0.00  0.00    +0.000 C 
ATOM     34  C   UNL     1      -5.712  -3.346   0.000  0.00  0.00    +0.000 C 
ATOM     35  N   UNL     1       3.570  -2.933   0.000  0.00  0.00    +0.000 NA
ATOM     36  O   UNL     1       4.284  -4.168   0.000  0.00  0.00    +0.000 OA
ATOM     37  C   UNL     1      -3.570  -2.933   0.000  0.00  0.00    +0.000 C 
ATOM     38  O   UNL     1      -4.284  -4.168   0.000  0.00  0.00    +0.000 OA
ATOM     39  C   UNL     1       2.856  -3.346   0.000  0.00  0.00    +0.000 C 
ATOM     40  N   UNL     1      -2.856  -3.346   0.000  0.00  0.00    +0.000 NA
ATOM     41  C   UNL     1      -3.570  -2.110   0.000  0.00  0.00    +0.000 C 
ATOM     42  C   UNL     1       2.142  -2.933   0.000  0.00  0.00    +0.000 C 
ATOM     43  C   UNL     1      -2.142  -2.933   0.000  0.00  0.00    +0.000 C 
ATOM     44  N   UNL     1       1.428  -3.346   0.000  0.00  0.00    +0.000 N 
ATOM     45  O   UNL     1       2.142  -2.110   0.000  0.00  0.00    +0.000 OA
ATOM     46  C   UNL     1      -1.428  -3.346   0.000  0.00  0.00    +0.000 C 
ATOM     47  O   UNL     1      -2.142  -2.110   0.000  0.00  0.00    +0.000 OA
ATOM     48  C   UNL     1       0.714  -2.933   0.000  0.00  0.00    +0.000 C 
ATOM     49  C   UNL     1       1.428  -4.168   0.000  0.00  0.00    +0.000 C 
ATOM     50  N   UNL     1      -0.714  -2.933   0.000  0.00  0.00    +0.000 NA
ATOM     51  C   UNL     1      -1.428  -4.168   0.000  0.00  0.00    +0.000 C 
ATOM     52  C   UNL     1       0.000  -3.346   0.000  0.00  0.00    +0.000 C 
ATOM     53  O   UNL     1       0.000  -4.168   0.000  0.00  0.00    +0.000 OA
ENDROOT
BRANCH  39  54
ATOM     54  C   UNL     1       2.872  -4.417   0.000  0.00  0.00    +0.000 C 
ATOM     55  C   UNL     1       2.110  -5.047   0.000  0.00  0.00    +0.000 C 
ATOM     56  C   UNL     1       3.598  -4.982   0.000  0.00  0.00    +0.000 C 
ENDBRANCH  39  54
BRANCH   8  57
ATOM     57  C   UNL     1      -1.448   0.098   0.000  0.00  0.00    +0.000 C 
ATOM     58  C   UNL     1      -2.162  -0.315   0.000  0.00  0.00    +0.000 C 
ATOM     59  C   UNL     1      -0.733  -0.315   0.000  0.00  0.00    +0.000 C 
ENDBRANCH   8  57
BRANCH   1  60
ATOM     60  C   UNL     1       0.694   2.158   0.000  0.00  0.00    +0.000 C 
ATOM     61  O   UNL     1      -0.020   2.572   0.000  0.00  0.00    +0.000 OA
BRANCH  60  62
ATOM     62  C   UNL     1       1.409   2.572   0.000  0.00  0.00    +0.000 C 
ATOM     63  C   UNL     1       2.122   2.158   0.000  0.00  0.00    +0.000 C 
BRANCH  62  64
ATOM     64  C   UNL     1       1.409   3.398   0.000  0.00  0.00    +0.000 C 
BRANCH  64  65
ATOM     65  C   UNL     1       0.694   3.811   0.000  0.00  0.00    +0.000 C 
ATOM     66  C   UNL     1       0.694   4.633   0.000  0.00  0.00    +0.000 C 
ATOM     67  C   UNL     1      -0.020   5.047   0.000  0.00  0.00    +0.000 C 
ENDBRANCH  64  65
ENDBRANCH  62  64
ENDBRANCH  60  62
ENDBRANCH   1  60
BRANCH  10  68
ATOM     68  C   UNL     1       2.837   0.101   0.000  0.00  0.00    +0.000 C 
ATOM     69  C   UNL     1       2.122  -0.313   0.000  0.00  0.00    +0.000 C 
ENDBRANCH  10  68
BRANCH  29  70
ATOM     70  C   UNL     1       5.712  -3.346   0.000  0.00  0.00    +0.000 C 
BRANCH  70  71
ATOM     71  C   UNL     1       6.426  -2.933   0.000  0.00  0.00    +0.000 C 
ATOM     72  C   UNL     1       7.141  -3.346   0.000  0.00  0.00    +0.000 C 
ATOM     73  C   UNL     1       6.426  -2.110   0.000  0.00  0.00    +0.000 C 
ENDBRANCH  70  71
ENDBRANCH  29  70
BRANCH  17  74
ATOM     74  C   UNL     1      -3.590   2.158   0.000  0.00  0.00    +0.000 C 
BRANCH  74  75
ATOM     75  C   UNL     1      -4.304   2.572   0.000  0.00  0.00    +0.000 C 
ATOM     76  C   UNL     1      -4.304   3.398   0.000  0.00  0.00    +0.000 C 
ATOM     77  C   UNL     1      -5.018   2.158   0.000  0.00  0.00    +0.000 C 
ENDBRANCH  74  75
ENDBRANCH  17  74
BRANCH  48  78
ATOM     78  C   UNL     1       0.714  -2.108   0.000  0.00  0.00    +0.000 C 
BRANCH  78  79
ATOM     79  C   UNL     1      -0.000  -1.695   0.000  0.00  0.00    +0.000 C 
ATOM     80  C   UNL     1      -0.000  -0.870   0.000  0.00  0.00    +0.000 C 
ATOM     81  C   UNL     1      -0.715  -2.108   0.000  0.00  0.00    +0.000 C 
ENDBRANCH  78  79
ENDBRANCH  48  78
BRANCH  27  82
ATOM     82  C   UNL     1      -5.712  -1.697   0.000  0.00  0.00    +0.000 C 
BRANCH  82  83
ATOM     83  C   UNL     1      -6.426  -2.110   0.000  0.00  0.00    +0.000 C 
ATOM     84  C   UNL     1      -7.140  -1.697   0.000  0.00  0.00    +0.000 C 
ATOM     85  C   UNL     1      -6.856  -2.868   0.000  0.00  0.00    +0.000 C 
ENDBRANCH  82  83
ENDBRANCH  27  82
TORSDOF 15
