REMARK  Name = 
REMARK  2 active torsions:
REMARK  status: ('A' for Active; 'I' for Inactive)
REMARK    1  A    between atoms: C_11  and  C_13
REMARK    2  A    between atoms: C_11  and  N_19
REMARK                            x       y       z     vdW  Elec       q    Type
REMARK                         _______ _______ _______ _____ _____    ______ ____
ROOT
ATOM      1  C   UNL     1       8.995   2.062   0.000  0.00  0.00    +0.000 A 
ATOM      2  C   UNL     1       8.280   2.475   0.000  0.00  0.00    +0.000 A 
ATOM      3  C   UNL     1       8.995   1.238   0.000  0.00  0.00    +0.000 A 
ATOM      4  C   UNL     1       6.137  -0.412   0.000  0.00  0.00    +0.000 C 
ATOM      5  C   UNL     1       5.422   0.825   0.000  0.00  0.00    +0.000 C 
ATOM      6  C   UNL     1       6.851   0.000   0.000  0.00  0.00    +0.000 C 
ATOM      7  C   UNL     1       6.137   1.238   0.000  0.00  0.00    +0.000 C 
ATOM      8  C   UNL     1       7.566   1.238   0.000  0.00  0.00    +0.000 A 
ATOM      9  N   UNL     1       7.566   2.062   0.000  0.00  0.00    +0.000 NA
ATOM     10  N   UNL     1       8.280   0.825   0.000  0.00  0.00    +0.000 NA
ATOM     11  N   UNL     1       5.422   0.000   0.000  0.00  0.00    +0.000 NA
ATOM     12  N   UNL     1       6.851   0.825   0.000  0.00  0.00    +0.000 N 
ENDROOT
BRANCH  11  13
ATOM     13  C   UNL     1       4.708  -0.412   0.000  0.00  0.00    +0.000 C 
BRANCH  13  18
ATOM     14  C   UNL     1       3.993   0.825   0.000  0.00  0.00    +0.000 A 
ATOM     15  C   UNL     1       3.279   1.238   0.000  0.00  0.00    +0.000 A 
ATOM     16  C   UNL     1       3.279  -0.412   0.000  0.00  0.00    +0.000 A 
ATOM     17  C   UNL     1       1.295   0.412   0.000  0.00  0.00    +0.000 C 
ATOM     18  C   UNL     1       3.993   0.000   0.000  0.00  0.00    +0.000 A 
ATOM     19  C   UNL     1       2.564   0.825   0.000  0.00  0.00    +0.000 A 
ATOM     20  C   UNL     1       2.564   0.000   0.000  0.00  0.00    +0.000 A 
ATOM     21  O   UNL     1       1.780   1.080   0.000  0.00  0.00    +0.000 OA
ATOM     22  O   UNL     1       1.780  -0.255   0.000  0.00  0.00    +0.000 OA
ENDBRANCH  13  18
ENDBRANCH  11  13
TORSDOF 2
