REMARK  Name = 
REMARK  10 active torsions:
REMARK  status: ('A' for Active; 'I' for Inactive)
REMARK    1  A    between atoms: C_2  and  N_6
REMARK    2  A    between atoms: C_4  and  C_16
REMARK    3  A    between atoms: C_16  and  O_17
REMARK    4  A    between atoms: O_17  and  P_23
REMARK    5  A    between atoms: O_18  and  P_21
REMARK    6  A    between atoms: O_18  and  P_23
REMARK    7  A    between atoms: P_21  and  O_25
REMARK    8  A    between atoms: O_25  and  C_26
REMARK    9  A    between atoms: C_26  and  C_27
REMARK   10  A    between atoms: C_27  and  N_30
REMARK                            x       y       z     vdW  Elec       q    Type
REMARK                         _______ _______ _______ _____ _____    ______ ____
ROOT
ATOM      1  C   UNL     1       1.682  -1.939   0.000  0.00  0.00    +0.000 C 
ENDROOT
BRANCH   1   5
ATOM      2  C   UNL     1       3.619  -1.042   0.000  0.00  0.00    +0.000 C 
ATOM      3  C   UNL     1       3.134  -0.374   0.000  0.00  0.00    +0.000 C 
ATOM      4  O   UNL     1       2.349  -0.629   0.000  0.00  0.00    +0.000 OA
ATOM      5  C   UNL     1       2.349  -1.454   0.000  0.00  0.00    +0.000 C 
ATOM      6  C   UNL     1       3.134  -1.709   0.000  0.00  0.00    +0.000 C 
ATOM      7  O   UNL     1       4.444  -1.042   0.000  0.00  0.00    +0.000 OA
ATOM      8  O   UNL     1       3.389  -2.494   0.000  0.00  0.00    +0.000 OA
BRANCH   3   9
ATOM      9  N   UNL     1       3.389   0.410   0.000  0.00  0.00    +0.000 N 
ATOM     10  C   UNL     1       4.196   0.582   0.000  0.00  0.00    +0.000 A 
ATOM     11  C   UNL     1       2.837   1.023   0.000  0.00  0.00    +0.000 A 
ATOM     12  N   UNL     1       4.451   1.366   0.000  0.00  0.00    +0.000 NA
ATOM     13  O   UNL     1       4.748  -0.031   0.000  0.00  0.00    +0.000 OA
ATOM     14  C   UNL     1       3.092   1.808   0.000  0.00  0.00    +0.000 A 
ATOM     15  C   UNL     1       3.899   1.980   0.000  0.00  0.00    +0.000 A 
ATOM     16  N   UNL     1       4.154   2.764   0.000  0.00  0.00    +0.000 NA
ENDBRANCH   3   9
ENDBRANCH   1   5
BRANCH   1  17
ATOM     17  O   UNL     1       0.968  -1.527   0.000  0.00  0.00    +0.000 OA
BRANCH  17  19
ATOM     18  O   UNL     1       0.253  -2.764   0.000  0.00  0.00    +0.000 OA
ATOM     19  P   UNL     1       0.253  -1.939   0.000  0.00  0.00    +0.000 P 
ATOM     20  O   UNL     1       0.253  -1.114   0.000  0.00  0.00    +0.000 OA
BRANCH  19  21
ATOM     21  O   UNL     1      -0.461  -1.527   0.000  0.00  0.00    +0.000 OA
BRANCH  21  23
ATOM     22  O   UNL     1      -1.176  -2.764   0.000  0.00  0.00    +0.000 OA
ATOM     23  P   UNL     1      -1.176  -1.939   0.000  0.00  0.00    +0.000 P 
ATOM     24  O   UNL     1      -1.176  -1.114   0.000  0.00  0.00    +0.000 OA
BRANCH  23  25
ATOM     25  O   UNL     1      -1.890  -1.527   0.000  0.00  0.00    +0.000 OA
BRANCH  25  26
ATOM     26  C   UNL     1      -2.605  -1.939   0.000  0.00  0.00    +0.000 C 
BRANCH  26  27
ATOM     27  C   UNL     1      -3.319  -1.527   0.000  0.00  0.00    +0.000 C 
BRANCH  27  30
ATOM     28  C   UNL     1      -4.034  -2.764   0.000  0.00  0.00    +0.000 C 
ATOM     29  C   UNL     1      -4.748  -2.352   0.000  0.00  0.00    +0.000 C 
ATOM     30  N   UNL     1      -4.034  -1.939   0.000  0.00  0.00    +0.000 N 
ATOM     31  C   UNL     1      -4.748  -1.527   0.000  0.00  0.00    +0.000 C 
ENDBRANCH  27  30
ENDBRANCH  26  27
ENDBRANCH  25  26
ENDBRANCH  23  25
ENDBRANCH  21  23
ENDBRANCH  19  21
ENDBRANCH  17  19
ENDBRANCH   1  17
TORSDOF 10
