REMARK  Name = 
REMARK  8 active torsions:
REMARK  status: ('A' for Active; 'I' for Inactive)
REMARK    1  A    between atoms: C_3  and  C_23
REMARK    2  A    between atoms: C_4  and  N_30
REMARK    3  A    between atoms: C_18  and  C_19
REMARK    4  A    between atoms: C_18  and  N_29
REMARK    5  A    between atoms: C_19  and  N_31
REMARK    6  A    between atoms: C_20  and  C_25
REMARK    7  A    between atoms: C_22  and  N_32
REMARK    8  A    between atoms: C_25  and  N_32
REMARK                            x       y       z     vdW  Elec       q    Type
REMARK                         _______ _______ _______ _____ _____    ______ ____
ROOT
ATOM      1  C   UNL     1       1.074  -0.566   0.000  0.00  0.00    +0.000 C 
ATOM      2  C   UNL     1      -0.082  -1.406   0.000  0.00  0.00    +0.000 C 
ATOM      3  C   UNL     1       0.589   0.101   0.000  0.00  0.00    +0.000 C 
ATOM      4  C   UNL     1      -0.567  -0.739   0.000  0.00  0.00    +0.000 C 
ATOM      5  C   UNL     1       0.739  -1.320   0.000  0.00  0.00    +0.000 C 
ATOM      6  N   UNL     1      -0.231   0.015   0.000  0.00  0.00    +0.000 NA
ENDROOT
BRANCH   5  12
ATOM      7  C   UNL     1       2.924  -0.158   0.000  0.00  0.00    +0.000 A 
ATOM      8  C   UNL     1       2.224   0.279   0.000  0.00  0.00    +0.000 A 
ATOM      9  C   UNL     1       2.895  -0.982   0.000  0.00  0.00    +0.000 A 
ATOM     10  C   UNL     1       1.496  -0.108   0.000  0.00  0.00    +0.000 A 
ATOM     11  C   UNL     1       2.167  -1.370   0.000  0.00  0.00    +0.000 A 
ATOM     12  C   UNL     1       1.467  -0.932   0.000  0.00  0.00    +0.000 A 
ENDBRANCH   5  12
BRANCH   5  14
ATOM     13  C   UNL     1       0.203  -2.645   0.000  0.00  0.00    +0.000 C 
ATOM     14  N   UNL     1       0.854  -2.137   0.000  0.00  0.00    +0.000 N 
ATOM     15  O   UNL     1       0.318  -3.462   0.000  0.00  0.00    +0.000 OA
BRANCH  14  21
ATOM     16  C   UNL     1       3.148  -3.064   0.000  0.00  0.00    +0.000 A 
ATOM     17  C   UNL     1       3.034  -2.247   0.000  0.00  0.00    +0.000 A 
ATOM     18  C   UNL     1       2.498  -3.572   0.000  0.00  0.00    +0.000 A 
ATOM     19  C   UNL     1       2.269  -1.938   0.000  0.00  0.00    +0.000 A 
ATOM     20  C   UNL     1       1.733  -3.263   0.000  0.00  0.00    +0.000 A 
ATOM     21  C   UNL     1       1.619  -2.446   0.000  0.00  0.00    +0.000 A 
ATOM     22  F   UNL     1       1.083  -3.771   0.000  0.00  0.00    +0.000 F 
ENDBRANCH  14  21
BRANCH  13  24
ATOM     23  C   UNL     1      -1.212  -2.844   0.000  0.00  0.00    +0.000 C 
ATOM     24  C   UNL     1      -0.561  -2.336   0.000  0.00  0.00    +0.000 C 
ENDBRANCH  13  24
ENDBRANCH   5  14
BRANCH   6  25
ATOM     25  C   UNL     1      -0.716   0.682   0.000  0.00  0.00    +0.000 C 
BRANCH  25  26
ATOM     26  C   UNL     1      -1.536   0.596   0.000  0.00  0.00    +0.000 C 
BRANCH  26  31
ATOM     27  C   UNL     1      -1.766   2.048   0.000  0.00  0.00    +0.000 A 
ATOM     28  N   UNL     1      -3.101   2.048   0.000  0.00  0.00    +0.000 NA
ATOM     29  N   UNL     1      -2.846   1.264   0.000  0.00  0.00    +0.000 NA
ATOM     30  N   UNL     1      -2.434   2.533   0.000  0.00  0.00    +0.000 N 
ATOM     31  N   UNL     1      -2.021   1.264   0.000  0.00  0.00    +0.000 N 
ATOM     32  O   UNL     1      -0.982   2.303   0.000  0.00  0.00    +0.000 OA
BRANCH  30  34
ATOM     33  C   UNL     1      -3.148   3.771   0.000  0.00  0.00    +0.000 C 
ATOM     34  C   UNL     1      -2.434   3.358   0.000  0.00  0.00    +0.000 C 
ENDBRANCH  30  34
ENDBRANCH  26  31
ENDBRANCH  25  26
ENDBRANCH   6  25
TORSDOF 8
