REMARK  Name = 
REMARK  15 active torsions:
REMARK  status: ('A' for Active; 'I' for Inactive)
REMARK    1  A    between atoms: C_1  and  O_11
REMARK    2  A    between atoms: C_2  and  O_5
REMARK    3  A    between atoms: C_3  and  O_7
REMARK    4  A    between atoms: C_4  and  S_9
REMARK    5  A    between atoms: O_5  and  C_22
REMARK    6  A    between atoms: C_6  and  C_10
REMARK    7  A    between atoms: O_7  and  C_16
REMARK    8  A    between atoms: S_9  and  AU_31
REMARK    9  A    between atoms: C_10  and  O_12
REMARK   10  A    between atoms: O_11  and  C_19
REMARK   11  A    between atoms: O_12  and  C_13
REMARK   12  A    between atoms: P_25  and  C_26
REMARK   13  A    between atoms: P_25  and  C_27
REMARK   14  A    between atoms: P_25  and  C_28
REMARK   15  A    between atoms: P_25  and  AU_31
REMARK                            x       y       z     vdW  Elec       q    Type
REMARK                         _______ _______ _______ _____ _____    ______ ____
ROOT
ATOM      1  C   UNL     1       6.636 -13.528   0.000  0.00  0.00    +0.000 C 
ATOM      2  C   UNL     1       7.350 -13.113   0.000  0.00  0.00    +0.000 C 
ATOM      3  C   UNL     1       5.920 -13.113   0.000  0.00  0.00    +0.000 C 
ATOM      4  C   UNL     1       7.350 -12.286   0.000  0.00  0.00    +0.000 C 
ATOM      5  C   UNL     1       5.920 -12.286   0.000  0.00  0.00    +0.000 C 
ATOM      6  O   UNL     1       6.636 -11.878   0.000  0.00  0.00    +0.000 OA
ENDROOT
BRANCH   2   7
ATOM      7  O   UNL     1       8.063 -13.528   0.000  0.00  0.00    +0.000 OA
BRANCH   7   8
ATOM      8  C   UNL     1       8.778 -13.115   0.000  0.00  0.00    +0.000 C 
ATOM      9  C   UNL     1       9.492 -13.528   0.000  0.00  0.00    +0.000 C 
ATOM     10  O   UNL     1       8.778 -12.290   0.000  0.00  0.00    +0.000 OA
ENDBRANCH   7   8
ENDBRANCH   2   7
BRANCH   3  11
ATOM     11  O   UNL     1       5.206 -13.528   0.000  0.00  0.00    +0.000 OA
BRANCH  11  12
ATOM     12  C   UNL     1       4.490 -13.118   0.000  0.00  0.00    +0.000 C 
ATOM     13  C   UNL     1       3.777 -13.533   0.000  0.00  0.00    +0.000 C 
ATOM     14  O   UNL     1       4.490 -12.293   0.000  0.00  0.00    +0.000 OA
ENDBRANCH  11  12
ENDBRANCH   3  11
BRANCH   1  15
ATOM     15  O   UNL     1       6.637 -14.353   0.000  0.00  0.00    +0.000 OA
BRANCH  15  16
ATOM     16  C   UNL     1       5.923 -14.766   0.000  0.00  0.00    +0.000 C 
ATOM     17  C   UNL     1       5.209 -14.354   0.000  0.00  0.00    +0.000 C 
ATOM     18  O   UNL     1       5.923 -15.591   0.000  0.00  0.00    +0.000 OA
ENDBRANCH  15  16
ENDBRANCH   1  15
BRANCH   5  19
ATOM     19  C   UNL     1       5.203 -11.878   0.000  0.00  0.00    +0.000 C 
BRANCH  19  20
ATOM     20  O   UNL     1       5.204 -11.053   0.000  0.00  0.00    +0.000 OA
BRANCH  20  21
ATOM     21  C   UNL     1       4.490 -10.640   0.000  0.00  0.00    +0.000 C 
ATOM     22  O   UNL     1       4.490  -9.816   0.000  0.00  0.00    +0.000 OA
ATOM     23  C   UNL     1       3.775 -11.053   0.000  0.00  0.00    +0.000 C 
ENDBRANCH  20  21
ENDBRANCH  19  20
ENDBRANCH   5  19
BRANCH   4  24
ATOM     24  S   UNL     1       8.060 -11.875   0.000  0.00  0.00    +0.000 S 
BRANCH  24  25
ATOM     25 AU   UNL     1       8.035 -10.993   0.000  0.00  0.00    +0.000 Au
BRANCH  25  26
ATOM     26  P   UNL     1       7.369 -10.601   0.000  0.00  0.00    +0.000 P 
BRANCH  26  27
ATOM     27  C   UNL     1       6.650 -10.196   0.000  0.00  0.00    +0.000 C 
ATOM     28  C   UNL     1       6.641  -9.371   0.000  0.00  0.00    +0.000 C 
ENDBRANCH  26  27
BRANCH  26  29
ATOM     29  C   UNL     1       6.659 -11.021   0.000  0.00  0.00    +0.000 C 
ATOM     30  C   UNL     1       5.939 -10.621   0.000  0.00  0.00    +0.000 C 
ENDBRANCH  26  29
BRANCH  26  31
ATOM     31  C   UNL     1       7.360  -9.776   0.000  0.00  0.00    +0.000 C 
ATOM     32  C   UNL     1       8.070  -9.356   0.000  0.00  0.00    +0.000 C 
ENDBRANCH  26  31
ENDBRANCH  25  26
ENDBRANCH  24  25
ENDBRANCH   4  24
TORSDOF 15
