REMARK  Name = 
REMARK  5 active torsions:
REMARK  status: ('A' for Active; 'I' for Inactive)
REMARK    1  A    between atoms: C_5  and  C_20
REMARK    2  A    between atoms: C_10  and  C_13
REMARK    3  A    between atoms: N_15  and  C_16
REMARK    4  A    between atoms: C_16  and  C_17
REMARK    5  A    between atoms: C_20  and  C_21
REMARK                            x       y       z     vdW  Elec       q    Type
REMARK                         _______ _______ _______ _____ _____    ______ ____
ROOT
ATOM      1  C   UNL     1       0.715  -4.537   0.000  0.00  0.00    +0.000 C 
ATOM      2  N   UNL     1       0.715  -3.712   0.000  0.00  0.00    +0.000 N 
ATOM      3  C   UNL     1       0.000  -3.300   0.000  0.00  0.00    +0.000 A 
ATOM      4  C   UNL     1      -0.715  -3.712   0.000  0.00  0.00    +0.000 A 
ATOM      5  C   UNL     1      -1.429  -3.300   0.000  0.00  0.00    +0.000 A 
ATOM      6  C   UNL     1      -1.429  -2.475   0.000  0.00  0.00    +0.000 A 
ATOM      7  N   UNL     1      -0.715  -2.062   0.000  0.00  0.00    +0.000 NA
ATOM      8  C   UNL     1       0.000  -2.475   0.000  0.00  0.00    +0.000 A 
ATOM      9  C   UNL     1       0.715  -2.062   0.000  0.00  0.00    +0.000 A 
ATOM     10  C   UNL     1       1.429  -2.475   0.000  0.00  0.00    +0.000 A 
ATOM     11  C   UNL     1       1.429  -3.300   0.000  0.00  0.00    +0.000 A 
ATOM     12  O   UNL     1       2.143  -3.712   0.000  0.00  0.00    +0.000 OA
ATOM     13  O   UNL     1       0.715  -1.238   0.000  0.00  0.00    +0.000 OA
ENDROOT
BRANCH  10  14
ATOM     14  C   UNL     1       2.143  -2.062   0.000  0.00  0.00    +0.000 C 
ATOM     15  O   UNL     1       2.143  -1.238   0.000  0.00  0.00    +0.000 OA
ATOM     16  N   UNL     1       2.858  -2.475   0.000  0.00  0.00    +0.000 NA
BRANCH  16  17
ATOM     17  C   UNL     1       3.572  -2.062   0.000  0.00  0.00    +0.000 C 
BRANCH  17  18
ATOM     18  C   UNL     1       4.287  -2.475   0.000  0.00  0.00    +0.000 C 
ATOM     19  O   UNL     1       5.001  -2.062   0.000  0.00  0.00    +0.000 OA
ENDBRANCH  17  18
ENDBRANCH  16  17
ENDBRANCH  10  14
BRANCH   5  20
ATOM     20  C   UNL     1      -2.143  -3.712   0.000  0.00  0.00    +0.000 C 
BRANCH  20  21
ATOM     21  C   UNL     1      -2.858  -3.300   0.000  0.00  0.00    +0.000 A 
ATOM     22  C   UNL     1      -3.572  -3.712   0.000  0.00  0.00    +0.000 A 
ATOM     23  C   UNL     1      -4.287  -3.300   0.000  0.00  0.00    +0.000 A 
ATOM     24  C   UNL     1      -4.287  -2.475   0.000  0.00  0.00    +0.000 A 
ATOM     25  C   UNL     1      -3.572  -2.062   0.000  0.00  0.00    +0.000 A 
ATOM     26  C   UNL     1      -2.858  -2.475   0.000  0.00  0.00    +0.000 A 
ATOM     27  F   UNL     1      -5.001  -2.062   0.000  0.00  0.00    +0.000 F 
ENDBRANCH  20  21
ENDBRANCH   5  20
TORSDOF 5
