REMARK  Name = 
REMARK  2 active torsions:
REMARK  status: ('A' for Active; 'I' for Inactive)
REMARK    1  A    between atoms: C_5  and  C_7
REMARK    2  A    between atoms: C_9  and  C_20
REMARK                            x       y       z     vdW  Elec       q    Type
REMARK                         _______ _______ _______ _____ _____    ______ ____
ROOT
ATOM      1  C   UNL     1      -0.350  -0.206   0.000  0.00  0.00    +0.000 A 
ATOM      2  C   UNL     1       0.367  -0.618   0.000  0.00  0.00    +0.000 A 
ATOM      3  C   UNL     1       0.356   1.034   0.000  0.00  0.00    +0.000 A 
ATOM      4  C   UNL     1      -0.355   0.617   0.000  0.00  0.00    +0.000 A 
ATOM      5  C   UNL     1       1.077   0.624   0.000  0.00  0.00    +0.000 A 
ATOM      6  C   UNL     1       1.080  -0.201   0.000  0.00  0.00    +0.000 A 
ATOM      7  C   UNL     1       1.794  -0.609   0.000  0.00  0.00    +0.000 A 
ATOM      8  C   UNL     1       2.506  -0.194   0.000  0.00  0.00    +0.000 A 
ATOM      9  C   UNL     1       2.500   0.634   0.000  0.00  0.00    +0.000 A 
ATOM     10  C   UNL     1       1.785   1.038   0.000  0.00  0.00    +0.000 A 
ATOM     11  O   UNL     1       3.210   1.053   0.000  0.00  0.00    +0.000 OA
ENDROOT
BRANCH   1  16
ATOM     12  C   UNL     1      -2.490  -0.624   0.000  0.00  0.00    +0.000 A 
ATOM     13  C   UNL     1      -2.491  -1.452   0.000  0.00  0.00    +0.000 A 
ATOM     14  C   UNL     1      -1.775  -1.865   0.000  0.00  0.00    +0.000 A 
ATOM     15  C   UNL     1      -1.058  -1.451   0.000  0.00  0.00    +0.000 A 
ATOM     16  C   UNL     1      -1.061  -0.620   0.000  0.00  0.00    +0.000 A 
ATOM     17  C   UNL     1      -1.777  -0.210   0.000  0.00  0.00    +0.000 A 
ATOM     18  O   UNL     1      -3.210  -1.858   0.000  0.00  0.00    +0.000 OA
ATOM     19  F   UNL     1      -1.783  -2.688   0.000  0.00  0.00    +0.000 F 
ENDBRANCH   1  16
BRANCH   3  20
ATOM     20  C   UNL     1       0.348   1.863   0.000  0.00  0.00    +0.000 C 
ATOM     21  N   UNL     1       0.344   2.688   0.000  0.00  0.00    +0.000 NA
ENDBRANCH   3  20
TORSDOF 2
