REMARK  Name = 
REMARK  4 active torsions:
REMARK  status: ('A' for Active; 'I' for Inactive)
REMARK    1  A    between atoms: C_2  and  C_3
REMARK    2  A    between atoms: C_3  and  C_4
REMARK    3  A    between atoms: C_3  and  C_11
REMARK    4  A    between atoms: C_14  and  C_17
REMARK                            x       y       z     vdW  Elec       q    Type
REMARK                         _______ _______ _______ _____ _____    ______ ____
ROOT
ATOM      1  C   UNL     1       0.715   0.635   0.000  0.00  0.00    +0.000 A 
ATOM      2  C   UNL     1       1.429   0.222   0.000  0.00  0.00    +0.000 A 
ATOM      3  C   UNL     1       1.429  -0.603   0.000  0.00  0.00    +0.000 A 
ATOM      4  C   UNL     1       0.715  -1.015   0.000  0.00  0.00    +0.000 A 
ATOM      5  C   UNL     1       0.000  -0.603   0.000  0.00  0.00    +0.000 A 
ATOM      6  C   UNL     1       0.000   0.222   0.000  0.00  0.00    +0.000 A 
ENDROOT
BRANCH   4   7
ATOM      7  C   UNL     1       0.715  -1.840   0.000  0.00  0.00    +0.000 A 
ATOM      8  C   UNL     1       1.382  -2.325   0.000  0.00  0.00    +0.000 A 
ATOM      9  N   UNL     1       1.127  -3.110   0.000  0.00  0.00    +0.000 NA
ATOM     10  N   UNL     1       0.302  -3.110   0.000  0.00  0.00    +0.000 NA
ATOM     11  C   UNL     1       0.047  -2.325   0.000  0.00  0.00    +0.000 A 
ENDBRANCH   4   7
BRANCH   1  12
ATOM     12  C   UNL     1       0.715   1.460   0.000  0.00  0.00    +0.000 C 
BRANCH  12  13
ATOM     13  C   UNL     1       0.000   1.872   0.000  0.00  0.00    +0.000 A 
ATOM     14  C   UNL     1      -0.714   1.460   0.000  0.00  0.00    +0.000 A 
ATOM     15  C   UNL     1      -1.429   1.872   0.000  0.00  0.00    +0.000 A 
ATOM     16  C   UNL     1      -1.429   2.697   0.000  0.00  0.00    +0.000 A 
ATOM     17 CL   UNL     1      -2.143   3.110   0.000  0.00  0.00    +0.000 Cl
ATOM     18  C   UNL     1      -0.714   3.110   0.000  0.00  0.00    +0.000 A 
ATOM     19  C   UNL     1       0.000   2.697   0.000  0.00  0.00    +0.000 A 
ENDBRANCH  12  13
BRANCH  12  21
ATOM     20  N   UNL     1       2.143   1.460   0.000  0.00  0.00    +0.000 NA
ATOM     21  C   UNL     1       1.429   1.872   0.000  0.00  0.00    +0.000 C 
ENDBRANCH  12  21
ENDBRANCH   1  12
TORSDOF 4
