REMARK  Name = 
REMARK  11 active torsions:
REMARK  status: ('A' for Active; 'I' for Inactive)
REMARK    1  A    between atoms: O_2  and  C_3
REMARK    2  A    between atoms: C_3  and  C_5
REMARK    3  A    between atoms: C_8  and  O_9
REMARK    4  A    between atoms: O_9  and  C_10
REMARK    5  A    between atoms: C_10  and  C_12
REMARK    6  A    between atoms: C_12  and  C_13
REMARK    7  A    between atoms: C_13  and  C_14
REMARK    8  A    between atoms: C_14  and  C_15
REMARK    9  A    between atoms: C_15  and  C_16
REMARK   10  A    between atoms: C_16  and  C_17
REMARK   11  A    between atoms: C_17  and  C_18
REMARK                            x       y       z     vdW  Elec       q    Type
REMARK                         _______ _______ _______ _____ _____    ______ ____
ROOT
ATOM      1  C   UNL     1       1.429   2.475   0.000  0.00  0.00    +0.000 C 
ATOM      2  O   UNL     1       1.429   1.650   0.000  0.00  0.00    +0.000 OA
ENDROOT
BRANCH   1   3
ATOM      3  C   UNL     1       2.143   2.888   0.000  0.00  0.00    +0.000 C 
BRANCH   3   4
ATOM      4  C   UNL     1       2.858   2.475   0.000  0.00  0.00    +0.000 C 
BRANCH   4   5
ATOM      5  C   UNL     1       3.572   2.888   0.000  0.00  0.00    +0.000 C 
BRANCH   5   6
ATOM      6  C   UNL     1       4.287   2.475   0.000  0.00  0.00    +0.000 C 
BRANCH   6   7
ATOM      7  C   UNL     1       5.001   2.888   0.000  0.00  0.00    +0.000 C 
BRANCH   7   8
ATOM      8  C   UNL     1       5.716   2.475   0.000  0.00  0.00    +0.000 C 
BRANCH   8   9
ATOM      9  C   UNL     1       6.430   2.888   0.000  0.00  0.00    +0.000 C 
ATOM     10  O   UNL     1       6.430   3.712   0.000  0.00  0.00    +0.000 OA
ATOM     11  N   UNL     1       7.145   2.475   0.000  0.00  0.00    +0.000 NA
ATOM     12  O   UNL     1       7.859   2.888   0.000  0.00  0.00    +0.000 OA
ENDBRANCH   8   9
ENDBRANCH   7   8
ENDBRANCH   6   7
ENDBRANCH   5   6
ENDBRANCH   4   5
ENDBRANCH   3   4
ENDBRANCH   1   3
BRANCH   1  13
ATOM     13  O   UNL     1       0.715   2.888   0.000  0.00  0.00    +0.000 OA
BRANCH  13  17
ATOM     14  C   UNL     1      -1.429   1.650   0.000  0.00  0.00    +0.000 A 
ATOM     15  C   UNL     1      -1.429   2.475   0.000  0.00  0.00    +0.000 A 
ATOM     16  C   UNL     1      -0.715   2.888   0.000  0.00  0.00    +0.000 A 
ATOM     17  C   UNL     1       0.000   2.475   0.000  0.00  0.00    +0.000 A 
ATOM     18  C   UNL     1       0.000   1.650   0.000  0.00  0.00    +0.000 A 
ATOM     19  C   UNL     1      -0.715   1.238   0.000  0.00  0.00    +0.000 A 
BRANCH  14  20
ATOM     20  C   UNL     1      -2.143   1.238   0.000  0.00  0.00    +0.000 C 
ATOM     21  O   UNL     1      -2.858   1.650   0.000  0.00  0.00    +0.000 OA
BRANCH  20  23
ATOM     22  C   UNL     1      -2.858   0.000   0.000  0.00  0.00    +0.000 C 
ATOM     23  O   UNL     1      -2.143   0.412   0.000  0.00  0.00    +0.000 OA
ENDBRANCH  20  23
ENDBRANCH  14  20
ENDBRANCH  13  17
ENDBRANCH   1  13
TORSDOF 11
