REMARK  Name = 
REMARK  8 active torsions:
REMARK  status: ('A' for Active; 'I' for Inactive)
REMARK    1  A    between atoms: O_2  and  C_3
REMARK    2  A    between atoms: C_3  and  C_5
REMARK    3  A    between atoms: N_22  and  C_25
REMARK    4  A    between atoms: C_25  and  C_26
REMARK    5  A    between atoms: C_26  and  C_27
REMARK    6  A    between atoms: C_30  and  O_33
REMARK    7  A    between atoms: O_33  and  C_34
REMARK    8  A    between atoms: C_34  and  C_35
REMARK                            x       y       z     vdW  Elec       q    Type
REMARK                         _______ _______ _______ _____ _____    ______ ____
ROOT
ATOM      1  C   UNL     1       0.884 -14.442   0.000  0.00  0.00    +0.000 A 
ATOM      2  C   UNL     1       1.703 -14.344   0.000  0.00  0.00    +0.000 A 
ATOM      3  N   UNL     1       1.862 -13.534   0.000  0.00  0.00    +0.000 NA
ATOM      4  C   UNL     1       1.142 -13.133   0.000  0.00  0.00    +0.000 A 
ATOM      5  N   UNL     1       0.537 -13.694   0.000  0.00  0.00    +0.000 N 
ATOM      6  C   UNL     1      -0.279 -13.571   0.000  0.00  0.00    +0.000 C 
ATOM      7  C   UNL     1      -0.691 -12.856   0.000  0.00  0.00    +0.000 C 
ATOM      8  C   UNL     1      -0.390 -12.088   0.000  0.00  0.00    +0.000 A 
ATOM      9  C   UNL     1      -0.995 -11.527   0.000  0.00  0.00    +0.000 A 
ATOM     10  C   UNL     1      -0.811 -10.723   0.000  0.00  0.00    +0.000 A 
ATOM     11  C   UNL     1      -0.023 -10.480   0.000  0.00  0.00    +0.000 A 
ATOM     12  C   UNL     1       0.582 -11.041   0.000  0.00  0.00    +0.000 A 
ATOM     13  C   UNL     1       0.398 -11.845   0.000  0.00  0.00    +0.000 A 
ATOM     14  C   UNL     1       1.080 -12.310   0.000  0.00  0.00    +0.000 C 
ATOM     15  C   UNL     1       1.794 -11.898   0.000  0.00  0.00    +0.000 C 
ATOM     16  C   UNL     1       1.794 -11.072   0.000  0.00  0.00    +0.000 C 
ATOM     17  C   UNL     1       2.509 -10.660   0.000  0.00  0.00    +0.000 C 
ATOM     18  N   UNL     1       3.223 -11.072   0.000  0.00  0.00    +0.000 NA
ATOM     19  C   UNL     1       3.223 -11.898   0.000  0.00  0.00    +0.000 C 
ATOM     20  C   UNL     1       2.509 -12.310   0.000  0.00  0.00    +0.000 C 
ENDROOT
BRANCH   1  21
ATOM     21  C   UNL     1       0.482 -15.163   0.000  0.00  0.00    +0.000 C 
ATOM     22  O   UNL     1      -0.343 -15.175   0.000  0.00  0.00    +0.000 OA
BRANCH  21  24
ATOM     23  C   UNL     1       0.503 -16.592   0.000  0.00  0.00    +0.000 C 
ATOM     24  O   UNL     1       0.905 -15.871   0.000  0.00  0.00    +0.000 OA
ENDBRANCH  21  24
ENDBRANCH   1  21
BRANCH  18  25
ATOM     25  C   UNL     1       3.938 -10.660   0.000  0.00  0.00    +0.000 C 
BRANCH  25  26
ATOM     26  C   UNL     1       3.938  -9.835   0.000  0.00  0.00    +0.000 C 
BRANCH  26  27
ATOM     27  C   UNL     1       4.652  -9.422   0.000  0.00  0.00    +0.000 A 
ATOM     28  C   UNL     1       4.652  -8.598   0.000  0.00  0.00    +0.000 A 
ATOM     29  C   UNL     1       5.367  -8.185   0.000  0.00  0.00    +0.000 A 
ATOM     30  C   UNL     1       6.081  -8.598   0.000  0.00  0.00    +0.000 A 
ATOM     31  C   UNL     1       6.081  -9.422   0.000  0.00  0.00    +0.000 A 
ATOM     32  C   UNL     1       5.367  -9.835   0.000  0.00  0.00    +0.000 A 
BRANCH  30  33
ATOM     33  O   UNL     1       6.796  -8.185   0.000  0.00  0.00    +0.000 OA
BRANCH  33  34
ATOM     34  C   UNL     1       6.796  -7.360   0.000  0.00  0.00    +0.000 C 
BRANCH  34  35
ATOM     35  C   UNL     1       7.510  -6.947   0.000  0.00  0.00    +0.000 A 
ATOM     36  C   UNL     1       7.510  -6.122   0.000  0.00  0.00    +0.000 A 
ATOM     37  C   UNL     1       8.225  -5.710   0.000  0.00  0.00    +0.000 A 
ATOM     38  C   UNL     1       8.939  -6.122   0.000  0.00  0.00    +0.000 A 
ATOM     39  C   UNL     1       9.654  -5.710   0.000  0.00  0.00    +0.000 A 
ATOM     40  C   UNL     1      10.368  -6.122   0.000  0.00  0.00    +0.000 A 
ATOM     41  C   UNL     1      10.368  -6.947   0.000  0.00  0.00    +0.000 A 
ATOM     42  C   UNL     1       9.654  -7.360   0.000  0.00  0.00    +0.000 A 
ATOM     43  C   UNL     1       8.939  -6.947   0.000  0.00  0.00    +0.000 A 
ATOM     44  N   UNL     1       8.225  -7.360   0.000  0.00  0.00    +0.000 NA
ENDBRANCH  34  35
ENDBRANCH  33  34
ENDBRANCH  30  33
ENDBRANCH  26  27
ENDBRANCH  25  26
ENDBRANCH  18  25
TORSDOF 8
