REMARK  Name = 
REMARK  9 active torsions:
REMARK  status: ('A' for Active; 'I' for Inactive)
REMARK    1  A    between atoms: O_5  and  C_15
REMARK    2  A    between atoms: O_5  and  C_27
REMARK    3  A    between atoms: O_6  and  C_16
REMARK    4  A    between atoms: O_6  and  C_28
REMARK    5  A    between atoms: N_13  and  C_29
REMARK    6  A    between atoms: N_14  and  C_30
REMARK    7  A    between atoms: C_17  and  C_25
REMARK    8  A    between atoms: C_18  and  C_26
REMARK    9  A    between atoms: C_29  and  C_30
REMARK                            x       y       z     vdW  Elec       q    Type
REMARK                         _______ _______ _______ _____ _____    ______ ____
ROOT
ATOM      1  C   UNL     1       0.000   0.412   0.000  0.00  0.00    +0.000 C 
ENDROOT
BRANCH   1   3
ATOM      2  O   UNL     1       0.000   2.062   0.000  0.00  0.00    +0.000 OA
ATOM      3  N   UNL     1       0.715   0.825   0.000  0.00  0.00    +0.000 NA
ATOM      4  C   UNL     1       0.715   1.650   0.000  0.00  0.00    +0.000 C 
BRANCH   4   5
ATOM      5  O   UNL     1       1.429   2.062   0.000  0.00  0.00    +0.000 OA
BRANCH   5   8
ATOM      6  O   UNL     1       2.143   4.125   0.000  0.00  0.00    +0.000 OA
ATOM      7  O   UNL     1       0.715   4.125   0.000  0.00  0.00    +0.000 OA
ATOM      8  C   UNL     1       1.429   2.888   0.000  0.00  0.00    +0.000 C 
ATOM      9  C   UNL     1       1.429   4.537   0.000  0.00  0.00    +0.000 C 
ATOM     10  C   UNL     1       2.143   3.300   0.000  0.00  0.00    +0.000 C 
ATOM     11  C   UNL     1       0.715   3.300   0.000  0.00  0.00    +0.000 C 
ATOM     12  C   UNL     1       1.016   5.252   0.000  0.00  0.00    +0.000 C 
BRANCH   9  15
ATOM     13  O   UNL     1       2.666   5.252   0.000  0.00  0.00    +0.000 OA
ATOM     14  O   UNL     1       1.429   5.966   0.000  0.00  0.00    +0.000 OA
ATOM     15  C   UNL     1       1.841   5.252   0.000  0.00  0.00    +0.000 C 
ENDBRANCH   9  15
ENDBRANCH   5   8
ENDBRANCH   4   5
ENDBRANCH   1   3
BRANCH   1  16
ATOM     16  C   UNL     1       0.000  -0.412   0.000  0.00  0.00    +0.000 C 
BRANCH  16  18
ATOM     17  O   UNL     1       0.000  -2.062   0.000  0.00  0.00    +0.000 OA
ATOM     18  N   UNL     1      -0.715  -0.825   0.000  0.00  0.00    +0.000 NA
ATOM     19  C   UNL     1      -0.715  -1.650   0.000  0.00  0.00    +0.000 C 
BRANCH  19  20
ATOM     20  O   UNL     1      -1.429  -2.062   0.000  0.00  0.00    +0.000 OA
BRANCH  20  23
ATOM     21  O   UNL     1      -2.143  -4.125   0.000  0.00  0.00    +0.000 OA
ATOM     22  O   UNL     1      -0.715  -4.125   0.000  0.00  0.00    +0.000 OA
ATOM     23  C   UNL     1      -1.429  -2.888   0.000  0.00  0.00    +0.000 C 
ATOM     24  C   UNL     1      -1.429  -4.537   0.000  0.00  0.00    +0.000 C 
ATOM     25  C   UNL     1      -2.143  -3.300   0.000  0.00  0.00    +0.000 C 
ATOM     26  C   UNL     1      -0.715  -3.300   0.000  0.00  0.00    +0.000 C 
ATOM     27  C   UNL     1      -1.016  -5.252   0.000  0.00  0.00    +0.000 C 
BRANCH  24  30
ATOM     28  O   UNL     1      -2.666  -5.252   0.000  0.00  0.00    +0.000 OA
ATOM     29  O   UNL     1      -1.429  -5.966   0.000  0.00  0.00    +0.000 OA
ATOM     30  C   UNL     1      -1.841  -5.252   0.000  0.00  0.00    +0.000 C 
ENDBRANCH  24  30
ENDBRANCH  20  23
ENDBRANCH  19  20
ENDBRANCH  16  18
ENDBRANCH   1  16
TORSDOF 9
