REMARK  Name = 
REMARK  7 active torsions:
REMARK  status: ('A' for Active; 'I' for Inactive)
REMARK    1  A    between atoms: C_3  and  C_5
REMARK    2  A    between atoms: C_10  and  N_11
REMARK    3  A    between atoms: N_11  and  C_12
REMARK    4  A    between atoms: N_15  and  C_16
REMARK    5  A    between atoms: C_17  and  O_18
REMARK    6  A    between atoms: C_21  and  N_24
REMARK    7  A    between atoms: C_32  and  C_33
REMARK                            x       y       z     vdW  Elec       q    Type
REMARK                         _______ _______ _______ _____ _____    ______ ____
ROOT
ATOM      1  C   UNL     1      -1.429  -6.600   0.000  0.00  0.00    +0.000 A 
ATOM      2  C   UNL     1      -1.429  -7.425   0.000  0.00  0.00    +0.000 A 
ATOM      3  C   UNL     1      -2.143  -7.838   0.000  0.00  0.00    +0.000 A 
ATOM      4  N   UNL     1      -2.143  -8.662   0.000  0.00  0.00    +0.000 NA
ATOM      5  N   UNL     1      -2.858  -7.425   0.000  0.00  0.00    +0.000 NA
ATOM      6  C   UNL     1      -2.858  -6.600   0.000  0.00  0.00    +0.000 A 
ATOM      7  C   UNL     1      -2.143  -6.188   0.000  0.00  0.00    +0.000 A 
ENDROOT
BRANCH   4   8
ATOM      8  C   UNL     1      -2.858  -9.075   0.000  0.00  0.00    +0.000 A 
ATOM      9  C   UNL     1      -2.858  -9.900   0.000  0.00  0.00    +0.000 A 
ATOM     10  C   UNL     1      -3.572 -10.312   0.000  0.00  0.00    +0.000 A 
ATOM     11  C   UNL     1      -4.287  -9.900   0.000  0.00  0.00    +0.000 A 
ATOM     12  C   UNL     1      -4.287  -9.075   0.000  0.00  0.00    +0.000 A 
ATOM     13  C   UNL     1      -3.572  -8.662   0.000  0.00  0.00    +0.000 A 
BRANCH  11  14
ATOM     14  N   UNL     1      -5.001 -10.312   0.000  0.00  0.00    +0.000 N 
ATOM     15  C   UNL     1      -5.001 -11.137   0.000  0.00  0.00    +0.000 C 
ATOM     16  C   UNL     1      -5.716 -11.550   0.000  0.00  0.00    +0.000 C 
ATOM     17  O   UNL     1      -6.430 -11.137   0.000  0.00  0.00    +0.000 OA
ATOM     18  C   UNL     1      -6.430 -10.312   0.000  0.00  0.00    +0.000 C 
ATOM     19  C   UNL     1      -5.716  -9.900   0.000  0.00  0.00    +0.000 C 
ENDBRANCH  11  14
BRANCH   9  20
ATOM     20  O   UNL     1      -2.143 -10.312   0.000  0.00  0.00    +0.000 OA
ATOM     21  C   UNL     1      -2.143 -11.137   0.000  0.00  0.00    +0.000 C 
ENDBRANCH   9  20
ENDBRANCH   4   8
BRANCH   7  22
ATOM     22  C   UNL     1      -2.143  -5.362   0.000  0.00  0.00    +0.000 C 
ATOM     23  F   UNL     1      -2.143  -4.537   0.000  0.00  0.00    +0.000 F 
ATOM     24  F   UNL     1      -1.318  -5.362   0.000  0.00  0.00    +0.000 F 
ATOM     25  F   UNL     1      -2.968  -5.362   0.000  0.00  0.00    +0.000 F 
ENDBRANCH   7  22
BRANCH   1  26
ATOM     26  N   UNL     1      -0.715  -6.188   0.000  0.00  0.00    +0.000 NA
BRANCH  26  32
ATOM     27  C   UNL     1       0.715  -6.188   0.000  0.00  0.00    +0.000 A 
ATOM     28  C   UNL     1       1.429  -6.600   0.000  0.00  0.00    +0.000 A 
ATOM     29  C   UNL     1       1.429  -7.425   0.000  0.00  0.00    +0.000 A 
ATOM     30  C   UNL     1       0.715  -7.838   0.000  0.00  0.00    +0.000 A 
ATOM     31  C   UNL     1       0.000  -7.425   0.000  0.00  0.00    +0.000 A 
ATOM     32  C   UNL     1       0.000  -6.600   0.000  0.00  0.00    +0.000 A 
BRANCH  27  35
ATOM     33  C   UNL     1       0.000  -4.125   0.000  0.00  0.00    +0.000 C 
ATOM     34  N   UNL     1       0.000  -4.950   0.000  0.00  0.00    +0.000 NA
ATOM     35  C   UNL     1       0.715  -5.362   0.000  0.00  0.00    +0.000 C 
ATOM     36  O   UNL     1       1.429  -4.950   0.000  0.00  0.00    +0.000 OA
ENDBRANCH  27  35
ENDBRANCH  26  32
ENDBRANCH   1  26
TORSDOF 7
