REMARK  Name = 
REMARK  0 active torsions:
REMARK  status: ('A' for Active; 'I' for Inactive)
REMARK                            x       y       z     vdW  Elec       q    Type
REMARK                         _______ _______ _______ _____ _____    ______ ____
ROOT
ATOM      1  C   UNL     1      -2.058  -0.102   0.000  0.00  0.00    +0.000 C 
ATOM      2  C   UNL     1      -2.058  -0.928   0.000  0.00  0.00    +0.000 C 
ATOM      3  C   UNL     1      -1.345  -1.337   0.000  0.00  0.00    +0.000 C 
ATOM      4  C   UNL     1      -1.345   0.315   0.000  0.00  0.00    +0.000 C 
ATOM      5  C   UNL     1      -0.632  -0.102   0.000  0.00  0.00    +0.000 C 
ATOM      6  C   UNL     1      -0.631  -0.928   0.000  0.00  0.00    +0.000 C 
ATOM      7  C   UNL     1       0.081  -1.338   0.000  0.00  0.00    +0.000 C 
ATOM      8  C   UNL     1       0.796  -0.926   0.000  0.00  0.00    +0.000 C 
ATOM      9  C   UNL     1       0.079   0.314   0.000  0.00  0.00    +0.000 C 
ATOM     10  C   UNL     1       0.791  -0.102   0.000  0.00  0.00    +0.000 C 
ATOM     11  C   UNL     1       0.799   1.545   0.000  0.00  0.00    +0.000 C 
ATOM     12  C   UNL     1       0.080   1.137   0.000  0.00  0.00    +0.000 C 
ATOM     13  C   UNL     1       1.511   1.128   0.000  0.00  0.00    +0.000 C 
ATOM     14  C   UNL     1       1.507   0.307   0.000  0.00  0.00    +0.000 C 
ATOM     15  C   UNL     1       2.287   0.050   0.000  0.00  0.00    +0.000 C 
ATOM     16  C   UNL     1       2.772   0.712   0.000  0.00  0.00    +0.000 C 
ATOM     17  C   UNL     1       2.293   1.378   0.000  0.00  0.00    +0.000 C 
ATOM     18  O   UNL     1      -1.345  -2.163   0.000  0.00  0.00    +0.000 OA
ATOM     19  O   UNL     1      -2.772  -1.342   0.000  0.00  0.00    +0.000 OA
ATOM     20  C   UNL     1      -0.639   0.724   0.000  0.00  0.00    +0.000 C 
ATOM     21  C   UNL     1       1.505   1.955   0.000  0.00  0.00    +0.000 C 
ATOM     22  O   UNL     1       2.552   2.163   0.000  0.00  0.00    +0.000 OA
ENDROOT
TORSDOF 0
