REMARK  Name = 
REMARK  2 active torsions:
REMARK  status: ('A' for Active; 'I' for Inactive)
REMARK    1  A    between atoms: C_3  and  O_8
REMARK    2  A    between atoms: C_7  and  C_9
REMARK                            x       y       z     vdW  Elec       q    Type
REMARK                         _______ _______ _______ _____ _____    ______ ____
ROOT
ATOM      1  C   UNL     1       1.072   0.825   0.000  0.00  0.00    +0.000 A 
ATOM      2  O   UNL     1       1.786   1.237   0.000  0.00  0.00    +0.000 OA
ATOM      3  C   UNL     1       1.072  -0.000   0.000  0.00  0.00    +0.000 A 
ATOM      4  C   UNL     1       0.357   1.237   0.000  0.00  0.00    +0.000 A 
ATOM      5  C   UNL     1      -0.357   0.825   0.000  0.00  0.00    +0.000 A 
ATOM      6  C   UNL     1       0.357  -0.413   0.000  0.00  0.00    +0.000 A 
ATOM      7  C   UNL     1      -0.357  -0.000   0.000  0.00  0.00    +0.000 A 
ENDROOT
BRANCH   3   8
ATOM      8  O   UNL     1       1.786  -0.413   0.000  0.00  0.00    +0.000 OA
ATOM      9  C   UNL     1       1.782  -1.237   0.000  0.00  0.00    +0.000 C 
ENDBRANCH   3   8
BRANCH   7  10
ATOM     10  C   UNL     1      -1.072  -0.413   0.000  0.00  0.00    +0.000 C 
ATOM     11  C   UNL     1      -1.786  -0.000   0.000  0.00  0.00    +0.000 C 
ENDBRANCH   7  10
TORSDOF 2
