REMARK  Name = 
REMARK  9 active torsions:
REMARK  status: ('A' for Active; 'I' for Inactive)
REMARK    1  A    between atoms: C_1  and  N_7
REMARK    2  A    between atoms: C_4  and  C_8
REMARK    3  A    between atoms: C_8  and  O_9
REMARK    4  A    between atoms: O_9  and  C_13
REMARK    5  A    between atoms: C_13  and  C_14
REMARK    6  A    between atoms: C_14  and  C_15
REMARK    7  A    between atoms: C_14  and  C_18
REMARK    8  A    between atoms: C_15  and  C_16
REMARK    9  A    between atoms: C_16  and  C_17
REMARK                            x       y       z     vdW  Elec       q    Type
REMARK                         _______ _______ _______ _____ _____    ______ ____
ROOT
ATOM      1  C   UNL     1      -0.672  -0.832   0.000  0.00  0.00    +0.000 C 
ATOM      2  O   UNL     1      -0.672  -1.650   0.000  0.00  0.00    +0.000 OA
ENDROOT
BRANCH   1   6
ATOM      3  C   UNL     1      -2.827   0.413   0.000  0.00  0.00    +0.000 A 
ATOM      4  C   UNL     1      -2.827  -0.412   0.000  0.00  0.00    +0.000 A 
ATOM      5  C   UNL     1      -2.112  -0.825   0.000  0.00  0.00    +0.000 A 
ATOM      6  C   UNL     1      -1.397  -0.412   0.000  0.00  0.00    +0.000 A 
ATOM      7  C   UNL     1      -1.397   0.413   0.000  0.00  0.00    +0.000 A 
ATOM      8  C   UNL     1      -2.112   0.825   0.000  0.00  0.00    +0.000 A 
BRANCH   3   9
ATOM      9  N   UNL     1      -3.541   0.825   0.000  0.00  0.00    +0.000 N 
ATOM     10  C   UNL     1      -4.246   0.418   0.000  0.00  0.00    +0.000 C 
ATOM     11  C   UNL     1      -3.541   1.650   0.000  0.00  0.00    +0.000 C 
ENDBRANCH   3   9
ENDBRANCH   1   6
BRANCH   1  12
ATOM     12  O   UNL     1       0.038  -0.421   0.000  0.00  0.00    +0.000 OA
BRANCH  12  13
ATOM     13  C   UNL     1       0.735  -0.824   0.000  0.00  0.00    +0.000 C 
BRANCH  13  14
ATOM     14  C   UNL     1       1.439  -0.418   0.000  0.00  0.00    +0.000 C 
BRANCH  14  15
ATOM     15  C   UNL     1       1.439   0.396   0.000  0.00  0.00    +0.000 C 
ATOM     16  C   UNL     1       2.157   0.811   0.000  0.00  0.00    +0.000 C 
ENDBRANCH  14  15
BRANCH  14  17
ATOM     17  C   UNL     1       2.139  -0.822   0.000  0.00  0.00    +0.000 C 
BRANCH  17  18
ATOM     18  C   UNL     1       2.841  -0.417   0.000  0.00  0.00    +0.000 C 
BRANCH  18  19
ATOM     19  C   UNL     1       3.542  -0.821   0.000  0.00  0.00    +0.000 C 
ATOM     20  C   UNL     1       4.246  -0.415   0.000  0.00  0.00    +0.000 C 
ENDBRANCH  18  19
ENDBRANCH  17  18
ENDBRANCH  14  17
ENDBRANCH  13  14
ENDBRANCH  12  13
ENDBRANCH   1  12
TORSDOF 9
