REMARK  Name = 
REMARK  3 active torsions:
REMARK  status: ('A' for Active; 'I' for Inactive)
REMARK    1  A    between atoms: C_3  and  C_8
REMARK    2  A    between atoms: C_8  and  N_12
REMARK    3  A    between atoms: N_12  and  C_14
REMARK                            x       y       z     vdW  Elec       q    Type
REMARK                         _______ _______ _______ _____ _____    ______ ____
ROOT
ATOM      1  C   UNL     1      -1.433  -0.500   0.000  0.00  0.00    +0.000 A 
ATOM      2  C   UNL     1      -1.433  -1.329   0.000  0.00  0.00    +0.000 A 
ATOM      3  C   UNL     1      -0.645  -0.243   0.000  0.00  0.00    +0.000 A 
ATOM      4  C   UNL     1      -2.154  -0.089   0.000  0.00  0.00    +0.000 A 
ATOM      5  N   UNL     1      -0.649  -1.578   0.000  0.00  0.00    +0.000 NA
ATOM      6  N   UNL     1      -2.154  -1.748   0.000  0.00  0.00    +0.000 NA
ATOM      7  C   UNL     1      -0.166  -0.918   0.000  0.00  0.00    +0.000 A 
ATOM      8  N   UNL     1      -2.866  -0.500   0.000  0.00  0.00    +0.000 NA
ATOM      9  O   UNL     1      -2.157   0.730   0.000  0.00  0.00    +0.000 OA
ATOM     10  C   UNL     1      -2.866  -1.329   0.000  0.00  0.00    +0.000 A 
ATOM     11  N   UNL     1      -3.617  -1.748   0.000  0.00  0.00    +0.000 NA
ENDROOT
BRANCH   3  12
ATOM     12  C   UNL     1      -0.388   0.534   0.000  0.00  0.00    +0.000 C 
BRANCH  12  13
ATOM     13  N   UNL     1       0.551   0.843   0.000  0.00  0.00    +0.000 NA
BRANCH  13  14
ATOM     14  C   UNL     1       1.512   0.451   0.000  0.00  0.00    +0.000 C 
ATOM     15  C   UNL     1       2.172   0.926   0.000  0.00  0.00    +0.000 C 
ATOM     16  C   UNL     1       1.761  -0.334   0.000  0.00  0.00    +0.000 C 
ATOM     17  C   UNL     1       2.840   0.451   0.000  0.00  0.00    +0.000 C 
ATOM     18  O   UNL     1       2.169   1.748   0.000  0.00  0.00    +0.000 OA
ATOM     19  C   UNL     1       2.587  -0.334   0.000  0.00  0.00    +0.000 C 
ATOM     20  O   UNL     1       3.617   0.707   0.000  0.00  0.00    +0.000 OA
ENDBRANCH  13  14
ENDBRANCH  12  13
ENDBRANCH   3  12
TORSDOF 3
