REMARK  Name = 
REMARK  9 active torsions:
REMARK  status: ('A' for Active; 'I' for Inactive)
REMARK    1  A    between atoms: C_6  and  C_8
REMARK    2  A    between atoms: C_8  and  C_10
REMARK    3  A    between atoms: C_10  and  N_11
REMARK    4  A    between atoms: N_11  and  C_12
REMARK    5  A    between atoms: C_12  and  C_13
REMARK    6  A    between atoms: C_13  and  N_14
REMARK    7  A    between atoms: N_14  and  C_15
REMARK    8  A    between atoms: C_19  and  C_21
REMARK    9  A    between atoms: C_25  and  C_27
REMARK                            x       y       z     vdW  Elec       q    Type
REMARK                         _______ _______ _______ _____ _____    ______ ____
ROOT
ATOM      1  C   UNL     1      -2.475   0.301   0.000  0.00  0.00    +0.000 A 
ATOM      2  C   UNL     1      -3.300   0.301   0.000  0.00  0.00    +0.000 A 
ATOM      3  C   UNL     1      -3.716  -0.412   0.000  0.00  0.00    +0.000 A 
ATOM      4  C   UNL     1      -3.300  -1.126   0.000  0.00  0.00    +0.000 A 
ATOM      5  C   UNL     1      -2.475  -1.126   0.000  0.00  0.00    +0.000 A 
ATOM      6  C   UNL     1      -2.066  -0.412   0.000  0.00  0.00    +0.000 A 
ENDROOT
BRANCH   5   7
ATOM      7  C   UNL     1      -2.066  -1.847   0.000  0.00  0.00    +0.000 A 
ATOM      8  C   UNL     1      -2.475  -2.561   0.000  0.00  0.00    +0.000 A 
ATOM      9  C   UNL     1      -2.066  -3.274   0.000  0.00  0.00    +0.000 A 
ATOM     10  C   UNL     1      -1.241  -3.274   0.000  0.00  0.00    +0.000 A 
ATOM     11  C   UNL     1      -0.825  -2.561   0.000  0.00  0.00    +0.000 A 
ATOM     12  C   UNL     1      -1.241  -1.847   0.000  0.00  0.00    +0.000 A 
BRANCH  11  13
ATOM     13  C   UNL     1       0.000  -2.561   0.000  0.00  0.00    +0.000 C 
ATOM     14  O   UNL     1       0.416  -3.274   0.000  0.00  0.00    +0.000 OA
ATOM     15  O   UNL     1       0.416  -1.847   0.000  0.00  0.00    +0.000 OA
ENDBRANCH  11  13
ENDBRANCH   5   7
BRANCH   1  16
ATOM     16  N   UNL     1      -2.066   1.014   0.000  0.00  0.00    +0.000 NA
BRANCH  16  17
ATOM     17  C   UNL     1      -1.241   1.014   0.000  0.00  0.00    +0.000 C 
BRANCH  17  18
ATOM     18  C   UNL     1      -0.825   1.736   0.000  0.00  0.00    +0.000 C 
BRANCH  18  19
ATOM     19  N   UNL     1       0.000   1.736   0.000  0.00  0.00    +0.000 NA
BRANCH  19  20
ATOM     20  C   UNL     1       0.416   2.449   0.000  0.00  0.00    +0.000 C 
BRANCH  20  21
ATOM     21  C   UNL     1       1.241   2.449   0.000  0.00  0.00    +0.000 C 
ATOM     22  O   UNL     1       1.241   1.624   0.000  0.00  0.00    +0.000 OA
BRANCH  21  28
ATOM     23 CL   UNL     1       3.716   1.014   0.000  0.00  0.00    +0.000 Cl
ATOM     24  C   UNL     1       3.300   1.736   0.000  0.00  0.00    +0.000 A 
ATOM     25  C   UNL     1       3.716   2.449   0.000  0.00  0.00    +0.000 A 
ATOM     26  C   UNL     1       3.300   3.163   0.000  0.00  0.00    +0.000 A 
ATOM     27  C   UNL     1       2.475   3.163   0.000  0.00  0.00    +0.000 A 
ATOM     28  C   UNL     1       2.066   2.449   0.000  0.00  0.00    +0.000 A 
ATOM     29  C   UNL     1       2.475   1.736   0.000  0.00  0.00    +0.000 A 
ENDBRANCH  21  28
ENDBRANCH  20  21
ENDBRANCH  19  20
ENDBRANCH  18  19
ENDBRANCH  17  18
ENDBRANCH  16  17
ENDBRANCH   1  16
TORSDOF 9
