REMARK  Name = 
REMARK  2 active torsions:
REMARK  status: ('A' for Active; 'I' for Inactive)
REMARK    1  A    between atoms: C_17  and  C_28
REMARK    2  A    between atoms: C_28  and  C_29
REMARK                            x       y       z     vdW  Elec       q    Type
REMARK                         _______ _______ _______ _____ _____    ______ ____
ROOT
ATOM      1  C   UNL     1      -2.536  -0.334   0.000  0.00  0.00    +0.000 C 
ATOM      2  C   UNL     1      -2.536  -1.159   0.000  0.00  0.00    +0.000 C 
ATOM      3  C   UNL     1      -1.821  -1.571   0.000  0.00  0.00    +0.000 C 
ATOM      4  C   UNL     1      -1.107  -1.159   0.000  0.00  0.00    +0.000 C 
ATOM      5  C   UNL     1      -1.107  -0.334   0.000  0.00  0.00    +0.000 C 
ATOM      6  C   UNL     1      -1.821   0.079   0.000  0.00  0.00    +0.000 C 
ATOM      7  C   UNL     1      -0.392  -1.571   0.000  0.00  0.00    +0.000 C 
ATOM      8  C   UNL     1       0.322  -1.159   0.000  0.00  0.00    +0.000 C 
ATOM      9  C   UNL     1       0.322  -0.334   0.000  0.00  0.00    +0.000 C 
ATOM     10  C   UNL     1      -0.392   0.079   0.000  0.00  0.00    +0.000 C 
ATOM     11  C   UNL     1       1.036   0.079   0.000  0.00  0.00    +0.000 C 
ATOM     12  C   UNL     1       1.036   0.904   0.000  0.00  0.00    +0.000 C 
ATOM     13  C   UNL     1       0.322   1.316   0.000  0.00  0.00    +0.000 C 
ATOM     14  C   UNL     1      -0.392   0.904   0.000  0.00  0.00    +0.000 C 
ATOM     15  C   UNL     1       1.821  -0.176   0.000  0.00  0.00    +0.000 C 
ATOM     16  C   UNL     1       2.306   0.491   0.000  0.00  0.00    +0.000 C 
ATOM     17  C   UNL     1       1.821   1.159   0.000  0.00  0.00    +0.000 C 
ATOM     18  O   UNL     1      -3.250  -1.571   0.000  0.00  0.00    +0.000 OA
ATOM     19  C   UNL     1      -1.107   0.491   0.000  0.00  0.00    +0.000 C 
ATOM     20  O   UNL     1      -1.106   1.315   0.000  0.00  0.00    +0.000 OA
ATOM     21  C   UNL     1       1.036   1.729   0.000  0.00  0.00    +0.000 C 
ATOM     22  F   UNL     1      -0.392  -0.746   0.000  0.00  0.00    +0.000 F 
ATOM     23  F   UNL     1      -0.392  -2.396   0.000  0.00  0.00    +0.000 F 
ATOM     24  O   UNL     1       2.618   1.372   0.000  0.00  0.00    +0.000 OA
ATOM     25  C   UNL     1       3.115   0.491   0.000  0.00  0.00    +0.000 C 
ENDROOT
BRANCH  17  26
ATOM     26  C   UNL     1       1.821   1.984   0.000  0.00  0.00    +0.000 C 
ATOM     27  O   UNL     1       1.107   2.396   0.000  0.00  0.00    +0.000 OA
BRANCH  26  28
ATOM     28  C   UNL     1       2.536   2.396   0.000  0.00  0.00    +0.000 C 
ATOM     29  O   UNL     1       3.250   1.984   0.000  0.00  0.00    +0.000 OA
ENDBRANCH  26  28
ENDBRANCH  17  26
TORSDOF 2
