REMARK  Name = 
REMARK  44 active torsions:
REMARK  status: ('A' for Active; 'I' for Inactive)
REMARK    1  A    between atoms: C_9  and  C_13
REMARK    2  A    between atoms: N_11  and  CA_12
REMARK    3  A    between atoms: CA_12  and  C_13
REMARK    4  A    between atoms: CA_12  and  C_16
REMARK    5  A    between atoms: N_15  and  CA_19
REMARK    6  A    between atoms: C_18  and  CA_19
REMARK    7  A    between atoms: CA_19  and  C_32
REMARK    8  A    between atoms: C_20  and  CA_21
REMARK    9  A    between atoms: C_20  and  C_81
REMARK   10  A    between atoms: CA_21  and  N_22
REMARK   11  A    between atoms: CA_21  and  C_24
REMARK   12  A    between atoms: N_23  and  CA_27
REMARK   13  A    between atoms: C_26  and  CA_27
REMARK   14  A    between atoms: CA_27  and  C_89
REMARK   15  A    between atoms: C_28  and  C_29
REMARK   16  A    between atoms: C_28  and  C_74
REMARK   17  A    between atoms: C_29  and  N_30
REMARK   18  A    between atoms: C_29  and  C_35
REMARK   19  A    between atoms: C_32  and  C_56
REMARK   20  A    between atoms: N_34  and  C_38
REMARK   21  A    between atoms: C_37  and  C_38
REMARK   22  A    between atoms: C_38  and  C_87
REMARK   23  A    between atoms: C_39  and  C_40
REMARK   24  A    between atoms: C_39  and  C_71
REMARK   25  A    between atoms: C_40  and  N_41
REMARK   26  A    between atoms: C_40  and  C_43
REMARK   27  A    between atoms: N_42  and  C_46
REMARK   28  A    between atoms: C_45  and  C_46
REMARK   29  A    between atoms: C_46  and  C_91
REMARK   30  A    between atoms: C_50  and  C_63
REMARK   31  A    between atoms: N_65  and  C_66
REMARK   32  A    between atoms: C_66  and  C_67
REMARK   33  A    between atoms: C_87  and  C_88
REMARK   34  A    between atoms: C_88  and  C_93
REMARK   35  A    between atoms: C_91  and  C_92
REMARK   36  A    between atoms: C_92  and  C_103
REMARK   37  A    between atoms: C_93  and  C_94
REMARK   38  A    between atoms: C_94  and  N_95
REMARK   39  A    between atoms: N_97  and  C_99
REMARK   40  A    between atoms: N_98  and  C_101
REMARK   41  A    between atoms: C_103  and  C_104
REMARK   42  A    between atoms: C_104  and  N_105
REMARK   43  A    between atoms: N_107  and  C_108
REMARK   44  A    between atoms: N_110  and  C_111
REMARK                            x       y       z     vdW  Elec       q    Type
REMARK                         _______ _______ _______ _____ _____    ______ ____
ROOT
ATOM      1  C   UNL     1       0.335  -0.690   0.000  0.00  0.00    +0.000 C 
ENDROOT
BRANCH   1   4
ATOM      2  O   UNL     1      -1.087  -1.527   0.000  0.00  0.00    +0.000 OA
ATOM      3  C   UNL     1      -1.087  -0.690   0.000  0.00  0.00    +0.000 C 
ATOM      4  N   UNL     1      -0.376  -0.272   0.000  0.00  0.00    +0.000 NA
BRANCH   3   5
ATOM      5  CA  UNL     1      -1.798  -0.272   0.000  0.00  0.00    +0.000 C 
BRANCH   5   6
ATOM      6  N   UNL     1      -2.510  -0.690   0.000  0.00  0.00    +0.000 NA
ATOM      7  C   UNL     1      -3.221  -0.272   0.000  0.00  0.00    +0.000 C 
ATOM      8  O   UNL     1      -3.221   0.523   0.000  0.00  0.00    +0.000 OA
BRANCH   7   9
ATOM      9  CA  UNL     1      -3.932  -0.690   0.000  0.00  0.00    +0.000 C 
BRANCH   9  12
ATOM     10  O   UNL     1      -5.396  -1.527   0.000  0.00  0.00    +0.000 OA
ATOM     11  C   UNL     1      -5.396  -0.690   0.000  0.00  0.00    +0.000 C 
ATOM     12  N   UNL     1      -4.643  -0.272   0.000  0.00  0.00    +0.000 NA
BRANCH  11  13
ATOM     13  CA  UNL     1      -6.107  -0.272   0.000  0.00  0.00    +0.000 C 
BRANCH  13  14
ATOM     14  N   UNL     1      -6.818  -0.690   0.000  0.00  0.00    +0.000 NA
ATOM     15  C   UNL     1      -7.529  -0.272   0.000  0.00  0.00    +0.000 C 
ATOM     16  O   UNL     1      -7.529   0.523   0.000  0.00  0.00    +0.000 OA
BRANCH  15  17
ATOM     17  CA  UNL     1      -8.240  -0.690   0.000  0.00  0.00    +0.000 C 
BRANCH  17  18
ATOM     18  N   UNL     1      -8.240  -1.736   0.000  0.00  0.00    +0.000 NA
ATOM     19  C   UNL     1      -7.529  -2.154   0.000  0.00  0.00    +0.000 C 
ATOM     20  C   UNL     1      -6.818  -1.736   0.000  0.00  0.00    +0.000 C 
ATOM     21  O   UNL     1      -7.529  -2.949   0.000  0.00  0.00    +0.000 OA
ENDBRANCH  17  18
BRANCH  17  22
ATOM     22  C   UNL     1      -8.951  -0.272   0.000  0.00  0.00    +0.000 C 
BRANCH  22  31
ATOM     23  C   UNL     1     -12.506  -0.690   0.000  0.00  0.00    +0.000 A 
ATOM     24  C   UNL     1     -12.506  -1.527   0.000  0.00  0.00    +0.000 A 
ATOM     25  C   UNL     1     -11.795  -1.945   0.000  0.00  0.00    +0.000 A 
ATOM     26  C   UNL     1     -11.084  -1.527   0.000  0.00  0.00    +0.000 A 
ATOM     27  C   UNL     1     -11.084  -0.690   0.000  0.00  0.00    +0.000 A 
ATOM     28  C   UNL     1     -11.795  -0.272   0.000  0.00  0.00    +0.000 A 
ATOM     29  C   UNL     1     -10.373  -1.945   0.000  0.00  0.00    +0.000 A 
ATOM     30  C   UNL     1      -9.662  -1.527   0.000  0.00  0.00    +0.000 A 
ATOM     31  C   UNL     1      -9.662  -0.690   0.000  0.00  0.00    +0.000 A 
ATOM     32  C   UNL     1     -10.373  -0.272   0.000  0.00  0.00    +0.000 A 
ENDBRANCH  22  31
ENDBRANCH  17  22
ENDBRANCH  15  17
ENDBRANCH  13  14
BRANCH  13  33
ATOM     33  C   UNL     1      -6.107   1.192   0.000  0.00  0.00    +0.000 C 
BRANCH  33  34
ATOM     34  C   UNL     1      -6.818   1.610   0.000  0.00  0.00    +0.000 A 
ATOM     35  C   UNL     1      -6.818   2.447   0.000  0.00  0.00    +0.000 A 
ATOM     36  C   UNL     1      -7.529   2.865   0.000  0.00  0.00    +0.000 A 
ATOM     37  C   UNL     1      -8.240   2.447   0.000  0.00  0.00    +0.000 A 
ATOM     38  C   UNL     1      -8.240   1.610   0.000  0.00  0.00    +0.000 A 
ATOM     39  C   UNL     1      -7.529   1.192   0.000  0.00  0.00    +0.000 A 
ATOM     40 CL   UNL     1      -8.951   2.865   0.000  0.00  0.00    +0.000 Cl
ENDBRANCH  33  34
ENDBRANCH  13  33
ENDBRANCH  11  13
ENDBRANCH   9  12
BRANCH   9  41
ATOM     41  C   UNL     1      -3.932  -1.610   0.000  0.00  0.00    +0.000 C 
BRANCH  41  42
ATOM     42  C   UNL     1      -3.221  -2.029   0.000  0.00  0.00    +0.000 A 
ATOM     43  C   UNL     1      -3.221  -2.823   0.000  0.00  0.00    +0.000 A 
ATOM     44  C   UNL     1      -2.510  -3.241   0.000  0.00  0.00    +0.000 A 
ATOM     45  C   UNL     1      -1.798  -2.823   0.000  0.00  0.00    +0.000 A 
ATOM     46  N   UNL     1      -1.798  -2.029   0.000  0.00  0.00    +0.000 NA
ATOM     47  C   UNL     1      -2.510  -1.610   0.000  0.00  0.00    +0.000 A 
ENDBRANCH  41  42
ENDBRANCH   9  41
ENDBRANCH   7   9
ENDBRANCH   5   6
BRANCH   5  48
ATOM     48  C   UNL     1      -1.798   0.565   0.000  0.00  0.00    +0.000 C 
ATOM     49  O   UNL     1      -1.046   0.983   0.000  0.00  0.00    +0.000 OA
ENDBRANCH   5  48
ENDBRANCH   3   5
ENDBRANCH   1   4
BRANCH   1  51
ATOM     50  N   UNL     1       1.757  -0.690   0.000  0.00  0.00    +0.000 NA
ATOM     51  C   UNL     1       1.046  -0.272   0.000  0.00  0.00    +0.000 C 
ATOM     52  O   UNL     1       1.046   0.523   0.000  0.00  0.00    +0.000 OA
BRANCH  50  53
ATOM     53  C   UNL     1       2.468  -0.272   0.000  0.00  0.00    +0.000 C 
BRANCH  53  55
ATOM     54  O   UNL     1       3.179  -1.527   0.000  0.00  0.00    +0.000 OA
ATOM     55  C   UNL     1       3.179  -0.690   0.000  0.00  0.00    +0.000 C 
ATOM     56  N   UNL     1       3.932  -0.272   0.000  0.00  0.00    +0.000 NA
BRANCH  56  57
ATOM     57  C   UNL     1       4.643  -0.690   0.000  0.00  0.00    +0.000 C 
BRANCH  57  59
ATOM     58  N   UNL     1       6.065  -0.690   0.000  0.00  0.00    +0.000 NA
ATOM     59  C   UNL     1       5.354  -0.272   0.000  0.00  0.00    +0.000 C 
ATOM     60  O   UNL     1       5.354   0.523   0.000  0.00  0.00    +0.000 OA
BRANCH  58  61
ATOM     61  C   UNL     1       6.776  -0.272   0.000  0.00  0.00    +0.000 C 
BRANCH  61  63
ATOM     62  O   UNL     1       7.487  -1.527   0.000  0.00  0.00    +0.000 OA
ATOM     63  C   UNL     1       7.487  -0.690   0.000  0.00  0.00    +0.000 C 
ATOM     64  N   UNL     1       8.198  -0.272   0.000  0.00  0.00    +0.000 N 
ATOM     65  C   UNL     1       8.825  -0.774   0.000  0.00  0.00    +0.000 C 
ATOM     66  C   UNL     1       9.495  -0.314   0.000  0.00  0.00    +0.000 C 
ATOM     67  C   UNL     1       9.286   0.481   0.000  0.00  0.00    +0.000 C 
ATOM     68  C   UNL     1       8.491   0.481   0.000  0.00  0.00    +0.000 C 
BRANCH  65  69
ATOM     69  C   UNL     1       8.825  -1.610   0.000  0.00  0.00    +0.000 C 
ATOM     70  O   UNL     1       8.114  -2.029   0.000  0.00  0.00    +0.000 OA
ATOM     71  N   UNL     1       9.578  -2.029   0.000  0.00  0.00    +0.000 NA
BRANCH  71  72
ATOM     72  C   UNL     1      10.289  -1.610   0.000  0.00  0.00    +0.000 C 
ATOM     73  C   UNL     1      10.289  -0.774   0.000  0.00  0.00    +0.000 C 
BRANCH  72  74
ATOM     74  C   UNL     1      10.959  -2.029   0.000  0.00  0.00    +0.000 C 
ATOM     75  N   UNL     1      11.670  -1.610   0.000  0.00  0.00    +0.000 NA
ATOM     76  O   UNL     1      10.959  -2.823   0.000  0.00  0.00    +0.000 OA
ENDBRANCH  72  74
ENDBRANCH  71  72
ENDBRANCH  65  69
ENDBRANCH  61  63
BRANCH  61  77
ATOM     77  C   UNL     1       6.776   0.774   0.000  0.00  0.00    +0.000 C 
BRANCH  77  78
ATOM     78  C   UNL     1       7.529   1.192   0.000  0.00  0.00    +0.000 C 
BRANCH  78  79
ATOM     79  C   UNL     1       8.240   0.774   0.000  0.00  0.00    +0.000 C 
BRANCH  79  80
ATOM     80  C   UNL     1       8.951   1.192   0.000  0.00  0.00    +0.000 C 
BRANCH  80  81
ATOM     81  N   UNL     1       9.662   0.774   0.000  0.00  0.00    +0.000 NA
ATOM     82  C   UNL     1      10.373   1.192   0.000  0.00  0.00    +0.000 C 
ATOM     83  N   UNL     1      11.084   0.774   0.000  0.00  0.00    +0.000 NA
ATOM     84  N   UNL     1      10.373   2.029   0.000  0.00  0.00    +0.000 NA
BRANCH  84  85
ATOM     85  C   UNL     1      11.084   2.447   0.000  0.00  0.00    +0.000 C 
ATOM     86  C   UNL     1      11.795   2.029   0.000  0.00  0.00    +0.000 C 
ENDBRANCH  84  85
BRANCH  83  87
ATOM     87  C   UNL     1      11.795   1.192   0.000  0.00  0.00    +0.000 C 
ATOM     88  C   UNL     1      12.506   0.774   0.000  0.00  0.00    +0.000 C 
ENDBRANCH  83  87
ENDBRANCH  80  81
ENDBRANCH  79  80
ENDBRANCH  78  79
ENDBRANCH  77  78
ENDBRANCH  61  77
ENDBRANCH  58  61
ENDBRANCH  57  59
BRANCH  57  89
ATOM     89  C   UNL     1       4.643  -1.736   0.000  0.00  0.00    +0.000 C 
BRANCH  89  90
ATOM     90  C   UNL     1       5.354  -2.154   0.000  0.00  0.00    +0.000 C 
ATOM     91  C   UNL     1       6.065  -1.736   0.000  0.00  0.00    +0.000 C 
ATOM     92  C   UNL     1       5.354  -2.949   0.000  0.00  0.00    +0.000 C 
ENDBRANCH  89  90
ENDBRANCH  57  89
ENDBRANCH  56  57
ENDBRANCH  53  55
BRANCH  53  93
ATOM     93  C   UNL     1       2.468   1.568   0.000  0.00  0.00    +0.000 C 
BRANCH  93  94
ATOM     94  C   UNL     1       1.757   1.987   0.000  0.00  0.00    +0.000 C 
BRANCH  94  95
ATOM     95  C   UNL     1       1.046   1.568   0.000  0.00  0.00    +0.000 C 
BRANCH  95  96
ATOM     96  C   UNL     1       0.335   1.987   0.000  0.00  0.00    +0.000 C 
BRANCH  96  97
ATOM     97  N   UNL     1      -0.376   1.568   0.000  0.00  0.00    +0.000 NA
ATOM     98  C   UNL     1      -1.087   1.987   0.000  0.00  0.00    +0.000 C 
ATOM     99  N   UNL     1      -1.798   1.568   0.000  0.00  0.00    +0.000 NA
ATOM    100  N   UNL     1      -1.087   2.823   0.000  0.00  0.00    +0.000 NA
BRANCH 100 101
ATOM    101  C   UNL     1      -1.798   3.241   0.000  0.00  0.00    +0.000 C 
ATOM    102  C   UNL     1      -2.510   2.823   0.000  0.00  0.00    +0.000 C 
ENDBRANCH 100 101
BRANCH  99 103
ATOM    103  C   UNL     1      -2.510   1.987   0.000  0.00  0.00    +0.000 C 
ATOM    104  C   UNL     1      -3.221   1.568   0.000  0.00  0.00    +0.000 C 
ENDBRANCH  99 103
ENDBRANCH  96  97
ENDBRANCH  95  96
ENDBRANCH  94  95
ENDBRANCH  93  94
ENDBRANCH  53  93
ENDBRANCH  50  53
ENDBRANCH   1  51
BRANCH   1 105
ATOM    105  C   UNL     1       0.335  -1.568   0.000  0.00  0.00    +0.000 C 
BRANCH 105 106
ATOM    106  C   UNL     1       1.046  -1.987   0.000  0.00  0.00    +0.000 A 
ATOM    107  C   UNL     1       1.046  -2.781   0.000  0.00  0.00    +0.000 A 
ATOM    108  C   UNL     1       1.757  -3.200   0.000  0.00  0.00    +0.000 A 
ATOM    109  C   UNL     1       2.510  -2.781   0.000  0.00  0.00    +0.000 A 
ATOM    110  C   UNL     1       2.510  -1.987   0.000  0.00  0.00    +0.000 A 
ATOM    111  C   UNL     1       1.757  -1.568   0.000  0.00  0.00    +0.000 A 
ATOM    112  O   UNL     1       3.221  -3.200   0.000  0.00  0.00    +0.000 OA
ENDBRANCH 105 106
ENDBRANCH   1 105
TORSDOF 44
