REMARK  Name = 
REMARK  8 active torsions:
REMARK  status: ('A' for Active; 'I' for Inactive)
REMARK    1  A    between atoms: C_4  and  C_5
REMARK    2  A    between atoms: C_4  and  C_6
REMARK    3  A    between atoms: C_4  and  N_7
REMARK    4  A    between atoms: C_5  and  C_12
REMARK    5  A    between atoms: C_10  and  C_12
REMARK    6  A    between atoms: C_15  and  C_16
REMARK    7  A    between atoms: C_16  and  CA_17
REMARK    8  A    between atoms: CA_17  and  C_20
REMARK                            x       y       z     vdW  Elec       q    Type
REMARK                         _______ _______ _______ _____ _____    ______ ____
ROOT
ATOM      1  N   UNL     1       0.000   0.000   0.000  0.00  0.00    +0.000 NA
ATOM      2  C   UNL     1       0.412  -1.270   0.000  0.00  0.00    +0.000 A 
ATOM      3  C   UNL     1      -0.667  -0.485   0.000  0.00  0.00    +0.000 A 
ATOM      4  N   UNL     1      -0.412  -1.270   0.000  0.00  0.00    +0.000 NA
ATOM      5  C   UNL     1       0.667  -0.485   0.000  0.00  0.00    +0.000 A 
ENDROOT
BRANCH   3   6
ATOM      6  C   UNL     1      -1.382  -0.072   0.000  0.00  0.00    +0.000 C 
BRANCH   6   7
ATOM      7  C   UNL     1      -2.096  -0.485   0.000  0.00  0.00    +0.000 C 
BRANCH   7   8
ATOM      8  C   UNL     1      -2.811  -0.072   0.000  0.00  0.00    +0.000 C 
BRANCH   8  11
ATOM      9  C   UNL     1      -2.096   1.165   0.000  0.00  0.00    +0.000 C 
ATOM     10  C   UNL     1      -3.525   1.165   0.000  0.00  0.00    +0.000 C 
ATOM     11  N   UNL     1      -2.811   0.752   0.000  0.00  0.00    +0.000 N 
ATOM     12  C   UNL     1      -2.811   1.578   0.000  0.00  0.00    +0.000 C 
ENDBRANCH   8  11
BRANCH   8  13
ATOM     13  C   UNL     1      -3.525  -0.485   0.000  0.00  0.00    +0.000 C 
ATOM     14  N   UNL     1      -4.240  -0.072   0.000  0.00  0.00    +0.000 NA
ATOM     15  O   UNL     1      -3.525  -1.310   0.000  0.00  0.00    +0.000 OA
ENDBRANCH   8  13
ENDBRANCH   7   8
ENDBRANCH   6   7
ENDBRANCH   3   6
BRANCH   5  16
ATOM     16  C   UNL     1       1.382  -0.072   0.000  0.00  0.00    +0.000 C 
BRANCH  16  17
ATOM     17  CA  UNL     1       2.096  -0.485   0.000  0.00  0.00    +0.000 C 
ATOM     18  N   UNL     1       2.096  -1.310   0.000  0.00  0.00    +0.000 NA
BRANCH  17  20
ATOM     19  O   UNL     1       3.525  -0.485   0.000  0.00  0.00    +0.000 OA
ATOM     20  C   UNL     1       2.811  -0.072   0.000  0.00  0.00    +0.000 C 
ATOM     21  OXT UNL     1       2.811   0.753   0.000  0.00  0.00    +0.000 OA
ENDBRANCH  17  20
ENDBRANCH  16  17
ENDBRANCH   5  16
TORSDOF 8
