REMARK  Name = 
REMARK  0 active torsions:
REMARK  status: ('A' for Active; 'I' for Inactive)
REMARK                            x       y       z     vdW  Elec       q    Type
REMARK                         _______ _______ _______ _____ _____    ______ ____
ROOT
ATOM      1  CA  GLY A   1      -1.424   0.408   0.000  0.00  0.00    +0.000 C 
ATOM      2  N   GLY A   1      -1.424  -0.417   0.000  0.00  0.00    +0.000 NA
ATOM      3  C   PRO A   2      -0.712  -0.825   0.000  0.00  0.00    +0.000 C 
ATOM      4  C   GLY A   1      -0.712   0.825   0.000  0.00  0.00    +0.000 C 
ATOM      5  N   PRO A   2      -0.000   0.408   0.000  0.00  0.00    +0.000 N 
ATOM      6  CA  PRO A   2      -0.004  -0.417   0.000  0.00  0.00    +0.000 C 
ATOM      7  CB  PRO A   2       1.421  -0.423   0.000  0.00  0.00    +0.000 C 
ATOM      8  CG  PRO A   2       1.424   0.402   0.000  0.00  0.00    +0.000 C 
ATOM      9  CD  PRO A   2       0.712   0.822   0.000  0.00  0.00    +0.000 C 
ATOM     10  O   GLY A   1      -0.712   1.650   0.000  0.00  0.00    +0.000 OA
ATOM     11  O   PRO A   2      -0.711  -1.650   0.000  0.00  0.00    +0.000 OA
ENDROOT
TORSDOF 0
