REMARK  Name = 
REMARK  3 active torsions:
REMARK  status: ('A' for Active; 'I' for Inactive)
REMARK    1  A    between atoms: N_4  and  C_12
REMARK    2  A    between atoms: C_8  and  C_15
REMARK    3  A    between atoms: C_12  and  C_13
REMARK                            x       y       z     vdW  Elec       q    Type
REMARK                         _______ _______ _______ _____ _____    ______ ____
ROOT
ATOM      1  O   UNL     1      -1.896   2.041   0.000  0.00  0.00    +0.000 OA
ATOM      2  N   UNL     1      -0.401   1.054   0.000  0.00  0.00    +0.000 N 
ATOM      3  N   UNL     1      -1.896  -0.435   0.000  0.00  0.00    +0.000 NA
ATOM      4  N   UNL     1      -2.611   0.803   0.000  0.00  0.00    +0.000 N 
ATOM      5  C   UNL     1      -0.401  -0.274   0.000  0.00  0.00    +0.000 C 
ATOM      6  C   UNL     1      -1.182  -0.022   0.000  0.00  0.00    +0.000 C 
ATOM      7  C   UNL     1      -1.182   0.803   0.000  0.00  0.00    +0.000 C 
ATOM      8  C   UNL     1       0.081   0.390   0.000  0.00  0.00    +0.000 C 
ATOM      9  C   UNL     1      -1.896   1.215   0.000  0.00  0.00    +0.000 C 
ATOM     10  C   UNL     1      -2.611  -0.022   0.000  0.00  0.00    +0.000 C 
ATOM     11  H   UNL     1      -0.242   1.540   0.000  0.00  0.00    +0.000 HD
ATOM     12  H   UNL     1      -3.054   1.059   0.000  0.00  0.00    +0.000 HD
ENDROOT
BRANCH   5  13
ATOM     13  C   UNL     1      -0.145  -1.058   0.000  0.00  0.00    +0.000 C 
BRANCH  13  15
ATOM     14  O   UNL     1       2.064   0.382   0.000  0.00  0.00    +0.000 OA
ATOM     15  N   UNL     1       0.663  -1.228   0.000  0.00  0.00    +0.000 N 
ATOM     16  C   UNL     1       1.990  -1.086   0.000  0.00  0.00    +0.000 C 
ATOM     17  C   UNL     1       1.378  -1.639   0.000  0.00  0.00    +0.000 C 
ATOM     18  C   UNL     1       0.833  -0.421   0.000  0.00  0.00    +0.000 C 
ATOM     19  C   UNL     1       1.653  -0.333   0.000  0.00  0.00    +0.000 C 
ATOM     20  H   UNL     1       0.251  -1.943   0.000  0.00  0.00    +0.000 HD
BRANCH  16  22
ATOM     21  O   UNL     1       3.054  -2.041   0.000  0.00  0.00    +0.000 OA
ATOM     22  C   UNL     1       2.797  -1.256   0.000  0.00  0.00    +0.000 C 
ENDBRANCH  16  22
ENDBRANCH  13  15
ENDBRANCH   5  13
TORSDOF 3
