REMARK  Name = 
REMARK  10 active torsions:
REMARK  status: ('A' for Active; 'I' for Inactive)
REMARK    1  A    between atoms: C_2  and  C_3
REMARK    2  A    between atoms: C_3  and  C_4
REMARK    3  A    between atoms: C_4  and  C_5
REMARK    4  A    between atoms: N_9  and  C_10
REMARK    5  A    between atoms: C_10  and  C_11
REMARK    6  A    between atoms: C_11  and  N_12
REMARK    7  A    between atoms: N_12  and  C_13
REMARK    8  A    between atoms: N_12  and  C_15
REMARK    9  A    between atoms: C_19  and  C_21
REMARK   10  A    between atoms: C_22  and  C_23
REMARK                            x       y       z     vdW  Elec       q    Type
REMARK                         _______ _______ _______ _____ _____    ______ ____
ROOT
ATOM      1  C   UNL     1      -1.184   0.459   0.000  0.00  0.00    +0.000 A 
ATOM      2  N   UNL     1      -0.699   1.127   0.000  0.00  0.00    +0.000 NA
ATOM      3  C   UNL     1       0.086   0.872   0.000  0.00  0.00    +0.000 A 
ATOM      4  C   UNL     1       0.086   0.047   0.000  0.00  0.00    +0.000 A 
ATOM      5  N   UNL     1      -0.699  -0.208   0.000  0.00  0.00    +0.000 N 
ATOM      6  C   UNL     1       0.800  -0.366   0.000  0.00  0.00    +0.000 A 
ATOM      7  C   UNL     1       1.515   0.047   0.000  0.00  0.00    +0.000 A 
ATOM      8  C   UNL     1       1.515   0.872   0.000  0.00  0.00    +0.000 A 
ATOM      9  C   UNL     1       0.800   1.284   0.000  0.00  0.00    +0.000 A 
ENDROOT
BRANCH   8  10
ATOM     10  C   UNL     1       2.229   1.284   0.000  0.00  0.00    +0.000 C 
ATOM     11  C   UNL     1       2.230   2.109   0.000  0.00  0.00    +0.000 C 
BRANCH  11  12
ATOM     12  C   UNL     1       2.944   2.522   0.000  0.00  0.00    +0.000 C 
ATOM     13  O   UNL     1       2.944   3.347   0.000  0.00  0.00    +0.000 OA
ATOM     14  N   UNL     1       3.659   2.109   0.000  0.00  0.00    +0.000 NA
ATOM     15  O   UNL     1       3.658   1.284   0.000  0.00  0.00    +0.000 OA
ENDBRANCH  11  12
ENDBRANCH   8  10
BRANCH   1  16
ATOM     16  C   UNL     1      -2.009   0.459   0.000  0.00  0.00    +0.000 C 
BRANCH  16  17
ATOM     17  C   UNL     1      -2.421   1.174   0.000  0.00  0.00    +0.000 C 
BRANCH  17  19
ATOM     18  C   UNL     1      -3.659   1.888   0.000  0.00  0.00    +0.000 C 
ATOM     19  C   UNL     1      -3.246   1.174   0.000  0.00  0.00    +0.000 C 
ENDBRANCH  17  19
ENDBRANCH  16  17
ENDBRANCH   1  16
BRANCH   5  20
ATOM     20  C   UNL     1      -0.954  -0.993   0.000  0.00  0.00    +0.000 C 
BRANCH  20  21
ATOM     21  C   UNL     1      -1.761  -1.164   0.000  0.00  0.00    +0.000 C 
BRANCH  21  22
ATOM     22  N   UNL     1      -2.016  -1.949   0.000  0.00  0.00    +0.000 NA
BRANCH  22  23
ATOM     23  C   UNL     1      -2.822  -2.120   0.000  0.00  0.00    +0.000 C 
ATOM     24  C   UNL     1      -3.078  -2.905   0.000  0.00  0.00    +0.000 C 
ENDBRANCH  22  23
BRANCH  22  25
ATOM     25  C   UNL     1      -1.464  -2.562   0.000  0.00  0.00    +0.000 C 
ATOM     26  C   UNL     1      -1.718  -3.347   0.000  0.00  0.00    +0.000 C 
ENDBRANCH  22  25
ENDBRANCH  21  22
ENDBRANCH  20  21
ENDBRANCH   5  20
TORSDOF 10
