REMARK  Name = 
REMARK  2 active torsions:
REMARK  status: ('A' for Active; 'I' for Inactive)
REMARK    1  A    between atoms: C_5  and  C_6
REMARK    2  A    between atoms: N_8  and  C_9
REMARK                            x       y       z     vdW  Elec       q    Type
REMARK                         _______ _______ _______ _____ _____    ______ ____
ROOT
ATOM      1  C   UNL     1       2.326  -4.412   0.000  0.00  0.00    +0.000 C 
ATOM      2  O   UNL     1       1.991  -5.166   0.000  0.00  0.00    +0.000 OA
ATOM      3  N   UNL     1       3.147  -4.326   0.000  0.00  0.00    +0.000 NA
ENDROOT
BRANCH   1   8
ATOM      4  C   UNL     1       1.429  -1.650   0.000  0.00  0.00    +0.000 C 
ATOM      5  C   UNL     1       1.429  -2.475   0.000  0.00  0.00    +0.000 A 
ATOM      6  C   UNL     1       2.096  -2.960   0.000  0.00  0.00    +0.000 A 
ATOM      7  C   UNL     1       2.881  -2.705   0.000  0.00  0.00    +0.000 C 
ATOM      8  C   UNL     1       1.841  -3.744   0.000  0.00  0.00    +0.000 A 
ATOM      9  C   UNL     1       1.016  -3.744   0.000  0.00  0.00    +0.000 A 
ATOM     10  C   UNL     1       0.531  -4.412   0.000  0.00  0.00    +0.000 C 
ATOM     11  O   UNL     1       0.761  -2.960   0.000  0.00  0.00    +0.000 OA
ENDBRANCH   1   8
BRANCH   3  12
ATOM     12  C   UNL     1       3.632  -4.993   0.000  0.00  0.00    +0.000 A 
ATOM     13  C   UNL     1       4.452  -4.907   0.000  0.00  0.00    +0.000 A 
ATOM     14  C   UNL     1       4.937  -5.574   0.000  0.00  0.00    +0.000 A 
ATOM     15  C   UNL     1       4.602  -6.328   0.000  0.00  0.00    +0.000 A 
ATOM     16  C   UNL     1       3.781  -6.414   0.000  0.00  0.00    +0.000 A 
ATOM     17  C   UNL     1       3.296  -5.747   0.000  0.00  0.00    +0.000 A 
ENDBRANCH   3  12
TORSDOF 2
