REMARK  Name = 
REMARK  0 active torsions:
REMARK  status: ('A' for Active; 'I' for Inactive)
REMARK                            x       y       z     vdW  Elec       q    Type
REMARK                         _______ _______ _______ _____ _____    ______ ____
ROOT
ATOM      1  N   UNL     1      -0.496  -0.942   0.000  0.00  0.00    +0.000 NA
ATOM      2  C   UNL     1      -0.010  -0.294   0.000  0.00  0.00    +0.000 C 
ATOM      3  C   UNL     1      -1.267  -0.720   0.000  0.00  0.00    +0.000 A 
ATOM      4  C   UNL     1      -1.267   0.132   0.000  0.00  0.00    +0.000 A 
ATOM      5  C   UNL     1      -0.496   0.375   0.000  0.00  0.00    +0.000 C 
ATOM      6  C   UNL     1      -1.996  -1.105   0.000  0.00  0.00    +0.000 A 
ATOM      7  C   UNL     1      -1.996   0.537   0.000  0.00  0.00    +0.000 A 
ATOM      8  C   UNL     1      -2.685   0.132   0.000  0.00  0.00    +0.000 A 
ATOM      9  C   UNL     1      -2.685  -0.720   0.000  0.00  0.00    +0.000 A 
ATOM     10  N   UNL     1       2.057  -0.699   0.000  0.00  0.00    +0.000 NA
ATOM     11  C   UNL     1       1.287  -0.963   0.000  0.00  0.00    +0.000 C 
ATOM     12  C   UNL     1       2.098   0.111   0.000  0.00  0.00    +0.000 A 
ATOM     13  C   UNL     1       1.287   0.375   0.000  0.00  0.00    +0.000 A 
ATOM     14  C   UNL     1       0.821  -0.294   0.000  0.00  0.00    +0.000 C 
ATOM     15  C   UNL     1       2.685   0.679   0.000  0.00  0.00    +0.000 A 
ATOM     16  C   UNL     1       1.125   1.186   0.000  0.00  0.00    +0.000 A 
ATOM     17  C   UNL     1       1.712   1.712   0.000  0.00  0.00    +0.000 A 
ATOM     18  C   UNL     1       2.523   1.449   0.000  0.00  0.00    +0.000 A 
ATOM     19  O   UNL     1       1.023  -1.753   0.000  0.00  0.00    +0.000 OA
ATOM     20  N   UNL     1      -0.233   1.145   0.000  0.00  0.00    +0.000 NA
ATOM     21  O   UNL     1      -0.800   1.753   0.000  0.00  0.00    +0.000 OA
ENDROOT
TORSDOF 0
