REMARK  Name = 
REMARK  1 active torsions:
REMARK  status: ('A' for Active; 'I' for Inactive)
REMARK    1  A    between atoms: C_7  and  C_13
REMARK                            x       y       z     vdW  Elec       q    Type
REMARK                         _______ _______ _______ _____ _____    ______ ____
ROOT
ATOM      1  C   UNL     1      -1.058   0.220   0.000  0.00  0.00    +0.000 A 
ATOM      2  C   UNL     1      -1.058  -0.605   0.000  0.00  0.00    +0.000 A 
ATOM      3  O   UNL     1      -0.347   0.605   0.000  0.00  0.00    +0.000 OA
ATOM      4  C   UNL     1      -1.778   0.605   0.000  0.00  0.00    +0.000 A 
ATOM      5  C   UNL     1      -0.347  -1.025   0.000  0.00  0.00    +0.000 A 
ATOM      6  C   UNL     1      -1.778  -1.025   0.000  0.00  0.00    +0.000 A 
ATOM      7  C   UNL     1       0.352   0.220   0.000  0.00  0.00    +0.000 A 
ATOM      8  C   UNL     1      -2.526   0.220   0.000  0.00  0.00    +0.000 A 
ATOM      9  C   UNL     1       0.352  -0.605   0.000  0.00  0.00    +0.000 A 
ATOM     10  O   UNL     1      -0.347  -1.863   0.000  0.00  0.00    +0.000 OA
ATOM     11  C   UNL     1      -2.526  -0.605   0.000  0.00  0.00    +0.000 A 
ATOM     12  O   UNL     1      -1.778  -1.863   0.000  0.00  0.00    +0.000 OA
ATOM     13  O   UNL     1      -3.284   0.605   0.000  0.00  0.00    +0.000 OA
ENDROOT
BRANCH   7  14
ATOM     14  C   UNL     1       1.025   0.605   0.000  0.00  0.00    +0.000 A 
ATOM     15  C   UNL     1       1.737   0.220   0.000  0.00  0.00    +0.000 A 
ATOM     16  C   UNL     1       1.025   1.443   0.000  0.00  0.00    +0.000 A 
ATOM     17  C   UNL     1       2.446   0.605   0.000  0.00  0.00    +0.000 A 
ATOM     18  C   UNL     1       1.737   1.863   0.000  0.00  0.00    +0.000 A 
ATOM     19  C   UNL     1       2.446   1.443   0.000  0.00  0.00    +0.000 A 
ATOM     20  O   UNL     1       3.204   0.184   0.000  0.00  0.00    +0.000 OA
ATOM     21  O   UNL     1       3.284   1.816   0.000  0.00  0.00    +0.000 OA
ENDBRANCH   7  14
TORSDOF 1
