REMARK  Name = 
REMARK  4 active torsions:
REMARK  status: ('A' for Active; 'I' for Inactive)
REMARK    1  A    between atoms: C_25  and  C_41
REMARK    2  A    between atoms: C_26  and  C_42
REMARK    3  A    between atoms: C_27  and  C_43
REMARK    4  A    between atoms: C_28  and  C_44
REMARK                            x       y       z     vdW  Elec       q    Type
REMARK                         _______ _______ _______ _____ _____    ______ ____
ROOT
ATOM      1  C   UNL     1      -1.482  -2.062   0.000  0.00  0.00    +0.000 C 
ATOM      2  C   UNL     1       1.504  -2.036   0.000  0.00  0.00    +0.000 A 
ATOM      3  C   UNL     1      -2.043  -1.511   0.000  0.00  0.00    +0.000 C 
ATOM      4  C   UNL     1       2.056  -1.475   0.000  0.00  0.00    +0.000 A 
ATOM      5  C   UNL     1      -2.039   1.417   0.000  0.00  0.00    +0.000 A 
ATOM      6  C   UNL     1       2.030   1.511   0.000  0.00  0.00    +0.000 C 
ATOM      7  C   UNL     1      -1.459   2.008   0.000  0.00  0.00    +0.000 A 
ATOM      8  C   UNL     1       1.469   2.062   0.000  0.00  0.00    +0.000 C 
ATOM      9  C   UNL     1      -0.724  -1.646   0.000  0.00  0.00    +0.000 C 
ATOM     10  C   UNL     1       0.711  -1.663   0.000  0.00  0.00    +0.000 A 
ATOM     11  C   UNL     1      -1.669  -0.747   0.000  0.00  0.00    +0.000 C 
ATOM     12  C   UNL     1       1.668  -0.688   0.000  0.00  0.00    +0.000 A 
ATOM     13  C   UNL     1      -1.682   0.717   0.000  0.00  0.00    +0.000 A 
ATOM     14  C   UNL     1       1.627   0.746   0.000  0.00  0.00    +0.000 C 
ATOM     15  C   UNL     1      -0.724   1.663   0.000  0.00  0.00    +0.000 A 
ATOM     16  C   UNL     1       0.711   1.675   0.000  0.00  0.00    +0.000 C 
ATOM     17  C   UNL     1       0.011  -2.049   0.000  0.00  0.00    +0.000 C 
ATOM     18  C   UNL     1      -2.056  -0.047   0.000  0.00  0.00    +0.000 C 
ATOM     19  C   UNL     1       2.043   0.018   0.000  0.00  0.00    +0.000 C 
ATOM     20  C   UNL     1       0.005   2.050   0.000  0.00  0.00    +0.000 C 
ATOM     21  N   UNL     1      -0.848  -0.886   0.000  0.00  0.00    +0.000 NA
ATOM     22  N   UNL     1       0.850  -0.871   0.000  0.00  0.00    +0.000 NA
ATOM     23  N   UNL     1      -0.893   0.871   0.000  0.00  0.00    +0.000 NA
ATOM     24  N   UNL     1       0.864   0.857   0.000  0.00  0.00    +0.000 NA
ENDROOT
BRANCH  17  29
ATOM     25  C   UNL     1       0.729  -4.111   0.000  0.00  0.00    +0.000 A 
ATOM     26  C   UNL     1       0.728  -3.286   0.000  0.00  0.00    +0.000 A 
ATOM     27  C   UNL     1       0.015  -4.524   0.000  0.00  0.00    +0.000 A 
ATOM     28  C   UNL     1      -0.701  -3.288   0.000  0.00  0.00    +0.000 A 
ATOM     29  C   UNL     1       0.013  -2.874   0.000  0.00  0.00    +0.000 A 
ATOM     30  C   UNL     1      -0.700  -4.113   0.000  0.00  0.00    +0.000 A 
ATOM     31  O   UNL     1      -1.414  -4.527   0.000  0.00  0.00    +0.000 OA
ENDBRANCH  17  29
BRANCH  18  36
ATOM     32  C   UNL     1      -4.100  -0.813   0.000  0.00  0.00    +0.000 A 
ATOM     33  C   UNL     1      -3.275  -0.793   0.000  0.00  0.00    +0.000 A 
ATOM     34  C   UNL     1      -4.530  -0.110   0.000  0.00  0.00    +0.000 A 
ATOM     35  C   UNL     1      -3.311   0.636   0.000  0.00  0.00    +0.000 A 
ATOM     36  C   UNL     1      -2.881  -0.068   0.000  0.00  0.00    +0.000 A 
ATOM     37  C   UNL     1      -4.136   0.615   0.000  0.00  0.00    +0.000 A 
ATOM     38  O   UNL     1      -4.566   1.319   0.000  0.00  0.00    +0.000 OA
ENDBRANCH  18  36
BRANCH  19  43
ATOM     39  C   UNL     1       4.094   0.765   0.000  0.00  0.00    +0.000 A 
ATOM     40  C   UNL     1       3.269   0.752   0.000  0.00  0.00    +0.000 A 
ATOM     41  C   UNL     1       4.517   0.057   0.000  0.00  0.00    +0.000 A 
ATOM     42  C   UNL     1       3.291  -0.677   0.000  0.00  0.00    +0.000 A 
ATOM     43  C   UNL     1       2.868   0.031   0.000  0.00  0.00    +0.000 A 
ATOM     44  C   UNL     1       4.116  -0.664   0.000  0.00  0.00    +0.000 A 
ATOM     45  O   UNL     1       4.540  -1.372   0.000  0.00  0.00    +0.000 OA
ENDBRANCH  19  43
BRANCH  20  50
ATOM     46  C   UNL     1      -0.710   4.112   0.000  0.00  0.00    +0.000 A 
ATOM     47  C   UNL     1      -0.710   3.287   0.000  0.00  0.00    +0.000 A 
ATOM     48  C   UNL     1       0.004   4.525   0.000  0.00  0.00    +0.000 A 
ATOM     49  C   UNL     1       0.719   3.287   0.000  0.00  0.00    +0.000 A 
ATOM     50  C   UNL     1       0.004   2.875   0.000  0.00  0.00    +0.000 A 
ATOM     51  C   UNL     1       0.719   4.112   0.000  0.00  0.00    +0.000 A 
ATOM     52  O   UNL     1       1.433   4.525   0.000  0.00  0.00    +0.000 OA
ENDBRANCH  20  50
TORSDOF 4
