REMARK  Name = 
REMARK  7 active torsions:
REMARK  status: ('A' for Active; 'I' for Inactive)
REMARK    1  A    between atoms: C_5  and  C_7
REMARK    2  A    between atoms: C_7  and  C_8
REMARK    3  A    between atoms: C_7  and  N_9
REMARK    4  A    between atoms: N_17  and  C_20
REMARK    5  A    between atoms: C_20  and  C_21
REMARK    6  A    between atoms: C_21  and  C_22
REMARK    7  A    between atoms: C_22  and  N_23
REMARK                            x       y       z     vdW  Elec       q    Type
REMARK                         _______ _______ _______ _____ _____    ______ ____
ROOT
ATOM      1  N   UNL     1      -1.266  -0.858   0.000  0.00  0.00    +0.000 NA
ATOM      2  C   UNL     1      -0.550  -0.448   0.000  0.00  0.00    +0.000 C 
ATOM      3  C   UNL     1      -0.550   0.377   0.000  0.00  0.00    +0.000 C 
ATOM      4  N   UNL     1      -1.264   0.790   0.000  0.00  0.00    +0.000 NA
ATOM      5  C   UNL     1      -1.979   0.378   0.000  0.00  0.00    +0.000 C 
ATOM      6  C   UNL     1      -1.980  -0.447   0.000  0.00  0.00    +0.000 C 
ENDROOT
BRANCH   1   7
ATOM      7  C   UNL     1      -1.266  -1.683   0.000  0.00  0.00    +0.000 C 
BRANCH   7  12
ATOM      8  C   UNL     1      -3.410  -2.095   0.000  0.00  0.00    +0.000 A 
ATOM      9  C   UNL     1      -3.410  -2.921   0.000  0.00  0.00    +0.000 A 
ATOM     10  C   UNL     1      -2.693  -3.333   0.000  0.00  0.00    +0.000 A 
ATOM     11  C   UNL     1      -1.981  -2.921   0.000  0.00  0.00    +0.000 A 
ATOM     12  C   UNL     1      -1.981  -2.095   0.000  0.00  0.00    +0.000 A 
ATOM     13  C   UNL     1      -2.693  -1.683   0.000  0.00  0.00    +0.000 A 
ENDBRANCH   7  12
BRANCH   7  14
ATOM     14  C   UNL     1      -0.552  -2.096   0.000  0.00  0.00    +0.000 A 
ATOM     15  C   UNL     1      -0.556  -2.920   0.000  0.00  0.00    +0.000 A 
ATOM     16  C   UNL     1       0.158  -3.333   0.000  0.00  0.00    +0.000 A 
ATOM     17  C   UNL     1       0.873  -2.921   0.000  0.00  0.00    +0.000 A 
ATOM     18  C   UNL     1       0.873  -2.096   0.000  0.00  0.00    +0.000 A 
ATOM     19  C   UNL     1       0.159  -1.683   0.000  0.00  0.00    +0.000 A 
ENDBRANCH   7  14
ENDBRANCH   1   7
BRANCH   4  20
ATOM     20  C   UNL     1      -1.263   1.615   0.000  0.00  0.00    +0.000 C 
BRANCH  20  21
ATOM     21  C   UNL     1      -0.549   2.027   0.000  0.00  0.00    +0.000 C 
BRANCH  21  22
ATOM     22  C   UNL     1       0.166   1.613   0.000  0.00  0.00    +0.000 C 
BRANCH  22  23
ATOM     23  N   UNL     1       0.889   2.030   0.000  0.00  0.00    +0.000 N 
ATOM     24  C   UNL     1       0.889   2.854   0.000  0.00  0.00    +0.000 A 
ATOM     25  C   UNL     1       1.673   1.775   0.000  0.00  0.00    +0.000 A 
ATOM     26  C   UNL     1       2.157   2.442   0.000  0.00  0.00    +0.000 A 
ATOM     27  N   UNL     1       1.673   3.109   0.000  0.00  0.00    +0.000 NA
ATOM     28  O   UNL     1       0.229   3.333   0.000  0.00  0.00    +0.000 OA
ATOM     29  C   UNL     1       2.989   2.442   0.000  0.00  0.00    +0.000 A 
ATOM     30  C   UNL     1       3.410   1.714   0.000  0.00  0.00    +0.000 A 
ATOM     31  C   UNL     1       2.999   1.003   0.000  0.00  0.00    +0.000 A 
ATOM     32  C   UNL     1       2.165   1.002   0.000  0.00  0.00    +0.000 A 
ENDBRANCH  22  23
ENDBRANCH  21  22
ENDBRANCH  20  21
ENDBRANCH   4  20
TORSDOF 7
