REMARK  Name = 
REMARK  2 active torsions:
REMARK  status: ('A' for Active; 'I' for Inactive)
REMARK    1  A    between atoms: C_2  and  C_5
REMARK    2  A    between atoms: C_15  and  C_16
REMARK                            x       y       z     vdW  Elec       q    Type
REMARK                         _______ _______ _______ _____ _____    ______ ____
ROOT
ATOM      1  N   UNL     1       0.083  -1.657   0.000  0.00  0.00    +0.000 N 
ATOM      2  C   UNL     1      -0.635  -1.239   0.000  0.00  0.00    +0.000 C 
ATOM      3  C   UNL     1       0.079  -2.482   0.000  0.00  0.00    +0.000 A 
ATOM      4  C   UNL     1       0.870  -1.405   0.000  0.00  0.00    +0.000 A 
ATOM      5  C   UNL     1      -1.346  -1.657   0.000  0.00  0.00    +0.000 C 
ATOM      6  C   UNL     1      -0.635  -2.889   0.000  0.00  0.00    +0.000 C 
ATOM      7  C   UNL     1       0.863  -2.741   0.000  0.00  0.00    +0.000 A 
ATOM      8  N   UNL     1       1.353  -2.075   0.000  0.00  0.00    +0.000 NA
ATOM      9  C   UNL     1      -1.346  -2.482   0.000  0.00  0.00    +0.000 C 
ENDROOT
BRANCH   2  10
ATOM     10  C   UNL     1      -0.635  -0.414   0.000  0.00  0.00    +0.000 A 
ATOM     11  C   UNL     1      -1.353  -0.003   0.000  0.00  0.00    +0.000 A 
ATOM     12  C   UNL     1       0.076  -0.003   0.000  0.00  0.00    +0.000 A 
ATOM     13  C   UNL     1      -1.353   0.822   0.000  0.00  0.00    +0.000 A 
ATOM     14  C   UNL     1       0.079   0.822   0.000  0.00  0.00    +0.000 A 
ATOM     15  C   UNL     1      -0.639   1.236   0.000  0.00  0.00    +0.000 A 
BRANCH  15  16
ATOM     16  C   UNL     1      -0.639   2.064   0.000  0.00  0.00    +0.000 C 
ATOM     17  N   UNL     1      -0.635   2.889   0.000  0.00  0.00    +0.000 NA
ENDBRANCH  15  16
ENDBRANCH   2  10
TORSDOF 2
