REMARK  Name = 
REMARK  8 active torsions:
REMARK  status: ('A' for Active; 'I' for Inactive)
REMARK    1  A    between atoms: O_1  and  C_12
REMARK    2  A    between atoms: N_4  and  C_13
REMARK    3  A    between atoms: N_5  and  C_6
REMARK    4  A    between atoms: N_5  and  C_14
REMARK    5  A    between atoms: C_6  and  C_12
REMARK    6  A    between atoms: C_13  and  C_16
REMARK    7  A    between atoms: C_15  and  C_17
REMARK    8  A    between atoms: C_16  and  C_20
REMARK                            x       y       z     vdW  Elec       q    Type
REMARK                         _______ _______ _______ _____ _____    ______ ____
ROOT
ATOM      1  N   UNL     1      -0.619  -0.280   0.000  0.00  0.00    +0.000 NA
ATOM      2  C   UNL     1      -0.619   1.370   0.000  0.00  0.00    +0.000 C 
ATOM      3  C   UNL     1      -1.333   0.958   0.000  0.00  0.00    +0.000 C 
ATOM      4  C   UNL     1       0.096   0.958   0.000  0.00  0.00    +0.000 C 
ATOM      5  C   UNL     1      -1.333   0.133   0.000  0.00  0.00    +0.000 C 
ATOM      6  C   UNL     1       0.096   0.133   0.000  0.00  0.00    +0.000 C 
ATOM      7  C   UNL     1      -2.048   1.370   0.000  0.00  0.00    +0.000 C 
ENDROOT
BRANCH   2   9
ATOM      8  O   UNL     1      -0.695   3.428   0.000  0.00  0.00    +0.000 OA
ATOM      9  N   UNL     1      -0.206   2.085   0.000  0.00  0.00    +0.000 N 
ATOM     10  C   UNL     1      -0.063   2.897   0.000  0.00  0.00    +0.000 C 
BRANCH   9  11
ATOM     11  C   UNL     1       0.619   2.085   0.000  0.00  0.00    +0.000 A 
ATOM     12  C   UNL     1       1.031   2.799   0.000  0.00  0.00    +0.000 A 
ATOM     13  C   UNL     1       1.031   1.370   0.000  0.00  0.00    +0.000 A 
ATOM     14  C   UNL     1       1.856   2.799   0.000  0.00  0.00    +0.000 A 
ATOM     15  C   UNL     1       1.856   1.370   0.000  0.00  0.00    +0.000 A 
ATOM     16  C   UNL     1       2.269   2.085   0.000  0.00  0.00    +0.000 A 
ENDBRANCH   9  11
BRANCH  10  17
ATOM     17  C   UNL     1       0.712   3.179   0.000  0.00  0.00    +0.000 C 
ATOM     18  C   UNL     1       0.856   3.992   0.000  0.00  0.00    +0.000 C 
ENDBRANCH  10  17
ENDBRANCH   2   9
BRANCH   2  20
ATOM     19  O   UNL     1      -1.174   2.897   0.000  0.00  0.00    +0.000 OA
ATOM     20  C   UNL     1      -1.031   2.085   0.000  0.00  0.00    +0.000 C 
BRANCH  20  21
ATOM     21  O   UNL     1      -1.856   2.085   0.000  0.00  0.00    +0.000 OA
ATOM     22  C   UNL     1      -2.269   2.799   0.000  0.00  0.00    +0.000 C 
ENDBRANCH  20  21
ENDBRANCH   2  20
BRANCH   1  23
ATOM     23  C   UNL     1      -0.619  -1.105   0.000  0.00  0.00    +0.000 C 
BRANCH  23  24
ATOM     24  C   UNL     1      -1.333  -1.517   0.000  0.00  0.00    +0.000 C 
BRANCH  24  25
ATOM     25  C   UNL     1      -1.333  -2.342   0.000  0.00  0.00    +0.000 A 
ATOM     26  C   UNL     1      -0.619  -2.755   0.000  0.00  0.00    +0.000 A 
ATOM     27  C   UNL     1      -2.048  -2.755   0.000  0.00  0.00    +0.000 A 
ATOM     28  C   UNL     1      -0.619  -3.579   0.000  0.00  0.00    +0.000 A 
ATOM     29  C   UNL     1      -2.048  -3.579   0.000  0.00  0.00    +0.000 A 
ATOM     30  C   UNL     1      -1.333  -3.992   0.000  0.00  0.00    +0.000 A 
ENDBRANCH  24  25
ENDBRANCH  23  24
ENDBRANCH   1  23
TORSDOF 8
