REMARK  Name = 
REMARK  1 active torsions:
REMARK  status: ('A' for Active; 'I' for Inactive)
REMARK    1  A    between atoms: O_5  and  C_18
REMARK                            x       y       z     vdW  Elec       q    Type
REMARK                         _______ _______ _______ _____ _____    ______ ____
ROOT
ATOM      1  O   UNL     1      -1.322   2.461   0.000  0.00  0.00    +0.000 OA
ATOM      2  O   UNL     1      -2.751   0.811   0.000  0.00  0.00    +0.000 OA
ATOM      3  O   UNL     1      -1.754  -1.202   0.000  0.00  0.00    +0.000 OA
ATOM      4  O   UNL     1      -0.607  -0.427   0.000  0.00  0.00    +0.000 OA
ATOM      5  O   UNL     1       0.835  -0.455   0.000  0.00  0.00    +0.000 OA
ATOM      6  O   UNL     1      -3.465  -0.427   0.000  0.00  0.00    +0.000 OA
ATOM      7  O   UNL     1      -0.607   1.223   0.000  0.00  0.00    +0.000 OA
ATOM      8  C   UNL     1      -1.322   1.636   0.000  0.00  0.00    +0.000 C 
ATOM      9  C   UNL     1      -0.607   2.048   0.000  0.00  0.00    +0.000 C 
ATOM     10  C   UNL     1      -1.322   0.811   0.000  0.00  0.00    +0.000 C 
ATOM     11  C   UNL     1       0.107   1.636   0.000  0.00  0.00    +0.000 A 
ATOM     12  C   UNL     1      -2.036   0.398   0.000  0.00  0.00    +0.000 C 
ATOM     13  C   UNL     1      -2.036  -0.427   0.000  0.00  0.00    +0.000 C 
ATOM     14  C   UNL     1       0.107   0.811   0.000  0.00  0.00    +0.000 A 
ATOM     15  C   UNL     1       0.845   2.077   0.000  0.00  0.00    +0.000 A 
ATOM     16  C   UNL     1       0.845   0.369   0.000  0.00  0.00    +0.000 A 
ATOM     17  C   UNL     1       1.592   1.653   0.000  0.00  0.00    +0.000 A 
ATOM     18  C   UNL     1      -2.751  -0.839   0.000  0.00  0.00    +0.000 C 
ATOM     19  C   UNL     1      -0.607   0.398   0.000  0.00  0.00    +0.000 C 
ATOM     20  C   UNL     1       1.592   0.793   0.000  0.00  0.00    +0.000 A 
ATOM     21  C   UNL     1      -1.322  -0.839   0.000  0.00  0.00    +0.000 C 
ATOM     22  C   UNL     1      -2.751  -1.664   0.000  0.00  0.00    +0.000 C 
ATOM     23  C   UNL     1      -1.322  -1.664   0.000  0.00  0.00    +0.000 C 
ATOM     24  C   UNL     1      -2.036  -2.077   0.000  0.00  0.00    +0.000 C 
ATOM     25  C   UNL     1      -1.322  -0.014   0.000  0.00  0.00    +0.000 C 
ENDROOT
BRANCH  17  26
ATOM     26  O   UNL     1       2.305   2.068   0.000  0.00  0.00    +0.000 OA
ATOM     27  C   UNL     1       3.021   1.658   0.000  0.00  0.00    +0.000 C 
ENDBRANCH  17  26
TORSDOF 1
