REMARK  Name = 
REMARK  4 active torsions:
REMARK  status: ('A' for Active; 'I' for Inactive)
REMARK    1  A    between atoms: C_19  and  C_20
REMARK    2  A    between atoms: C_20  and  C_22
REMARK    3  A    between atoms: C_22  and  N_23
REMARK    4  A    between atoms: N_26  and  C_29
REMARK                            x       y       z     vdW  Elec       q    Type
REMARK                         _______ _______ _______ _____ _____    ______ ____
ROOT
ATOM      1  C   UNL     1       2.562  -3.141   0.000  0.00  0.00    +0.000 C 
ATOM      2  O   UNL     1       1.745  -3.028   0.000  0.00  0.00    +0.000 OA
ENDROOT
BRANCH   1  21
ATOM      3  C   UNL     1       2.063  -1.417   0.000  0.00  0.00    +0.000 C 
ATOM      4  C   UNL     1       2.839  -1.697   0.000  0.00  0.00    +0.000 C 
ATOM      5  C   UNL     1       3.522  -1.234   0.000  0.00  0.00    +0.000 C 
ATOM      6  C   UNL     1       4.173  -1.740   0.000  0.00  0.00    +0.000 C 
ATOM      7  C   UNL     1       4.985  -1.595   0.000  0.00  0.00    +0.000 C 
ATOM      8  C   UNL     1       5.266  -0.819   0.000  0.00  0.00    +0.000 C 
ATOM      9  C   UNL     1       6.078  -0.674   0.000  0.00  0.00    +0.000 C 
ATOM     10  C   UNL     1       6.609  -1.305   0.000  0.00  0.00    +0.000 C 
ATOM     11  C   UNL     1       7.422  -1.159   0.000  0.00  0.00    +0.000 C 
ATOM     12  C   UNL     1       7.953  -1.790   0.000  0.00  0.00    +0.000 C 
ATOM     13  O   UNL     1       8.765  -1.645   0.000  0.00  0.00    +0.000 OA
ATOM     14  C   UNL     1       7.673  -2.566   0.000  0.00  0.00    +0.000 C 
ATOM     15  C   UNL     1       6.861  -2.711   0.000  0.00  0.00    +0.000 C 
ATOM     16  C   UNL     1       6.329  -2.081   0.000  0.00  0.00    +0.000 C 
ATOM     17  C   UNL     1       5.517  -2.226   0.000  0.00  0.00    +0.000 C 
ATOM     18  C   UNL     1       5.237  -3.002   0.000  0.00  0.00    +0.000 C 
ATOM     19  C   UNL     1       4.425  -3.147   0.000  0.00  0.00    +0.000 C 
ATOM     20  C   UNL     1       3.893  -2.516   0.000  0.00  0.00    +0.000 C 
ATOM     21  C   UNL     1       3.068  -2.490   0.000  0.00  0.00    +0.000 C 
ATOM     22  C   UNL     1       3.533  -3.259   0.000  0.00  0.00    +0.000 C 
ATOM     23  C   UNL     1       6.049  -2.857   0.000  0.00  0.00    +0.000 C 
ENDBRANCH   1  21
BRANCH   1  24
ATOM     24  C   UNL     1       2.873  -3.905   0.000  0.00  0.00    +0.000 C 
BRANCH  24  25
ATOM     25  N   UNL     1       2.366  -4.556   0.000  0.00  0.00    +0.000 NA
ATOM     26  C   UNL     1       2.677  -5.321   0.000  0.00  0.00    +0.000 C 
ATOM     27  C   UNL     1       2.171  -5.972   0.000  0.00  0.00    +0.000 C 
ATOM     28  N   UNL     1       1.354  -5.859   0.000  0.00  0.00    +0.000 N 
ATOM     29  C   UNL     1       1.043  -5.095   0.000  0.00  0.00    +0.000 C 
ATOM     30  C   UNL     1       1.549  -4.444   0.000  0.00  0.00    +0.000 C 
BRANCH  28  31
ATOM     31  C   UNL     1       0.847  -6.510   0.000  0.00  0.00    +0.000 A 
ATOM     32  C   UNL     1       1.158  -7.274   0.000  0.00  0.00    +0.000 A 
ATOM     33  C   UNL     1       0.652  -7.926   0.000  0.00  0.00    +0.000 A 
ATOM     34  N   UNL     1      -0.165  -7.813   0.000  0.00  0.00    +0.000 NA
ATOM     35  C   UNL     1      -0.476  -7.049   0.000  0.00  0.00    +0.000 A 
ATOM     36  N   UNL     1       0.030  -6.397   0.000  0.00  0.00    +0.000 NA
ATOM     37  N   UNL     1      -1.294  -6.936   0.000  0.00  0.00    +0.000 N 
ATOM     38  C   UNL     1      -1.865  -7.531   0.000  0.00  0.00    +0.000 C 
ATOM     39  C   UNL     1      -2.607  -7.171   0.000  0.00  0.00    +0.000 C 
ATOM     40  C   UNL     1      -2.495  -6.354   0.000  0.00  0.00    +0.000 C 
ATOM     41  C   UNL     1      -1.683  -6.208   0.000  0.00  0.00    +0.000 C 
ATOM     42  N   UNL     1       0.963  -8.690   0.000  0.00  0.00    +0.000 N 
ATOM     43  C   UNL     1       1.764  -8.888   0.000  0.00  0.00    +0.000 C 
ATOM     44  C   UNL     1       1.823  -9.710   0.000  0.00  0.00    +0.000 C 
ATOM     45  C   UNL     1       1.059 -10.021   0.000  0.00  0.00    +0.000 C 
ATOM     46  C   UNL     1       0.527  -9.391   0.000  0.00  0.00    +0.000 C 
ENDBRANCH  28  31
ENDBRANCH  24  25
ENDBRANCH   1  24
TORSDOF 4
