REMARK  Name = 
REMARK  4 active torsions:
REMARK  status: ('A' for Active; 'I' for Inactive)
REMARK    1  A    between atoms: P_2  and  O_5
REMARK    2  A    between atoms: O_5  and  C_6
REMARK    3  A    between atoms: C_6  and  C_7
REMARK    4  A    between atoms: C_11  and  N_12
REMARK                            x       y       z     vdW  Elec       q    Type
REMARK                         _______ _______ _______ _____ _____    ______ ____
ROOT
ATOM      1  C   UNL     1      -0.270  -0.907   0.000  0.00  0.00    +0.000 C 
ATOM      2  C   UNL     1       0.555  -0.907   0.000  0.00  0.00    +0.000 C 
ATOM      3  F   UNL     1       1.040  -1.574   0.000  0.00  0.00    +0.000 F 
ATOM      4  C   UNL     1       0.810  -0.122   0.000  0.00  0.00    +0.000 C 
ATOM      5  C   UNL     1       0.143   0.363   0.000  0.00  0.00    +0.000 C 
ATOM      6  O   UNL     1      -0.525  -0.122   0.000  0.00  0.00    +0.000 OA
ENDROOT
BRANCH   5   7
ATOM      7  N   UNL     1       0.143   1.188   0.000  0.00  0.00    +0.000 N 
ATOM      8  C   UNL     1       0.857   1.600   0.000  0.00  0.00    +0.000 A 
ATOM      9  C   UNL     1       0.857   2.425   0.000  0.00  0.00    +0.000 A 
ATOM     10  C   UNL     1       1.571   2.838   0.000  0.00  0.00    +0.000 C 
ATOM     11  C   UNL     1       0.143   2.838   0.000  0.00  0.00    +0.000 A 
ATOM     12  O   UNL     1       0.143   3.663   0.000  0.00  0.00    +0.000 OA
ATOM     13  N   UNL     1      -0.572   2.425   0.000  0.00  0.00    +0.000 NA
ATOM     14  C   UNL     1      -0.572   1.600   0.000  0.00  0.00    +0.000 A 
ATOM     15  O   UNL     1      -1.286   1.188   0.000  0.00  0.00    +0.000 OA
ENDBRANCH   5   7
BRANCH   1  16
ATOM     16  C   UNL     1      -0.755  -1.574   0.000  0.00  0.00    +0.000 C 
BRANCH  16  17
ATOM     17  O   UNL     1      -0.419  -2.328   0.000  0.00  0.00    +0.000 OA
BRANCH  17  19
ATOM     18  O   UNL     1      -1.389  -3.663   0.000  0.00  0.00    +0.000 OA
ATOM     19  P   UNL     1      -0.904  -2.995   0.000  0.00  0.00    +0.000 P 
ATOM     20  O   UNL     1      -1.571  -2.510   0.000  0.00  0.00    +0.000 OA
ATOM     21  O   UNL     1      -0.237  -3.480   0.000  0.00  0.00    +0.000 OA
ENDBRANCH  17  19
ENDBRANCH  16  17
ENDBRANCH   1  16
TORSDOF 4
