REMARK  Name = 
REMARK  7 active torsions:
REMARK  status: ('A' for Active; 'I' for Inactive)
REMARK    1  A    between atoms: C_19  and  C_20
REMARK    2  A    between atoms: C_19  and  O_26
REMARK    3  A    between atoms: C_20  and  O_22
REMARK    4  A    between atoms: O_22  and  C_23
REMARK    5  A    between atoms: C_23  and  C_24
REMARK    6  A    between atoms: O_26  and  C_27
REMARK    7  A    between atoms: C_27  and  C_29
REMARK                            x       y       z     vdW  Elec       q    Type
REMARK                         _______ _______ _______ _____ _____    ______ ____
ROOT
ATOM      1  C   UNL     1       2.063  -1.417   0.000  0.00  0.00    +0.000 C 
ATOM      2  C   UNL     1       2.839  -1.697   0.000  0.00  0.00    +0.000 C 
ATOM      3  C   UNL     1       3.522  -1.234   0.000  0.00  0.00    +0.000 C 
ATOM      4  C   UNL     1       4.173  -1.740   0.000  0.00  0.00    +0.000 C 
ATOM      5  C   UNL     1       4.985  -1.595   0.000  0.00  0.00    +0.000 C 
ATOM      6  C   UNL     1       5.266  -0.819   0.000  0.00  0.00    +0.000 C 
ATOM      7  C   UNL     1       6.078  -0.674   0.000  0.00  0.00    +0.000 C 
ATOM      8  C   UNL     1       6.609  -1.305   0.000  0.00  0.00    +0.000 C 
ATOM      9  C   UNL     1       7.422  -1.159   0.000  0.00  0.00    +0.000 C 
ATOM     10  C   UNL     1       7.953  -1.790   0.000  0.00  0.00    +0.000 C 
ATOM     11  O   UNL     1       8.765  -1.645   0.000  0.00  0.00    +0.000 OA
ATOM     12  C   UNL     1       7.673  -2.566   0.000  0.00  0.00    +0.000 C 
ATOM     13  C   UNL     1       6.861  -2.711   0.000  0.00  0.00    +0.000 C 
ATOM     14  C   UNL     1       6.329  -2.081   0.000  0.00  0.00    +0.000 C 
ATOM     15  C   UNL     1       5.517  -2.226   0.000  0.00  0.00    +0.000 C 
ATOM     16  C   UNL     1       5.237  -3.002   0.000  0.00  0.00    +0.000 C 
ATOM     17  C   UNL     1       4.425  -3.147   0.000  0.00  0.00    +0.000 C 
ATOM     18  C   UNL     1       3.893  -2.516   0.000  0.00  0.00    +0.000 C 
ATOM     19  C   UNL     1       3.068  -2.490   0.000  0.00  0.00    +0.000 C 
ATOM     20  C   UNL     1       3.533  -3.259   0.000  0.00  0.00    +0.000 C 
ATOM     21  O   UNL     1       5.769  -3.632   0.000  0.00  0.00    +0.000 OA
ATOM     22  F   UNL     1       6.049  -2.857   0.000  0.00  0.00    +0.000 F 
ATOM     23  C   UNL     1       6.559  -2.873   0.000  0.00  0.00    +0.000 C 
ATOM     24  F   UNL     1       6.358   0.102   0.000  0.00  0.00    +0.000 F 
ENDROOT
BRANCH  19  25
ATOM     25  C   UNL     1       2.307  -2.808   0.000  0.00  0.00    +0.000 C 
ATOM     26  O   UNL     1       1.651  -2.309   0.000  0.00  0.00    +0.000 OA
BRANCH  25  27
ATOM     27  O   UNL     1       2.203  -3.627   0.000  0.00  0.00    +0.000 OA
BRANCH  27  28
ATOM     28  C   UNL     1       1.442  -3.946   0.000  0.00  0.00    +0.000 C 
BRANCH  28  29
ATOM     29  C   UNL     1       1.338  -4.764   0.000  0.00  0.00    +0.000 C 
ATOM     30  N   UNL     1       1.234  -5.582   0.000  0.00  0.00    +0.000 NA
ENDBRANCH  28  29
ENDBRANCH  27  28
ENDBRANCH  25  27
ENDBRANCH  19  25
BRANCH  19  31
ATOM     31  O   UNL     1       2.947  -3.305   0.000  0.00  0.00    +0.000 OA
BRANCH  31  32
ATOM     32  C   UNL     1       3.593  -3.819   0.000  0.00  0.00    +0.000 C 
ATOM     33  O   UNL     1       4.360  -3.516   0.000  0.00  0.00    +0.000 OA
BRANCH  32  34
ATOM     34  C   UNL     1       3.471  -4.635   0.000  0.00  0.00    +0.000 C 
ATOM     35  C   UNL     1       3.774  -5.402   0.000  0.00  0.00    +0.000 C 
ATOM     36  C   UNL     1       2.958  -5.281   0.000  0.00  0.00    +0.000 C 
ATOM     37  C   UNL     1       2.503  -5.969   0.000  0.00  0.00    +0.000 C 
ATOM     38  C   UNL     1       2.156  -5.089   0.000  0.00  0.00    +0.000 C 
ATOM     39  C   UNL     1       4.598  -5.452   0.000  0.00  0.00    +0.000 C 
ATOM     40  C   UNL     1       4.009  -6.193   0.000  0.00  0.00    +0.000 C 
ENDBRANCH  32  34
ENDBRANCH  31  32
ENDBRANCH  19  31
TORSDOF 7
