REMARK  Name = 
REMARK  2 active torsions:
REMARK  status: ('A' for Active; 'I' for Inactive)
REMARK    1  A    between atoms: C_3  and  C_25
REMARK    2  A    between atoms: C_25  and  C_28
REMARK                            x       y       z     vdW  Elec       q    Type
REMARK                         _______ _______ _______ _____ _____    ______ ____
ROOT
ATOM      1  C   UNL     1       2.179  -1.001   0.000  0.00  0.00    +0.000 C 
ATOM      2  C   UNL     1       0.679  -1.984   0.000  0.00  0.00    +0.000 C 
ATOM      3  C   UNL     1       2.179   0.334   0.000  0.00  0.00    +0.000 C 
ATOM      4  C   UNL     1       0.679   0.491   0.000  0.00  0.00    +0.000 C 
ATOM      5  C   UNL     1       2.663  -0.334   0.000  0.00  0.00    +0.000 C 
ATOM      6  C   UNL     1      -0.750  -1.159   0.000  0.00  0.00    +0.000 C 
ATOM      7  C   UNL     1      -0.035   0.079   0.000  0.00  0.00    +0.000 C 
ATOM      8  C   UNL     1      -0.035  -2.396   0.000  0.00  0.00    +0.000 C 
ATOM      9  C   UNL     1      -0.750  -1.984   0.000  0.00  0.00    +0.000 C 
ATOM     10  C   UNL     1      -1.464  -0.746   0.000  0.00  0.00    +0.000 C 
ATOM     11  C   UNL     1      -1.464  -2.396   0.000  0.00  0.00    +0.000 C 
ATOM     12  C   UNL     1      -2.178  -1.159   0.000  0.00  0.00    +0.000 C 
ATOM     13  C   UNL     1       0.679  -1.159   0.000  0.00  0.00    +0.000 C 
ATOM     14  C   UNL     1      -0.035  -0.746   0.000  0.00  0.00    +0.000 C 
ATOM     15  C   UNL     1       1.394   0.079   0.000  0.00  0.00    +0.000 C 
ATOM     16  C   UNL     1       1.394   0.904   0.000  0.00  0.00    +0.000 C 
ATOM     17  C   UNL     1       1.394  -0.746   0.000  0.00  0.00    +0.000 C 
ATOM     18  O   UNL     1      -2.893  -2.396   0.000  0.00  0.00    +0.000 OA
ATOM     19  C   UNL     1      -2.178  -1.984   0.000  0.00  0.00    +0.000 C 
ATOM     20  C   UNL     1      -0.750  -0.334   0.000  0.00  0.00    +0.000 C 
ATOM     21  O   UNL     1       2.893   0.746   0.000  0.00  0.00    +0.000 OA
ATOM     22  O   UNL     1      -0.750   0.491   0.000  0.00  0.00    +0.000 OA
ENDROOT
BRANCH   3  23
ATOM     23  C   UNL     1       2.179   1.159   0.000  0.00  0.00    +0.000 C 
ATOM     24  O   UNL     1       1.464   1.571   0.000  0.00  0.00    +0.000 OA
BRANCH  23  25
ATOM     25  C   UNL     1       2.893   1.571   0.000  0.00  0.00    +0.000 C 
ATOM     26  O   UNL     1       2.893   2.396   0.000  0.00  0.00    +0.000 OA
ENDBRANCH  23  25
ENDBRANCH   3  23
TORSDOF 2
