REMARK  Name = 
REMARK  5 active torsions:
REMARK  status: ('A' for Active; 'I' for Inactive)
REMARK    1  A    between atoms: O_2  and  C_3
REMARK    2  A    between atoms: N_5  and  C_21
REMARK    3  A    between atoms: C_7  and  C_8
REMARK    4  A    between atoms: N_12  and  C_13
REMARK    5  A    between atoms: C_24  and  N_28
REMARK                            x       y       z     vdW  Elec       q    Type
REMARK                         _______ _______ _______ _____ _____    ______ ____
ROOT
ATOM      1  C   UNL     1       2.037  -0.474   0.000  0.00  0.00    +0.000 A 
ATOM      2  C   UNL     1       2.751  -0.062   0.000  0.00  0.00    +0.000 A 
ATOM      3  N   UNL     1       3.466  -0.474   0.000  0.00  0.00    +0.000 N 
ATOM      4  N   UNL     1       3.466  -1.299   0.000  0.00  0.00    +0.000 NA
ATOM      5  C   UNL     1       2.751  -1.712   0.000  0.00  0.00    +0.000 A 
ATOM      6  C   UNL     1       2.037  -1.299   0.000  0.00  0.00    +0.000 A 
ATOM      7  O   UNL     1       1.322  -1.712   0.000  0.00  0.00    +0.000 OA
ENDROOT
BRANCH   3   8
ATOM      8  C   UNL     1       4.180  -0.062   0.000  0.00  0.00    +0.000 A 
ATOM      9  C   UNL     1       4.180   0.763   0.000  0.00  0.00    +0.000 A 
ATOM     10  C   UNL     1       4.895   1.176   0.000  0.00  0.00    +0.000 A 
ATOM     11  C   UNL     1       5.609   0.763   0.000  0.00  0.00    +0.000 A 
ATOM     12  C   UNL     1       5.609  -0.062   0.000  0.00  0.00    +0.000 A 
ATOM     13  C   UNL     1       4.895  -0.474   0.000  0.00  0.00    +0.000 A 
ATOM     14  F   UNL     1       4.895  -1.299   0.000  0.00  0.00    +0.000 F 
BRANCH  11  15
ATOM     15  N   UNL     1       6.324   1.176   0.000  0.00  0.00    +0.000 N 
ATOM     16  C   UNL     1       6.410   1.996   0.000  0.00  0.00    +0.000 A 
ATOM     17  C   UNL     1       7.217   2.168   0.000  0.00  0.00    +0.000 A 
ATOM     18  C   UNL     1       7.629   1.453   0.000  0.00  0.00    +0.000 A 
ATOM     19  N   UNL     1       7.077   0.840   0.000  0.00  0.00    +0.000 NA
ENDBRANCH  11  15
ENDBRANCH   3   8
BRANCH   5  20
ATOM     20  C   UNL     1       2.751  -2.537   0.000  0.00  0.00    +0.000 A 
ATOM     21  C   UNL     1       2.084  -3.022   0.000  0.00  0.00    +0.000 A 
ATOM     22  C   UNL     1       2.339  -3.806   0.000  0.00  0.00    +0.000 A 
ATOM     23  N   UNL     1       3.164  -3.806   0.000  0.00  0.00    +0.000 NA
ATOM     24  N   UNL     1       3.419  -3.022   0.000  0.00  0.00    +0.000 N 
BRANCH  24  25
ATOM     25  C   UNL     1       4.203  -2.767   0.000  0.00  0.00    +0.000 A 
ATOM     26  C   UNL     1       4.375  -1.960   0.000  0.00  0.00    +0.000 A 
ATOM     27  C   UNL     1       5.159  -1.705   0.000  0.00  0.00    +0.000 A 
ATOM     28  C   UNL     1       5.772  -2.257   0.000  0.00  0.00    +0.000 A 
ATOM     29  C   UNL     1       5.601  -3.064   0.000  0.00  0.00    +0.000 A 
ATOM     30  C   UNL     1       4.816  -3.319   0.000  0.00  0.00    +0.000 A 
ENDBRANCH  24  25
ENDBRANCH   5  20
BRANCH   1  32
ATOM     31  C   UNL     1       1.322   0.763   0.000  0.00  0.00    +0.000 C 
ATOM     32  O   UNL     1       1.322  -0.062   0.000  0.00  0.00    +0.000 OA
ENDBRANCH   1  32
TORSDOF 5
