REMARK  Name = 
REMARK  9 active torsions:
REMARK  status: ('A' for Active; 'I' for Inactive)
REMARK    1  A    between atoms: C_2  and  C_11
REMARK    2  A    between atoms: C_2  and  O_13
REMARK    3  A    between atoms: C_11  and  C_22
REMARK    4  A    between atoms: O_13  and  C_14
REMARK    5  A    between atoms: C_14  and  O_30
REMARK    6  A    between atoms: C_21  and  O_25
REMARK    7  A    between atoms: C_21  and  C_32
REMARK    8  A    between atoms: C_22  and  O_25
REMARK    9  A    between atoms: O_30  and  C_33
REMARK                            x       y       z     vdW  Elec       q    Type
REMARK                         _______ _______ _______ _____ _____    ______ ____
ROOT
ATOM      1  C   UNL     1      -0.032   0.066   0.000  0.00  0.00    +0.000 C 
ATOM      2  C   UNL     1       0.755   0.313   0.000  0.00  0.00    +0.000 C 
ATOM      3  C   UNL     1      -2.184  -1.159   0.000  0.00  0.00    +0.000 C 
ATOM      4  C   UNL     1      -0.755  -1.159   0.000  0.00  0.00    +0.000 C 
ATOM      5  C   UNL     1      -0.041  -0.750   0.000  0.00  0.00    +0.000 C 
ATOM      6  C   UNL     1      -1.469  -0.746   0.000  0.00  0.00    +0.000 C 
ATOM      7  C   UNL     1      -2.184  -1.984   0.000  0.00  0.00    +0.000 C 
ATOM      8  C   UNL     1      -0.746   0.488   0.000  0.00  0.00    +0.000 C 
ATOM      9  C   UNL     1      -1.469   0.080   0.000  0.00  0.00    +0.000 C 
ATOM     10  C   UNL     1      -2.898  -0.746   0.000  0.00  0.00    +0.000 C 
ATOM     11  C   UNL     1      -2.898  -2.397   0.000  0.00  0.00    +0.000 C 
ATOM     12  C   UNL     1       1.227  -0.357   0.000  0.00  0.00    +0.000 C 
ATOM     13  C   UNL     1       0.741  -1.018   0.000  0.00  0.00    +0.000 C 
ATOM     14  C   UNL     1      -0.760  -1.989   0.000  0.00  0.00    +0.000 C 
ATOM     15  C   UNL     1      -3.612  -1.159   0.000  0.00  0.00    +0.000 C 
ATOM     16  C   UNL     1      -3.612  -1.984   0.000  0.00  0.00    +0.000 C 
ATOM     17  C   UNL     1      -1.474  -2.397   0.000  0.00  0.00    +0.000 C 
ATOM     18  O   UNL     1      -4.326  -2.393   0.000  0.00  0.00    +0.000 OA
ATOM     19  C   UNL     1      -0.041   0.896   0.000  0.00  0.00    +0.000 C 
ATOM     20  O   UNL     1      -2.184   0.503   0.000  0.00  0.00    +0.000 OA
ATOM     21  C   UNL     1      -2.188  -0.328   0.000  0.00  0.00    +0.000 C 
ENDROOT
BRANCH   2  22
ATOM     22  C   UNL     1       0.746   1.144   0.000  0.00  0.00    +0.000 C 
ATOM     23  O   UNL     1       0.032   1.552   0.000  0.00  0.00    +0.000 OA
BRANCH  22  24
ATOM     24  C   UNL     1       1.460   1.567   0.000  0.00  0.00    +0.000 C 
BRANCH  24  25
ATOM     25  O   UNL     1       2.174   1.159   0.000  0.00  0.00    +0.000 OA
BRANCH  25  26
ATOM     26  C   UNL     1       2.888   1.571   0.000  0.00  0.00    +0.000 C 
ATOM     27  O   UNL     1       2.883   2.397   0.000  0.00  0.00    +0.000 OA
BRANCH  26  28
ATOM     28  C   UNL     1       3.602   1.163   0.000  0.00  0.00    +0.000 C 
ATOM     29  C   UNL     1       4.316   1.581   0.000  0.00  0.00    +0.000 C 
ENDBRANCH  26  28
ENDBRANCH  25  26
ENDBRANCH  24  25
ENDBRANCH  22  24
ENDBRANCH   2  22
BRANCH   2  30
ATOM     30  O   UNL     1       1.469   0.736   0.000  0.00  0.00    +0.000 OA
BRANCH  30  31
ATOM     31  C   UNL     1       2.188   0.328   0.000  0.00  0.00    +0.000 C 
ATOM     32  O   UNL     1       2.188  -0.498   0.000  0.00  0.00    +0.000 OA
BRANCH  31  33
ATOM     33  O   UNL     1       2.898   0.750   0.000  0.00  0.00    +0.000 OA
BRANCH  33  34
ATOM     34  C   UNL     1       3.617   0.342   0.000  0.00  0.00    +0.000 C 
ATOM     35  C   UNL     1       4.326   0.765   0.000  0.00  0.00    +0.000 C 
ENDBRANCH  33  34
ENDBRANCH  31  33
ENDBRANCH  30  31
ENDBRANCH   2  30
TORSDOF 9
