REMARK  Name = 
REMARK  6 active torsions:
REMARK  status: ('A' for Active; 'I' for Inactive)
REMARK    1  A    between atoms: C_2  and  C_4
REMARK    2  A    between atoms: C_4  and  N_5
REMARK    3  A    between atoms: C_6  and  C_8
REMARK    4  A    between atoms: N_17  and  O_18
REMARK    5  A    between atoms: O_18  and  C_19
REMARK    6  A    between atoms: C_19  and  C_20
REMARK                            x       y       z     vdW  Elec       q    Type
REMARK                         _______ _______ _______ _____ _____    ______ ____
ROOT
ATOM      1  C   UNL     1       2.858  -3.300   0.000  0.00  0.00    +0.000 A 
ATOM      2  C   UNL     1       2.858  -2.475   0.000  0.00  0.00    +0.000 A 
ATOM      3  O   UNL     1       2.143  -2.062   0.000  0.00  0.00    +0.000 OA
ATOM      4  C   UNL     1       3.572  -2.062   0.000  0.00  0.00    +0.000 A 
ATOM      5  C   UNL     1       3.572  -1.238   0.000  0.00  0.00    +0.000 A 
ATOM      6  C   UNL     1       4.287  -0.825   0.000  0.00  0.00    +0.000 A 
ATOM      7  C   UNL     1       5.001  -1.238   0.000  0.00  0.00    +0.000 A 
ATOM      8  C   UNL     1       5.001  -2.062   0.000  0.00  0.00    +0.000 A 
ATOM      9  C   UNL     1       4.287  -2.475   0.000  0.00  0.00    +0.000 A 
ATOM     10  N   UNL     1       4.287  -3.300   0.000  0.00  0.00    +0.000 N 
ATOM     11  C   UNL     1       3.572  -3.712   0.000  0.00  0.00    +0.000 A 
ATOM     12  O   UNL     1       3.572  -4.537   0.000  0.00  0.00    +0.000 OA
ENDROOT
BRANCH   1  14
ATOM     13  N   UNL     1       1.429  -3.300   0.000  0.00  0.00    +0.000 NA
ATOM     14  C   UNL     1       2.143  -3.712   0.000  0.00  0.00    +0.000 C 
ATOM     15  O   UNL     1       2.143  -4.537   0.000  0.00  0.00    +0.000 OA
BRANCH  13  16
ATOM     16  C   UNL     1       0.715  -3.712   0.000  0.00  0.00    +0.000 C 
BRANCH  16  18
ATOM     17  O   UNL     1      -0.715  -3.712   0.000  0.00  0.00    +0.000 OA
ATOM     18  C   UNL     1       0.000  -3.300   0.000  0.00  0.00    +0.000 C 
ATOM     19  O   UNL     1       0.000  -2.475   0.000  0.00  0.00    +0.000 OA
ENDBRANCH  16  18
ENDBRANCH  13  16
ENDBRANCH   1  14
BRANCH  10  20
ATOM     20  O   UNL     1       5.001  -3.712   0.000  0.00  0.00    +0.000 OA
BRANCH  20  21
ATOM     21  C   UNL     1       5.716  -3.300   0.000  0.00  0.00    +0.000 C 
BRANCH  21  22
ATOM     22  C   UNL     1       6.430  -3.712   0.000  0.00  0.00    +0.000 C 
ATOM     23  C   UNL     1       7.255  -3.712   0.000  0.00  0.00    +0.000 C 
ATOM     24  C   UNL     1       6.843  -4.427   0.000  0.00  0.00    +0.000 C 
ENDBRANCH  21  22
ENDBRANCH  20  21
ENDBRANCH  10  20
TORSDOF 6
