REMARK  Name = 
REMARK  8 active torsions:
REMARK  status: ('A' for Active; 'I' for Inactive)
REMARK    1  A    between atoms: C_6  and  C_7
REMARK    2  A    between atoms: C_7  and  C_8
REMARK    3  A    between atoms: C_8  and  CA_21
REMARK    4  A    between atoms: N_9  and  CA_19
REMARK    5  A    between atoms: N_9  and  CA_21
REMARK    6  A    between atoms: CA_19  and  C_29
REMARK    7  A    between atoms: CA_21  and  C_22
REMARK    8  A    between atoms: CA_25  and  C_27
REMARK                            x       y       z     vdW  Elec       q    Type
REMARK                         _______ _______ _______ _____ _____    ______ ____
ROOT
ATOM      1  CA  UNL     1       0.750  -0.302   0.000  0.00  0.00    +0.000 C 
ATOM      2  CB  UNL     1       0.750   0.523   0.000  0.00  0.00    +0.000 C 
ENDROOT
BRANCH   1  11
ATOM      3  C   UNL     1       2.930   0.801   0.000  0.00  0.00    +0.000 C 
ATOM      4  N   UNL     1       2.178  -0.302   0.000  0.00  0.00    +0.000 N 
ATOM      5  C   UNL     1       3.475  -1.185   0.000  0.00  0.00    +0.000 C 
ATOM      6  C   UNL     1       4.252  -0.907   0.000  0.00  0.00    +0.000 C 
ATOM      7  C   UNL     1       4.227  -0.082   0.000  0.00  0.00    +0.000 C 
ATOM      8  C   UNL     1       2.970  -0.533   0.000  0.00  0.00    +0.000 C 
ATOM      9  C   UNL     1       3.435   0.149   0.000  0.00  0.00    +0.000 C 
ATOM     10  CA  UNL     1       2.154   0.523   0.000  0.00  0.00    +0.000 C 
ATOM     11  C   UNL     1       1.464  -0.714   0.000  0.00  0.00    +0.000 C 
ATOM     12  O   UNL     1       1.464  -1.539   0.000  0.00  0.00    +0.000 OA
BRANCH  10  14
ATOM     13  O   UNL     1       0.916   1.237   0.000  0.00  0.00    +0.000 OA
ATOM     14  C   UNL     1       1.741   1.237   0.000  0.00  0.00    +0.000 C 
ATOM     15  OXT UNL     1       2.154   1.952   0.000  0.00  0.00    +0.000 OA
ENDBRANCH  10  14
ENDBRANCH   1  11
BRANCH   1  16
ATOM     16  N   UNL     1       0.035  -0.714   0.000  0.00  0.00    +0.000 NA
BRANCH  16  17
ATOM     17  CA  UNL     1      -0.679  -0.302   0.000  0.00  0.00    +0.000 C 
BRANCH  17  18
ATOM     18  C   UNL     1      -0.679   0.523   0.000  0.00  0.00    +0.000 C 
ATOM     19  OXT UNL     1      -1.394   0.936   0.000  0.00  0.00    +0.000 OA
ATOM     20  O   UNL     1       0.035   0.936   0.000  0.00  0.00    +0.000 OA
ENDBRANCH  17  18
BRANCH  17  21
ATOM     21  C   UNL     1      -1.394  -0.714   0.000  0.00  0.00    +0.000 C 
BRANCH  21  22
ATOM     22  C   UNL     1      -2.108  -0.302   0.000  0.00  0.00    +0.000 C 
BRANCH  22  28
ATOM     23  C   UNL     1      -3.537  -0.302   0.000  0.00  0.00    +0.000 A 
ATOM     24  C   UNL     1      -4.252  -0.714   0.000  0.00  0.00    +0.000 A 
ATOM     25  C   UNL     1      -4.252  -1.539   0.000  0.00  0.00    +0.000 A 
ATOM     26  C   UNL     1      -3.537  -1.952   0.000  0.00  0.00    +0.000 A 
ATOM     27  C   UNL     1      -2.823  -1.539   0.000  0.00  0.00    +0.000 A 
ATOM     28  C   UNL     1      -2.823  -0.714   0.000  0.00  0.00    +0.000 A 
ENDBRANCH  22  28
ENDBRANCH  21  22
ENDBRANCH  17  21
ENDBRANCH  16  17
ENDBRANCH   1  16
TORSDOF 8
