REMARK  Name = 
REMARK  6 active torsions:
REMARK  status: ('A' for Active; 'I' for Inactive)
REMARK    1  A    between atoms: C_2  and  N_3
REMARK    2  A    between atoms: N_3  and  C_4
REMARK    3  A    between atoms: C_4  and  C_5
REMARK    4  A    between atoms: C_11  and  C_13
REMARK    5  A    between atoms: C_13  and  N_14
REMARK    6  A    between atoms: C_19  and  C_21
REMARK                            x       y       z     vdW  Elec       q    Type
REMARK                         _______ _______ _______ _____ _____    ______ ____
ROOT
ATOM      1  N   UNL     1      -0.143  -1.365   0.000  0.00  0.00    +0.000 N 
ATOM      2  C   UNL     1       0.641  -1.110   0.000  0.00  0.00    +0.000 A 
ATOM      3  C   UNL     1       0.641  -0.285   0.000  0.00  0.00    +0.000 A 
ATOM      4  C   UNL     1       1.356   0.127   0.000  0.00  0.00    +0.000 A 
ATOM      5  N   UNL     1       2.070  -0.285   0.000  0.00  0.00    +0.000 NA
ATOM      6  C   UNL     1       2.070  -1.110   0.000  0.00  0.00    +0.000 A 
ATOM      7  N   UNL     1       1.356  -1.523   0.000  0.00  0.00    +0.000 NA
ATOM      8  N   UNL     1      -0.143  -0.030   0.000  0.00  0.00    +0.000 N 
ATOM      9  C   UNL     1      -0.628  -0.698   0.000  0.00  0.00    +0.000 A 
ATOM     10  O   UNL     1      -1.453  -0.698   0.000  0.00  0.00    +0.000 OA
ATOM     11  C   UNL     1      -0.398   0.754   0.000  0.00  0.00    +0.000 C 
ENDROOT
BRANCH   6  12
ATOM     12  C   UNL     1       2.784  -1.523   0.000  0.00  0.00    +0.000 A 
ATOM     13  C   UNL     1       3.499  -1.110   0.000  0.00  0.00    +0.000 A 
ATOM     14  C   UNL     1       4.213  -1.523   0.000  0.00  0.00    +0.000 A 
ATOM     15  C   UNL     1       4.213  -2.348   0.000  0.00  0.00    +0.000 A 
ATOM     16  C   UNL     1       3.499  -2.760   0.000  0.00  0.00    +0.000 A 
ATOM     17  C   UNL     1       2.784  -2.348   0.000  0.00  0.00    +0.000 A 
ENDBRANCH   6  12
BRANCH   1  18
ATOM     18  C   UNL     1      -0.398  -2.150   0.000  0.00  0.00    +0.000 C 
BRANCH  18  20
ATOM     19  N   UNL     1      -1.460  -3.106   0.000  0.00  0.00    +0.000 N 
ATOM     20  C   UNL     1      -1.205  -2.321   0.000  0.00  0.00    +0.000 C 
ATOM     21  O   UNL     1      -1.758  -1.708   0.000  0.00  0.00    +0.000 OA
BRANCH  19  23
ATOM     22  C   UNL     1      -0.101  -3.548   0.000  0.00  0.00    +0.000 C 
ATOM     23  C   UNL     1      -0.908  -3.719   0.000  0.00  0.00    +0.000 C 
ENDBRANCH  19  23
BRANCH  19  24
ATOM     24  C   UNL     1      -2.267  -3.278   0.000  0.00  0.00    +0.000 C 
BRANCH  24  25
ATOM     25  C   UNL     1      -2.522  -4.062   0.000  0.00  0.00    +0.000 A 
ATOM     26  C   UNL     1      -1.970  -4.675   0.000  0.00  0.00    +0.000 A 
ATOM     27  C   UNL     1      -2.225  -5.460   0.000  0.00  0.00    +0.000 A 
ATOM     28  C   UNL     1      -3.032  -5.631   0.000  0.00  0.00    +0.000 A 
ATOM     29  C   UNL     1      -3.584  -5.018   0.000  0.00  0.00    +0.000 A 
ATOM     30  C   UNL     1      -3.329  -4.234   0.000  0.00  0.00    +0.000 A 
ENDBRANCH  24  25
ENDBRANCH  19  24
ENDBRANCH  18  20
ENDBRANCH   1  18
TORSDOF 6
