REMARK  Name = 
REMARK  3 active torsions:
REMARK  status: ('A' for Active; 'I' for Inactive)
REMARK    1  A    between atoms: C_1  and  N_2
REMARK    2  A    between atoms: C_1  and  N_3
REMARK    3  A    between atoms: C_1  and  C_4
REMARK                            x       y       z     vdW  Elec       q    Type
REMARK                         _______ _______ _______ _____ _____    ______ ____
ROOT
ATOM      1  C   UNL     1       0.000   0.415   0.000  0.00  0.00    +0.000 C 
ENDROOT
BRANCH   1   2
ATOM      2  N   UNL     1      -0.713   0.824   0.000  0.00  0.00    +0.000 NA
ATOM      3  C   UNL     1      -1.429   0.415   0.000  0.00  0.00    +0.000 C 
ATOM      4  N   UNL     1      -2.141   0.824   0.000  0.00  0.00    +0.000 NA
ATOM      5  O   UNL     1      -1.429  -0.411   0.000  0.00  0.00    +0.000 OA
ENDBRANCH   1   2
BRANCH   1   6
ATOM      6  N   UNL     1       0.713   0.824   0.000  0.00  0.00    +0.000 NA
ATOM      7  C   UNL     1       1.429   0.415   0.000  0.00  0.00    +0.000 C 
ATOM      8  N   UNL     1       2.141   0.824   0.000  0.00  0.00    +0.000 NA
ATOM      9  O   UNL     1       1.429  -0.411   0.000  0.00  0.00    +0.000 OA
ENDBRANCH   1   6
BRANCH   1  10
ATOM     10  C   UNL     1       0.000  -0.411   0.000  0.00  0.00    +0.000 C 
ATOM     11  O   UNL     1       0.713  -0.824   0.000  0.00  0.00    +0.000 OA
ATOM     12  O   UNL     1      -0.713  -0.824   0.000  0.00  0.00    +0.000 OA
ENDBRANCH   1  10
TORSDOF 3
