REMARK  Name = 
REMARK  7 active torsions:
REMARK  status: ('A' for Active; 'I' for Inactive)
REMARK    1  A    between atoms: O_2  and  C_3
REMARK    2  A    between atoms: C_6  and  N_23
REMARK    3  A    between atoms: C_8  and  C_9
REMARK    4  A    between atoms: C_9  and  N_10
REMARK    5  A    between atoms: N_10  and  C_11
REMARK    6  A    between atoms: C_16  and  C_17
REMARK    7  A    between atoms: C_24  and  C_28
REMARK                            x       y       z     vdW  Elec       q    Type
REMARK                         _______ _______ _______ _____ _____    ______ ____
ROOT
ATOM      1  C   UNL     1       6.324   1.176   0.000  0.00  0.00    +0.000 A 
ATOM      2  C   UNL     1       7.038   0.763   0.000  0.00  0.00    +0.000 A 
ATOM      3  C   UNL     1       7.038  -0.062   0.000  0.00  0.00    +0.000 A 
ATOM      4  C   UNL     1       6.324  -0.474   0.000  0.00  0.00    +0.000 A 
ATOM      5  C   UNL     1       5.609  -0.062   0.000  0.00  0.00    +0.000 A 
ATOM      6  C   UNL     1       5.609   0.763   0.000  0.00  0.00    +0.000 A 
ENDROOT
BRANCH   4   7
ATOM      7  N   UNL     1       6.324  -1.299   0.000  0.00  0.00    +0.000 N 
ATOM      8  C   UNL     1       6.991  -1.784   0.000  0.00  0.00    +0.000 A 
ATOM      9  N   UNL     1       6.736  -2.569   0.000  0.00  0.00    +0.000 NA
ATOM     10  N   UNL     1       5.911  -2.569   0.000  0.00  0.00    +0.000 NA
ATOM     11  N   UNL     1       5.656  -1.784   0.000  0.00  0.00    +0.000 NA
BRANCH   8  12
ATOM     12  C   UNL     1       7.776  -1.529   0.000  0.00  0.00    +0.000 C 
ATOM     13  F   UNL     1       8.560  -1.274   0.000  0.00  0.00    +0.000 F 
ATOM     14  F   UNL     1       8.030  -2.314   0.000  0.00  0.00    +0.000 F 
ATOM     15  F   UNL     1       7.521  -0.745   0.000  0.00  0.00    +0.000 F 
ENDBRANCH   8  12
ENDBRANCH   4   7
BRANCH   1  17
ATOM     16  C   UNL     1       5.609   2.413   0.000  0.00  0.00    +0.000 C 
ATOM     17  O   UNL     1       6.324   2.001   0.000  0.00  0.00    +0.000 OA
ENDBRANCH   1  17
BRANCH   6  18
ATOM     18  C   UNL     1       4.895   1.176   0.000  0.00  0.00    +0.000 C 
BRANCH  18  19
ATOM     19  N   UNL     1       4.895   2.001   0.000  0.00  0.00    +0.000 NA
BRANCH  19  20
ATOM     20  C   UNL     1       4.180   2.413   0.000  0.00  0.00    +0.000 C 
ATOM     21  C   UNL     1       3.466   2.001   0.000  0.00  0.00    +0.000 C 
ATOM     22  C   UNL     1       2.751   2.413   0.000  0.00  0.00    +0.000 C 
ATOM     23  C   UNL     1       2.751   3.238   0.000  0.00  0.00    +0.000 C 
ATOM     24  N   UNL     1       3.466   3.651   0.000  0.00  0.00    +0.000 NA
ATOM     25  C   UNL     1       4.180   3.238   0.000  0.00  0.00    +0.000 C 
BRANCH  25  26
ATOM     26  C   UNL     1       4.895   3.651   0.000  0.00  0.00    +0.000 A 
ATOM     27  C   UNL     1       4.895   4.476   0.000  0.00  0.00    +0.000 A 
ATOM     28  C   UNL     1       5.609   4.888   0.000  0.00  0.00    +0.000 A 
ATOM     29  C   UNL     1       6.324   4.476   0.000  0.00  0.00    +0.000 A 
ATOM     30  C   UNL     1       6.324   3.651   0.000  0.00  0.00    +0.000 A 
ATOM     31  C   UNL     1       5.609   3.238   0.000  0.00  0.00    +0.000 A 
ENDBRANCH  25  26
ENDBRANCH  19  20
ENDBRANCH  18  19
ENDBRANCH   6  18
TORSDOF 7
