REMARK  Name = 
REMARK  0 active torsions:
REMARK  status: ('A' for Active; 'I' for Inactive)
REMARK                            x       y       z     vdW  Elec       q    Type
REMARK                         _______ _______ _______ _____ _____    ______ ____
ROOT
ATOM      1  C   UNL     1       1.429   0.825   0.000  0.00  0.00    +0.000 A 
ATOM      2  C   UNL     1       1.429   0.000   0.000  0.00  0.00    +0.000 A 
ATOM      3  C   UNL     1       2.143   1.238   0.000  0.00  0.00    +0.000 A 
ATOM      4  C   UNL     1       2.143  -0.412   0.000  0.00  0.00    +0.000 A 
ATOM      5  C   UNL     1       4.287   0.825   0.000  0.00  0.00    +0.000 A 
ATOM      6  C   UNL     1       2.858   0.825   0.000  0.00  0.00    +0.000 A 
ATOM      7  C   UNL     1       3.572   1.238   0.000  0.00  0.00    +0.000 A 
ATOM      8  C   UNL     1       2.858   0.000   0.000  0.00  0.00    +0.000 A 
ATOM      9  C   UNL     1       4.287   0.000   0.000  0.00  0.00    +0.000 A 
ATOM     10  O   UNL     1       3.572   2.062   0.000  0.00  0.00    +0.000 OA
ATOM     11  O   UNL     1       5.001  -0.412   0.000  0.00  0.00    +0.000 OA
ATOM     12  O   UNL     1       3.572  -0.412   0.000  0.00  0.00    +0.000 OA
ENDROOT
TORSDOF 0
