REMARK  Name = 
REMARK  5 active torsions:
REMARK  status: ('A' for Active; 'I' for Inactive)
REMARK    1  A    between atoms: C_1  and  C_2
REMARK    2  A    between atoms: C_1  and  C_8
REMARK    3  A    between atoms: C_2  and  CA_3
REMARK    4  A    between atoms: CA_3  and  C_4
REMARK    5  A    between atoms: C_8  and  N_9
REMARK                            x       y       z     vdW  Elec       q    Type
REMARK                         _______ _______ _______ _____ _____    ______ ____
ROOT
ATOM      1  C   UNL     1       5.856   2.556   0.000  0.00  0.00    +0.000 C 
ENDROOT
BRANCH   1   2
ATOM      2  C   UNL     1       5.141   2.143   0.000  0.00  0.00    +0.000 C 
BRANCH   2   3
ATOM      3  CA  UNL     1       4.427   2.556   0.000  0.00  0.00    +0.000 C 
ATOM      4  N   UNL     1       4.427   3.381   0.000  0.00  0.00    +0.000 NA
BRANCH   3   5
ATOM      5  C   UNL     1       3.712   2.143   0.000  0.00  0.00    +0.000 C 
ATOM      6  O   UNL     1       2.998   2.556   0.000  0.00  0.00    +0.000 OA
ATOM      7  OXT UNL     1       3.712   1.318   0.000  0.00  0.00    +0.000 OA
ENDBRANCH   3   5
ENDBRANCH   2   3
ENDBRANCH   1   2
BRANCH   1   8
ATOM      8  C   UNL     1       6.570   2.143   0.000  0.00  0.00    +0.000 C 
BRANCH   8   9
ATOM      9  N   UNL     1       7.285   2.556   0.000  0.00  0.00    +0.000 NA
ATOM     10  C   UNL     1       7.999   2.143   0.000  0.00  0.00    +0.000 C 
ATOM     11  O   UNL     1       8.714   2.556   0.000  0.00  0.00    +0.000 OA
ATOM     12  N   UNL     1       7.999   1.318   0.000  0.00  0.00    +0.000 NA
ENDBRANCH   8   9
ENDBRANCH   1   8
TORSDOF 5
