REMARK  Name = 
REMARK  4 active torsions:
REMARK  status: ('A' for Active; 'I' for Inactive)
REMARK    1  A    between atoms: C_4  and  N_15
REMARK    2  A    between atoms: C_9  and  C_11
REMARK    3  A    between atoms: N_15  and  C_16
REMARK    4  A    between atoms: C_19  and  S_22
REMARK                            x       y       z     vdW  Elec       q    Type
REMARK                         _______ _______ _______ _____ _____    ______ ____
ROOT
ATOM      1  C   UNL     1       4.067   2.348   0.000  0.00  0.00    +0.000 C 
ATOM      2  C   UNL     1       3.352   1.935   0.000  0.00  0.00    +0.000 A 
ATOM      3  C   UNL     1       3.352   1.110   0.000  0.00  0.00    +0.000 A 
ATOM      4  C   UNL     1       2.638   0.698   0.000  0.00  0.00    +0.000 A 
ATOM      5  N   UNL     1       1.923   1.110   0.000  0.00  0.00    +0.000 N 
ATOM      6  C   UNL     1       1.923   1.935   0.000  0.00  0.00    +0.000 A 
ATOM      7  N   UNL     1       2.638   2.348   0.000  0.00  0.00    +0.000 NA
ATOM      8  N   UNL     1       1.139   2.190   0.000  0.00  0.00    +0.000 NA
ATOM      9  C   UNL     1       0.654   1.523   0.000  0.00  0.00    +0.000 A 
ATOM     10  N   UNL     1       1.139   0.856   0.000  0.00  0.00    +0.000 NA
ENDROOT
BRANCH   9  11
ATOM     11  C   UNL     1      -0.171   1.523   0.000  0.00  0.00    +0.000 C 
ATOM     12  C   UNL     1      -0.996   1.523   0.000  0.00  0.00    +0.000 C 
ATOM     13  F   UNL     1      -0.171   0.698   0.000  0.00  0.00    +0.000 F 
ATOM     14  F   UNL     1      -0.171   2.348   0.000  0.00  0.00    +0.000 F 
ENDBRANCH   9  11
BRANCH   4  15
ATOM     15  N   UNL     1       2.638  -0.127   0.000  0.00  0.00    +0.000 NA
BRANCH  15  16
ATOM     16  C   UNL     1       1.923  -0.540   0.000  0.00  0.00    +0.000 A 
ATOM     17  C   UNL     1       1.923  -1.365   0.000  0.00  0.00    +0.000 A 
ATOM     18  C   UNL     1       1.209  -1.777   0.000  0.00  0.00    +0.000 A 
ATOM     19  C   UNL     1       0.494  -1.365   0.000  0.00  0.00    +0.000 A 
ATOM     20  C   UNL     1       0.494  -0.540   0.000  0.00  0.00    +0.000 A 
ATOM     21  C   UNL     1       1.209  -0.127   0.000  0.00  0.00    +0.000 A 
BRANCH  19  22
ATOM     22  S   UNL     1      -0.220  -1.777   0.000  0.00  0.00    +0.000 S 
ATOM     23  F   UNL     1      -0.934  -2.190   0.000  0.00  0.00    +0.000 F 
ATOM     24  F   UNL     1      -0.220  -2.602   0.000  0.00  0.00    +0.000 F 
ATOM     25  F   UNL     1       0.494  -2.190   0.000  0.00  0.00    +0.000 F 
ATOM     26  F   UNL     1      -0.220  -0.952   0.000  0.00  0.00    +0.000 F 
ATOM     27  F   UNL     1      -0.934  -1.365   0.000  0.00  0.00    +0.000 F 
ENDBRANCH  19  22
ENDBRANCH  15  16
ENDBRANCH   4  15
TORSDOF 4
