REMARK  Name = 
REMARK  6 active torsions:
REMARK  status: ('A' for Active; 'I' for Inactive)
REMARK    1  A    between atoms: N_2  and  C_4
REMARK    2  A    between atoms: N_2  and  C_13
REMARK    3  A    between atoms: C_4  and  C_5
REMARK    4  A    between atoms: C_5  and  O_6
REMARK    5  A    between atoms: O_6  and  C_7
REMARK    6  A    between atoms: C_13  and  C_14
REMARK                            x       y       z     vdW  Elec       q    Type
REMARK                         _______ _______ _______ _____ _____    ______ ____
ROOT
ATOM      1  C   UNL     1       1.841  -0.935   0.000  0.00  0.00    +0.000 C 
ATOM      2  N   UNL     1       1.429  -1.650   0.000  0.00  0.00    +0.000 N 
ATOM      3  C   UNL     1       1.016  -2.365   0.000  0.00  0.00    +0.000 C 
ENDROOT
BRANCH   2   4
ATOM      4  C   UNL     1       2.143  -2.062   0.000  0.00  0.00    +0.000 C 
BRANCH   4   5
ATOM      5  C   UNL     1       2.143  -2.888   0.000  0.00  0.00    +0.000 C 
BRANCH   5   6
ATOM      6  O   UNL     1       2.858  -3.300   0.000  0.00  0.00    +0.000 OA
BRANCH   6   7
ATOM      7  C   UNL     1       2.858  -4.125   0.000  0.00  0.00    +0.000 A 
ATOM      8  C   UNL     1       3.572  -4.537   0.000  0.00  0.00    +0.000 A 
ATOM      9  C   UNL     1       3.572  -5.362   0.000  0.00  0.00    +0.000 A 
ATOM     10  C   UNL     1       2.858  -5.775   0.000  0.00  0.00    +0.000 A 
ATOM     11  C   UNL     1       2.143  -5.362   0.000  0.00  0.00    +0.000 A 
ATOM     12  C   UNL     1       2.143  -4.537   0.000  0.00  0.00    +0.000 A 
ENDBRANCH   6   7
ENDBRANCH   5   6
ENDBRANCH   4   5
ENDBRANCH   2   4
BRANCH   2  13
ATOM     13  C   UNL     1       0.715  -1.238   0.000  0.00  0.00    +0.000 C 
BRANCH  13  14
ATOM     14  C   UNL     1       0.715  -0.412   0.000  0.00  0.00    +0.000 A 
ATOM     15  C   UNL     1       0.000   0.000   0.000  0.00  0.00    +0.000 A 
ATOM     16  C   UNL     1       0.000   0.825   0.000  0.00  0.00    +0.000 A 
ATOM     17  C   UNL     1       0.715   1.238   0.000  0.00  0.00    +0.000 A 
ATOM     18  C   UNL     1       1.429   0.825   0.000  0.00  0.00    +0.000 A 
ATOM     19  C   UNL     1       1.429   0.000   0.000  0.00  0.00    +0.000 A 
ENDBRANCH  13  14
ENDBRANCH   2  13
TORSDOF 6
