REMARK  Name = 
REMARK  25 active torsions:
REMARK  status: ('A' for Active; 'I' for Inactive)
REMARK    1  A    between atoms: S_1  and  C_52
REMARK    2  A    between atoms: S_1  and  C_55
REMARK    3  A    between atoms: P_2  and  O_6
REMARK    4  A    between atoms: P_3  and  O_8
REMARK    5  A    between atoms: P_3  and  O_11
REMARK    6  A    between atoms: P_4  and  O_11
REMARK    7  A    between atoms: P_4  and  O_12
REMARK    8  A    between atoms: O_6  and  C_32
REMARK    9  A    between atoms: O_8  and  C_36
REMARK   10  A    between atoms: O_12  and  C_42
REMARK   11  A    between atoms: N_24  and  C_35
REMARK   12  A    between atoms: N_28  and  C_43
REMARK   13  A    between atoms: N_29  and  C_48
REMARK   14  A    between atoms: N_30  and  C_51
REMARK   15  A    between atoms: N_31  and  C_56
REMARK   16  A    between atoms: C_34  and  C_36
REMARK   17  A    between atoms: C_40  and  C_41
REMARK   18  A    between atoms: C_40  and  C_42
REMARK   19  A    between atoms: C_41  and  C_47
REMARK   20  A    between atoms: C_48  and  C_49
REMARK   21  A    between atoms: C_49  and  C_50
REMARK   22  A    between atoms: C_51  and  C_52
REMARK   23  A    between atoms: C_53  and  C_54
REMARK   24  A    between atoms: C_53  and  C_55
REMARK   25  A    between atoms: C_54  and  C_56
REMARK                            x       y       z     vdW  Elec       q    Type
REMARK                         _______ _______ _______ _____ _____    ______ ____
ROOT
ATOM      1  P   UNL     1      -3.391   1.861   0.000  0.00  0.00    +0.000 P 
ATOM      2  O   UNL     1      -3.054   2.614   0.000  0.00  0.00    +0.000 OA
ATOM      3  O   UNL     1      -3.728   1.108   0.000  0.00  0.00    +0.000 OA
ENDROOT
BRANCH   1   4
ATOM      4  O   UNL     1      -2.638   1.524   0.000  0.00  0.00    +0.000 OA
BRANCH   4   5
ATOM      5  C   UNL     1      -1.970   2.008   0.000  0.00  0.00    +0.000 C 
BRANCH   5   6
ATOM      6  C   UNL     1      -1.217   1.671   0.000  0.00  0.00    +0.000 C 
ATOM      7  C   UNL     1      -1.553   0.918   0.000  0.00  0.00    +0.000 C 
ATOM      8  C   UNL     1      -0.880   2.424   0.000  0.00  0.00    +0.000 C 
BRANCH   6  10
ATOM      9  O   UNL     1      -0.379   0.513   0.000  0.00  0.00    +0.000 OA
ATOM     10  C   UNL     1      -0.463   1.334   0.000  0.00  0.00    +0.000 C 
BRANCH  10  13
ATOM     11  O   UNL     1       0.120   2.639   0.000  0.00  0.00    +0.000 OA
ATOM     12  N   UNL     1       0.958   1.481   0.000  0.00  0.00    +0.000 N 
ATOM     13  C   UNL     1       0.205   1.818   0.000  0.00  0.00    +0.000 C 
ATOM     14  H   UNL     1       1.010   0.972   0.000  0.00  0.00    +0.000 HD
BRANCH  12  15
ATOM     15  C   UNL     1       1.626   1.965   0.000  0.00  0.00    +0.000 C 
BRANCH  15  16
ATOM     16  C   UNL     1       2.379   1.628   0.000  0.00  0.00    +0.000 C 
BRANCH  16  19
ATOM     17  O   UNL     1       2.963   2.932   0.000  0.00  0.00    +0.000 OA
ATOM     18  N   UNL     1       3.801   1.775   0.000  0.00  0.00    +0.000 N 
ATOM     19  C   UNL     1       3.048   2.112   0.000  0.00  0.00    +0.000 C 
ATOM     20  H   UNL     1       3.853   1.266   0.000  0.00  0.00    +0.000 HD
BRANCH  18  21
ATOM     21  C   UNL     1       4.469   2.259   0.000  0.00  0.00    +0.000 C 
BRANCH  21  22
ATOM     22  C   UNL     1       5.222   1.922   0.000  0.00  0.00    +0.000 C 
BRANCH  22  23
ATOM     23  S   UNL     1       5.890   2.405   0.000  0.00  0.00    +0.000 S 
BRANCH  23  25
ATOM     24  O   UNL     1       6.728   1.248   0.000  0.00  0.00    +0.000 OA
ATOM     25  C   UNL     1       6.644   2.069   0.000  0.00  0.00    +0.000 C 
BRANCH  25  26
ATOM     26  C   UNL     1       7.312   2.553   0.000  0.00  0.00    +0.000 C 
BRANCH  26  27
ATOM     27  C   UNL     1       8.065   2.216   0.000  0.00  0.00    +0.000 C 
BRANCH  27  28
ATOM     28  C   UNL     1       8.733   2.699   0.000  0.00  0.00    +0.000 C 
BRANCH  28  31
ATOM     29  O   UNL     1      10.155   2.846   0.000  0.00  0.00    +0.000 OA
ATOM     30  O   UNL     1       9.571   1.542   0.000  0.00  0.00    +0.000 OA
ATOM     31  N   UNL     1       9.486   2.362   0.000  0.00  0.00    +0.000 N 
ENDBRANCH  28  31
ENDBRANCH  27  28
ENDBRANCH  26  27
ENDBRANCH  25  26
ENDBRANCH  23  25
ENDBRANCH  22  23
ENDBRANCH  21  22
ENDBRANCH  18  21
ENDBRANCH  16  19
ENDBRANCH  15  16
ENDBRANCH  12  15
ENDBRANCH  10  13
ENDBRANCH   6  10
ENDBRANCH   5   6
ENDBRANCH   4   5
ENDBRANCH   1   4
BRANCH   1  32
ATOM     32  O   UNL     1      -4.144   2.198   0.000  0.00  0.00    +0.000 OA
BRANCH  32  33
ATOM     33  P   UNL     1      -4.812   1.714   0.000  0.00  0.00    +0.000 P 
ATOM     34  O   UNL     1      -4.329   1.046   0.000  0.00  0.00    +0.000 OA
ATOM     35  O   UNL     1      -5.296   2.382   0.000  0.00  0.00    +0.000 OA
BRANCH  33  36
ATOM     36  O   UNL     1      -5.481   1.230   0.000  0.00  0.00    +0.000 OA
BRANCH  36  37
ATOM     37  C   UNL     1      -6.234   1.567   0.000  0.00  0.00    +0.000 C 
BRANCH  37  42
ATOM     38  O   UNL     1      -6.904   0.258   0.000  0.00  0.00    +0.000 OA
ATOM     39  O   UNL     1      -8.997   0.674   0.000  0.00  0.00    +0.000 OA
ATOM     40  C   UNL     1      -7.686   1.340   0.000  0.00  0.00    +0.000 C 
ATOM     41  C   UNL     1      -8.172   0.673   0.000  0.00  0.00    +0.000 C 
ATOM     42  C   UNL     1      -6.902   1.083   0.000  0.00  0.00    +0.000 C 
ATOM     43  C   UNL     1      -7.689   0.005   0.000  0.00  0.00    +0.000 C 
BRANCH  43  44
ATOM     44  N   UNL     1      -7.945  -0.779   0.000  0.00  0.00    +0.000 N 
ATOM     45  N   UNL     1      -7.945  -2.107   0.000  0.00  0.00    +0.000 NA
ATOM     46  N   UNL     1      -9.440  -0.618   0.000  0.00  0.00    +0.000 NA
ATOM     47  N   UNL     1     -10.155  -1.856   0.000  0.00  0.00    +0.000 NA
ATOM     48  C   UNL     1      -8.726  -1.031   0.000  0.00  0.00    +0.000 A 
ATOM     49  C   UNL     1      -7.463  -1.443   0.000  0.00  0.00    +0.000 A 
ATOM     50  C   UNL     1      -8.726  -1.856   0.000  0.00  0.00    +0.000 A 
ATOM     51  C   UNL     1      -9.440  -2.268   0.000  0.00  0.00    +0.000 A 
ATOM     52  C   UNL     1     -10.155  -1.031   0.000  0.00  0.00    +0.000 A 
BRANCH  51  53
ATOM     53  N   UNL     1      -9.440  -3.093   0.000  0.00  0.00    +0.000 N 
ATOM     54  H   UNL     1      -9.883  -3.349   0.000  0.00  0.00    +0.000 HD
ATOM     55  H   UNL     1      -8.997  -3.349   0.000  0.00  0.00    +0.000 HD
ENDBRANCH  51  53
ENDBRANCH  43  44
BRANCH  40  56
ATOM     56  O   UNL     1      -7.940   2.125   0.000  0.00  0.00    +0.000 OA
BRANCH  56  57
ATOM     57  P   UNL     1      -7.387   2.737   0.000  0.00  0.00    +0.000 P 
ATOM     58  O   UNL     1      -7.999   3.290   0.000  0.00  0.00    +0.000 OA
ATOM     59  O   UNL     1      -6.834   3.349   0.000  0.00  0.00    +0.000 OA
ATOM     60  O   UNL     1      -6.775   2.184   0.000  0.00  0.00    +0.000 OA
ENDBRANCH  56  57
ENDBRANCH  40  56
ENDBRANCH  37  42
ENDBRANCH  36  37
ENDBRANCH  33  36
ENDBRANCH  32  33
ENDBRANCH   1  32
TORSDOF 25
