REMARK  Name = 
REMARK  4 active torsions:
REMARK  status: ('A' for Active; 'I' for Inactive)
REMARK    1  A    between atoms: N_5  and  C_6
REMARK    2  A    between atoms: C_6  and  C_7
REMARK    3  A    between atoms: C_6  and  B_20
REMARK    4  A    between atoms: C_7  and  C_8
REMARK                            x       y       z     vdW  Elec       q    Type
REMARK                         _______ _______ _______ _____ _____    ______ ____
ROOT
ATOM      1  C   UNL     1       0.329  -0.221   0.000  0.00  0.00    +0.000 C 
ENDROOT
BRANCH   1   2
ATOM      2  C   UNL     1       0.329   0.604   0.000  0.00  0.00    +0.000 A 
ATOM      3  C   UNL     1       1.044   1.017   0.000  0.00  0.00    +0.000 A 
ATOM      4  C   UNL     1       1.044   1.842   0.000  0.00  0.00    +0.000 A 
ATOM      5  C   UNL     1      -0.385   1.017   0.000  0.00  0.00    +0.000 A 
ATOM      6  C   UNL     1       1.781   0.576   0.000  0.00  0.00    +0.000 A 
ATOM      7  C   UNL     1       0.329   2.254   0.000  0.00  0.00    +0.000 A 
ATOM      8  C   UNL     1      -0.385   1.842   0.000  0.00  0.00    +0.000 A 
ATOM      9  C   UNL     1       1.781   2.283   0.000  0.00  0.00    +0.000 A 
ATOM     10  C   UNL     1       2.529   1.000   0.000  0.00  0.00    +0.000 A 
ATOM     11  C   UNL     1       2.529   1.859   0.000  0.00  0.00    +0.000 A 
ENDBRANCH   1   2
BRANCH   1  12
ATOM     12  C   UNL     1      -0.385  -0.633   0.000  0.00  0.00    +0.000 C 
BRANCH  12  14
ATOM     13  O   UNL     1      -1.814  -1.458   0.000  0.00  0.00    +0.000 OA
ATOM     14  N   UNL     1      -1.100  -0.221   0.000  0.00  0.00    +0.000 N 
ATOM     15  C   UNL     1      -1.814  -0.633   0.000  0.00  0.00    +0.000 C 
ATOM     16  C   UNL     1      -2.529  -0.221   0.000  0.00  0.00    +0.000 C 
ATOM     17  H   UNL     1      -1.100   0.291   0.000  0.00  0.00    +0.000 HD
ENDBRANCH  12  14
BRANCH  12  21
ATOM     18  O   UNL     1       0.440  -1.458   0.000  0.00  0.00    +0.000 OA
ATOM     19  O   UNL     1      -1.210  -1.458   0.000  0.00  0.00    +0.000 OA
ATOM     20  O   UNL     1      -0.385  -2.283   0.000  0.00  0.00    +0.000 OA
ATOM     21  B   UNL     1      -0.385  -1.458   0.000  0.00  0.00    +0.000 B 
ENDBRANCH  12  21
ENDBRANCH   1  12
TORSDOF 4
