REMARK  Name = 
REMARK  14 active torsions:
REMARK  status: ('A' for Active; 'I' for Inactive)
REMARK    1  A    between atoms: N_5  and  C_11
REMARK    2  A    between atoms: N_5  and  CA_18
REMARK    3  A    between atoms: N_6  and  C_13
REMARK    4  A    between atoms: N_7  and  C_26
REMARK    5  A    between atoms: N_8  and  C_20
REMARK    6  A    between atoms: C_11  and  C_12
REMARK    7  A    between atoms: C_11  and  C_15
REMARK    8  A    between atoms: C_12  and  C_16
REMARK    9  A    between atoms: C_13  and  C_14
REMARK   10  A    between atoms: C_13  and  C_19
REMARK   11  A    between atoms: C_14  and  C_17
REMARK   12  A    between atoms: C_16  and  C_21
REMARK   13  A    between atoms: C_17  and  C_20
REMARK   14  A    between atoms: CA_18  and  C_23
REMARK                            x       y       z     vdW  Elec       q    Type
REMARK                         _______ _______ _______ _____ _____    ______ ____
ROOT
ATOM      1  C   UNK A   0      -0.850  -0.206   0.000  0.00  0.00    +0.000 C 
ENDROOT
BRANCH   1   3
ATOM      2  O   UNK A   0      -0.850   1.444   0.000  0.00  0.00    +0.000 OA
ATOM      3  N   UNK A   0      -0.136   0.206   0.000  0.00  0.00    +0.000 N 
ATOM      4  C   UNK A   0      -0.136   1.031   0.000  0.00  0.00    +0.000 C 
ATOM      5  H   UNK A   0       0.307  -0.049   0.000  0.00  0.00    +0.000 HD
BRANCH   4   6
ATOM      6  C   UNK A   0       0.579   1.444   0.000  0.00  0.00    +0.000 C 
BRANCH   6   7
ATOM      7  N   ALA A   1       0.579   2.269   0.000  0.00  0.00    +0.000 NA
ATOM      8  H   ALA A   1       0.136   2.525   0.000  0.00  0.00    +0.000 HD
BRANCH   7   9
ATOM      9  CA  ALA A   1       1.293   2.681   0.000  0.00  0.00    +0.000 C 
ATOM     10  CB  ALA A   1       2.008   2.269   0.000  0.00  0.00    +0.000 C 
BRANCH   9  13
ATOM     11  O   ALA A   1       2.008   3.919   0.000  0.00  0.00    +0.000 OA
ATOM     12  OXT ALA A   1       0.579   3.919   0.000  0.00  0.00    +0.000 OA
ATOM     13  C   ALA A   1       1.293   3.506   0.000  0.00  0.00    +0.000 C 
ENDBRANCH   9  13
ENDBRANCH   7   9
ENDBRANCH   6   7
BRANCH   6  14
ATOM     14  C   UNK A   0       1.293   1.031   0.000  0.00  0.00    +0.000 C 
BRANCH  14  15
ATOM     15  C   UNK A   0       2.008   1.444   0.000  0.00  0.00    +0.000 C 
BRANCH  15  16
ATOM     16  C   UNK A   0       2.722   1.031   0.000  0.00  0.00    +0.000 A 
ATOM     17  C   UNK A   0       3.437   1.444   0.000  0.00  0.00    +0.000 A 
ATOM     18  C   UNK A   0       2.722   0.206   0.000  0.00  0.00    +0.000 A 
ATOM     19  C   UNK A   0       4.151   1.031   0.000  0.00  0.00    +0.000 A 
ATOM     20  C   UNK A   0       3.437  -0.206   0.000  0.00  0.00    +0.000 A 
ATOM     21  C   UNK A   0       4.151   0.206   0.000  0.00  0.00    +0.000 A 
ENDBRANCH  15  16
ENDBRANCH  14  15
ENDBRANCH   6  14
ENDBRANCH   4   6
ENDBRANCH   1   3
BRANCH   1  24
ATOM     22  O   UNK A   0      -0.136  -1.444   0.000  0.00  0.00    +0.000 OA
ATOM     23  N   UNK A   0      -1.565  -1.444   0.000  0.00  0.00    +0.000 N 
ATOM     24  C   UNK A   0      -0.850  -1.031   0.000  0.00  0.00    +0.000 C 
ATOM     25  H   UNK A   0      -2.008  -1.188   0.000  0.00  0.00    +0.000 HD
BRANCH  23  26
ATOM     26  C   UNK A   0      -1.565  -2.269   0.000  0.00  0.00    +0.000 A 
ATOM     27  C   UNK A   0      -0.850  -2.681   0.000  0.00  0.00    +0.000 A 
ATOM     28  C   UNK A   0      -2.279  -2.681   0.000  0.00  0.00    +0.000 A 
ATOM     29  C   UNK A   0      -0.850  -3.506   0.000  0.00  0.00    +0.000 A 
ATOM     30  C   UNK A   0      -2.279  -3.506   0.000  0.00  0.00    +0.000 A 
ATOM     31  C   UNK A   0      -1.565  -3.919   0.000  0.00  0.00    +0.000 A 
ENDBRANCH  23  26
ENDBRANCH   1  24
BRANCH   1  32
ATOM     32  C   UNK A   0      -1.565   0.206   0.000  0.00  0.00    +0.000 C 
BRANCH  32  33
ATOM     33  C   UNK A   0      -1.565   1.031   0.000  0.00  0.00    +0.000 C 
BRANCH  33  34
ATOM     34  C   UNK A   0      -2.279   1.444   0.000  0.00  0.00    +0.000 C 
BRANCH  34  35
ATOM     35  N   UNK A   0      -2.279   2.269   0.000  0.00  0.00    +0.000 N 
ATOM     36  N   UNK A   0      -2.994   3.506   0.000  0.00  0.00    +0.000 N 
ATOM     37  N   UNK A   0      -3.708   2.269   0.000  0.00  0.00    +0.000 N 
ATOM     38  C   UNK A   0      -2.994   2.681   0.000  0.00  0.00    +0.000 C 
ATOM     39  H   UNK A   0      -1.836   2.525   0.000  0.00  0.00    +0.000 HD
ATOM     40  H   UNK A   0      -2.551   3.762   0.000  0.00  0.00    +0.000 HD
ATOM     41  H   UNK A   0      -3.437   3.762   0.000  0.00  0.00    +0.000 HD
ATOM     42  H   UNK A   0      -3.708   1.757   0.000  0.00  0.00    +0.000 HD
ATOM     43  H   UNK A   0      -4.151   2.525   0.000  0.00  0.00    +0.000 HD
ENDBRANCH  34  35
ENDBRANCH  33  34
ENDBRANCH  32  33
ENDBRANCH   1  32
TORSDOF 14
