REMARK  Name = 
REMARK  6 active torsions:
REMARK  status: ('A' for Active; 'I' for Inactive)
REMARK    1  A    between atoms: C_2  and  FE_7
REMARK    2  A    between atoms: C_3  and  FE_7
REMARK    3  A    between atoms: C_4  and  FE_7
REMARK    4  A    between atoms: FE_7  and  C_8
REMARK    5  A    between atoms: FE_7  and  C_10
REMARK    6  A    between atoms: FE_7  and  N_12
REMARK                            x       y       z     vdW  Elec       q    Type
REMARK                         _______ _______ _______ _____ _____    ______ ____
ROOT
ATOM      1 FE   UNL     1       0.000   0.000   0.000  0.00  0.00    +0.000 Fe
ENDROOT
BRANCH   1   3
ATOM      2  N   UNL     1       0.000  -1.650   0.000  0.00  0.00    +0.000 NA
ATOM      3  C   UNL     1       0.000  -0.825   0.000  0.00  0.00    +0.000 C 
ENDBRANCH   1   3
BRANCH   1   4
ATOM      4  C   UNL     1       0.716   0.412   0.000  0.00  0.00    +0.000 C 
ATOM      5  N   UNL     1       1.429   0.825   0.000  0.00  0.00    +0.000 NA
ENDBRANCH   1   4
BRANCH   1   6
ATOM      6  C   UNL     1      -0.716   0.412   0.000  0.00  0.00    +0.000 C 
ATOM      7  N   UNL     1      -1.429   0.825   0.000  0.00  0.00    +0.000 NA
ENDBRANCH   1   6
BRANCH   1   8
ATOM      8  N   UNL     1       0.000   0.825   0.000  0.00  0.00    +0.000 NA
ATOM      9  O   UNL     1       0.000   1.650   0.000  0.00  0.00    +0.000 OA
ENDBRANCH   1   8
BRANCH   1  10
ATOM     10  C   UNL     1       0.716  -0.412   0.000  0.00  0.00    +0.000 C 
ATOM     11  N   UNL     1       1.429  -0.825   0.000  0.00  0.00    +0.000 NA
ENDBRANCH   1  10
BRANCH   1  12
ATOM     12  C   UNL     1      -0.716  -0.412   0.000  0.00  0.00    +0.000 C 
ATOM     13  N   UNL     1      -1.429  -0.825   0.000  0.00  0.00    +0.000 NA
ENDBRANCH   1  12
TORSDOF 6
