REMARK  Name = 
REMARK  3 active torsions:
REMARK  status: ('A' for Active; 'I' for Inactive)
REMARK    1  A    between atoms: C_8  and  N_9
REMARK    2  A    between atoms: C_10  and  C_12
REMARK    3  A    between atoms: C_14  and  S_20
REMARK                            x       y       z     vdW  Elec       q    Type
REMARK                         _______ _______ _______ _____ _____    ______ ____
ROOT
ATOM      1  C   UNL     1      -0.357   0.206   0.000  0.00  0.00    +0.000 A 
ATOM      2  C   UNL     1      -1.072  -0.206   0.000  0.00  0.00    +0.000 A 
ATOM      3  C   UNL     1      -1.786   0.206   0.000  0.00  0.00    +0.000 A 
ATOM      4  C   UNL     1      -1.786   1.031   0.000  0.00  0.00    +0.000 A 
ATOM      5 CL   UNL     1      -2.501   1.444   0.000  0.00  0.00    +0.000 Cl
ATOM      6  C   UNL     1      -1.072   1.444   0.000  0.00  0.00    +0.000 A 
ATOM      7  C   UNL     1      -0.357   1.031   0.000  0.00  0.00    +0.000 A 
ATOM      8  O   UNL     1       0.357   1.444   0.000  0.00  0.00    +0.000 OA
ENDROOT
BRANCH   3   9
ATOM      9  S   UNL     1      -2.501  -0.206   0.000  0.00  0.00    +0.000 S 
ATOM     10  O   UNL     1      -3.215  -0.619   0.000  0.00  0.00    +0.000 OA
ATOM     11  O   UNL     1      -2.913   0.508   0.000  0.00  0.00    +0.000 OA
ATOM     12  N   UNL     1      -2.088  -0.921   0.000  0.00  0.00    +0.000 NA
ENDBRANCH   3   9
BRANCH   1  14
ATOM     13  N   UNL     1       1.072   0.206   0.000  0.00  0.00    +0.000 NA
ATOM     14  C   UNL     1       0.357  -0.206   0.000  0.00  0.00    +0.000 C 
ATOM     15  O   UNL     1       0.357  -1.031   0.000  0.00  0.00    +0.000 OA
BRANCH  13  23
ATOM     16  C   UNL     1       2.501   1.031   0.000  0.00  0.00    +0.000 C 
ATOM     17  C   UNL     1       2.501   0.206   0.000  0.00  0.00    +0.000 A 
ATOM     18  C   UNL     1       3.215  -0.206   0.000  0.00  0.00    +0.000 A 
ATOM     19  C   UNL     1       3.215  -1.031   0.000  0.00  0.00    +0.000 A 
ATOM     20  C   UNL     1       2.501  -1.444   0.000  0.00  0.00    +0.000 A 
ATOM     21  C   UNL     1       1.786  -1.031   0.000  0.00  0.00    +0.000 A 
ATOM     22  C   UNL     1       1.072  -1.444   0.000  0.00  0.00    +0.000 C 
ATOM     23  C   UNL     1       1.786  -0.206   0.000  0.00  0.00    +0.000 A 
ENDBRANCH  13  23
ENDBRANCH   1  14
TORSDOF 3
