REMARK  Name = 
REMARK  14 active torsions:
REMARK  status: ('A' for Active; 'I' for Inactive)
REMARK    1  A    between atoms: CG1_2  and  CB_3
REMARK    2  A    between atoms: CB_3  and  CA_5
REMARK    3  A    between atoms: CA_9  and  CB_55
REMARK    4  A    between atoms: CA_13  and  CB_51
REMARK    5  A    between atoms: C_17  and  C_40
REMARK    6  A    between atoms: CA_26  and  CB_30
REMARK    7  A    between atoms: CB_30  and  CG_31
REMARK    8  A    between atoms: N_42  and  C_44
REMARK    9  A    between atoms: C_44  and  C_45
REMARK   10  A    between atoms: C_44  and  C_49
REMARK   11  A    between atoms: C_45  and  C_46
REMARK   12  A    between atoms: C_46  and  C_47
REMARK   13  A    between atoms: CB_51  and  CG_52
REMARK   14  A    between atoms: CB_55  and  CG1_57
REMARK                            x       y       z     vdW  Elec       q    Type
REMARK                         _______ _______ _______ _____ _____    ______ ____
ROOT
ATOM      1  CA  ASN A   2       0.715   5.362   0.000  0.00  0.00    +0.000 C 
ATOM      2  C   ASN A   2       0.715   6.188   0.000  0.00  0.00    +0.000 C 
ATOM      3  O   ASN A   2       0.379   6.941   0.000  0.00  0.00    +0.000 OA
ATOM      4  N   TRP A   1       1.429   6.600   0.000  0.00  0.00    +0.000 NA
ATOM      5  CA  TRP A   1       2.143   6.188   0.000  0.00  0.00    +0.000 C 
ATOM      6  C   TRP A   1       2.143   5.362   0.000  0.00  0.00    +0.000 C 
ATOM      7  O   TRP A   1       1.429   4.950   0.000  0.00  0.00    +0.000 OA
ATOM      8  N   ASN A   2       2.858   4.950   0.000  0.00  0.00    +0.000 NA
ATOM      9  CA  ASN A   2       2.858   4.125   0.000  0.00  0.00    +0.000 C 
ATOM     10  C   ASN A   2       3.572   3.712   0.000  0.00  0.00    +0.000 C 
ATOM     11  O   ASN A   2       4.287   4.125   0.000  0.00  0.00    +0.000 OA
ATOM     12  N   UNK A   3       3.572   2.888   0.000  0.00  0.00    +0.000 NA
ATOM     13  C   UNK A   3       4.287   2.475   0.000  0.00  0.00    +0.000 C 
ATOM     14  C   UNK A   3       4.287   1.650   0.000  0.00  0.00    +0.000 C 
ATOM     15  C   UNK A   3       3.572   1.238   0.000  0.00  0.00    +0.000 C 
ATOM     16  S   UNK A   3       2.858   1.650   0.000  0.00  0.00    +0.000 S 
ATOM     17  C   UNK A   3       2.143   1.238   0.000  0.00  0.00    +0.000 C 
ATOM     18  C   UNK A   3       1.429   1.650   0.000  0.00  0.00    +0.000 C 
ATOM     19  C   UNK A   3       1.429   2.475   0.000  0.00  0.00    +0.000 C 
ATOM     20  O   UNK A   3       2.143   2.888   0.000  0.00  0.00    +0.000 OA
ATOM     21  N   TRP A   1       0.715   2.888   0.000  0.00  0.00    +0.000 NA
ATOM     22  CA  TRP A   1       0.715   3.712   0.000  0.00  0.00    +0.000 C 
ATOM     23  C   TRP A   1       0.000   4.125   0.000  0.00  0.00    +0.000 C 
ATOM     24  O   TRP A   1      -0.715   3.712   0.000  0.00  0.00    +0.000 OA
ATOM     25  N   ASN A   2       0.000   4.950   0.000  0.00  0.00    +0.000 NA
ENDROOT
BRANCH  13  26
ATOM     26  C   UNK A   3       5.001   2.888   0.000  0.00  0.00    +0.000 C 
ATOM     27  O   UNK A   3       5.001   3.712   0.000  0.00  0.00    +0.000 OA
ATOM     28  N   UNK A   4       5.716   2.475   0.000  0.00  0.00    +0.000 N 
ATOM     29  C   UNK A   4       5.716   1.650   0.000  0.00  0.00    +0.000 C 
BRANCH  28  30
ATOM     30  C   UNK A   4       6.430   2.888   0.000  0.00  0.00    +0.000 C 
BRANCH  30  31
ATOM     31  C   UNK A   4       6.430   3.712   0.000  0.00  0.00    +0.000 C 
ATOM     32  O   UNK A   4       7.145   4.125   0.000  0.00  0.00    +0.000 OA
ENDBRANCH  30  31
BRANCH  30  33
ATOM     33  C   UNK A   4       7.145   2.475   0.000  0.00  0.00    +0.000 C 
BRANCH  33  34
ATOM     34  C   UNK A   4       7.859   2.888   0.000  0.00  0.00    +0.000 C 
BRANCH  34  35
ATOM     35  C   UNK A   4       8.574   2.475   0.000  0.00  0.00    +0.000 C 
ATOM     36  N   UNK A   4       9.288   2.888   0.000  0.00  0.00    +0.000 NA
ENDBRANCH  34  35
ENDBRANCH  33  34
ENDBRANCH  30  33
ENDBRANCH  28  30
ENDBRANCH  13  26
BRANCH   1  37
ATOM     37  CB  ASN A   2       0.000   5.775   0.000  0.00  0.00    +0.000 C 
ATOM     38  CG2 ASN A   2       0.000   6.600   0.000  0.00  0.00    +0.000 C 
BRANCH  37  40
ATOM     39  CD1 ASN A   2      -1.429   5.775   0.000  0.00  0.00    +0.000 C 
ATOM     40  CG1 ASN A   2      -0.715   5.362   0.000  0.00  0.00    +0.000 C 
ENDBRANCH  37  40
ENDBRANCH   1  37
BRANCH   5  41
ATOM     41  CB  TRP A   1       2.858   6.600   0.000  0.00  0.00    +0.000 C 
ATOM     42  CG2 TRP A   1       3.572   6.188   0.000  0.00  0.00    +0.000 C 
BRANCH  41  43
ATOM     43  CG1 TRP A   1       2.858   7.425   0.000  0.00  0.00    +0.000 C 
ATOM     44  CD1 TRP A   1       3.572   7.838   0.000  0.00  0.00    +0.000 C 
ENDBRANCH  41  43
ENDBRANCH   5  41
BRANCH   9  45
ATOM     45  CB  ASN A   2       3.572   4.537   0.000  0.00  0.00    +0.000 C 
BRANCH  45  46
ATOM     46  CG  ASN A   2       3.572   5.362   0.000  0.00  0.00    +0.000 C 
ATOM     47  OD1 ASN A   2       2.858   5.775   0.000  0.00  0.00    +0.000 OA
ATOM     48  ND2 ASN A   2       4.287   5.775   0.000  0.00  0.00    +0.000 NA
ENDBRANCH  45  46
ENDBRANCH   9  45
BRANCH  22  49
ATOM     49  CB  TRP A   1       0.000   3.300   0.000  0.00  0.00    +0.000 C 
BRANCH  49  50
ATOM     50  CG  TRP A   1       0.000   2.475   0.000  0.00  0.00    +0.000 A 
ATOM     51  CD1 TRP A   1       0.667   1.990   0.000  0.00  0.00    +0.000 A 
ATOM     52  NE1 TRP A   1       0.412   1.206   0.000  0.00  0.00    +0.000 NA
ATOM     53  CE2 TRP A   1      -0.412   1.206   0.000  0.00  0.00    +0.000 A 
ATOM     54  CD2 TRP A   1      -0.667   1.990   0.000  0.00  0.00    +0.000 A 
ATOM     55  CE3 TRP A   1      -1.474   2.162   0.000  0.00  0.00    +0.000 A 
ATOM     56  CZ3 TRP A   1      -2.026   1.548   0.000  0.00  0.00    +0.000 A 
ATOM     57  CH2 TRP A   1      -1.772   0.764   0.000  0.00  0.00    +0.000 A 
ATOM     58  CZ2 TRP A   1      -0.965   0.592   0.000  0.00  0.00    +0.000 A 
ENDBRANCH  49  50
ENDBRANCH  22  49
TORSDOF 14
