REMARK  Name = 
REMARK  4 active torsions:
REMARK  status: ('A' for Active; 'I' for Inactive)
REMARK    1  A    between atoms: N_2  and  C_3
REMARK    2  A    between atoms: C_3  and  C_4
REMARK    3  A    between atoms: C_4  and  O_5
REMARK    4  A    between atoms: O_5  and  P_6
REMARK                            x       y       z     vdW  Elec       q    Type
REMARK                         _______ _______ _______ _____ _____    ______ ____
ROOT
ATOM      1  C   UNL     1       0.825   1.429   0.000  0.00  0.00    +0.000 C 
ENDROOT
BRANCH   1   3
ATOM      2  C   UNL     1       2.062   0.715   0.000  0.00  0.00    +0.000 C 
ATOM      3  N   UNL     1       1.238   0.715   0.000  0.00  0.00    +0.000 N 
ATOM      4  C   UNL     1       0.825   0.000   0.000  0.00  0.00    +0.000 C 
ATOM      5  N   UNL     1       1.238  -0.715   0.000  0.00  0.00    +0.000 NA
ATOM      6  N   UNL     1       0.000   0.000   0.000  0.00  0.00    +0.000 NA
ENDBRANCH   1   3
BRANCH   1   7
ATOM      7  C   UNL     1       1.238   2.143   0.000  0.00  0.00    +0.000 C 
BRANCH   7   8
ATOM      8  O   UNL     1       0.825   2.858   0.000  0.00  0.00    +0.000 OA
BRANCH   8   9
ATOM      9  P   UNL     1       1.238   3.572   0.000  0.00  0.00    +0.000 P 
ATOM     10  O   UNL     1       1.650   4.287   0.000  0.00  0.00    +0.000 OA
ATOM     11  O   UNL     1       0.523   3.985   0.000  0.00  0.00    +0.000 OA
ATOM     12  O   UNL     1       1.952   3.160   0.000  0.00  0.00    +0.000 OA
ENDBRANCH   8   9
ENDBRANCH   7   8
ENDBRANCH   1   7
TORSDOF 4
