REMARK  Name = 
REMARK  26 active torsions:
REMARK  status: ('A' for Active; 'I' for Inactive)
REMARK    1  A    between atoms: C_5  and  C_42
REMARK    2  A    between atoms: C_6  and  C_59
REMARK    3  A    between atoms: C_7  and  N_34
REMARK    4  A    between atoms: C_9  and  O_35
REMARK    5  A    between atoms: C_10  and  O_37
REMARK    6  A    between atoms: C_10  and  C_38
REMARK    7  A    between atoms: C_11  and  C_48
REMARK    8  A    between atoms: C_12  and  C_68
REMARK    9  A    between atoms: C_13  and  C_78
REMARK   10  A    between atoms: C_14  and  C_73
REMARK   11  A    between atoms: C_15  and  C_88
REMARK   12  A    between atoms: C_16  and  C_83
REMARK   13  A    between atoms: O_35  and  P_36
REMARK   14  A    between atoms: P_36  and  O_37
REMARK   15  A    between atoms: C_38  and  N_39
REMARK   16  A    between atoms: C_40  and  C_41
REMARK   17  A    between atoms: C_41  and  C_42
REMARK   18  A    between atoms: C_59  and  C_60
REMARK   19  A    between atoms: C_68  and  C_69
REMARK   20  A    between atoms: C_69  and  C_70
REMARK   21  A    between atoms: C_73  and  C_74
REMARK   22  A    between atoms: C_78  and  C_79
REMARK   23  A    between atoms: C_79  and  C_80
REMARK   24  A    between atoms: C_83  and  C_84
REMARK   25  A    between atoms: C_88  and  C_89
REMARK   26  A    between atoms: C_89  and  C_90
REMARK                            x       y       z     vdW  Elec       q    Type
REMARK                         _______ _______ _______ _____ _____    ______ ____
ROOT
ATOM      1  C   UNL     1       0.148   2.494   0.000  0.00  0.00    +0.000 C 
ATOM      2  N   UNL     1       0.148   3.071   0.000  0.00  0.00    +0.000 NA
ENDROOT
TORSDOF 0
REMARK  Name = 
REMARK  26 active torsions:
REMARK  status: ('A' for Active; 'I' for Inactive)
REMARK    1  A    between atoms: C_5  and  C_42
REMARK    2  A    between atoms: C_6  and  C_59
REMARK    3  A    between atoms: C_7  and  N_34
REMARK    4  A    between atoms: C_9  and  O_35
REMARK    5  A    between atoms: C_10  and  O_37
REMARK    6  A    between atoms: C_10  and  C_38
REMARK    7  A    between atoms: C_11  and  C_48
REMARK    8  A    between atoms: C_12  and  C_68
REMARK    9  A    between atoms: C_13  and  C_78
REMARK   10  A    between atoms: C_14  and  C_73
REMARK   11  A    between atoms: C_15  and  C_88
REMARK   12  A    between atoms: C_16  and  C_83
REMARK   13  A    between atoms: O_35  and  P_36
REMARK   14  A    between atoms: P_36  and  O_37
REMARK   15  A    between atoms: C_38  and  N_39
REMARK   16  A    between atoms: C_40  and  C_41
REMARK   17  A    between atoms: C_41  and  C_42
REMARK   18  A    between atoms: C_59  and  C_60
REMARK   19  A    between atoms: C_68  and  C_69
REMARK   20  A    between atoms: C_69  and  C_70
REMARK   21  A    between atoms: C_73  and  C_74
REMARK   22  A    between atoms: C_78  and  C_79
REMARK   23  A    between atoms: C_79  and  C_80
REMARK   24  A    between atoms: C_83  and  C_84
REMARK   25  A    between atoms: C_88  and  C_89
REMARK   26  A    between atoms: C_89  and  C_90
REMARK                            x       y       z     vdW  Elec       q    Type
REMARK                         _______ _______ _______ _____ _____    ______ ____
ROOT
ATOM      1 CO   UNL     1      -0.167   1.518   0.000  0.00  0.00    +0.000 Co
ENDROOT
TORSDOF 0
REMARK  Name = 
REMARK  26 active torsions:
REMARK  status: ('A' for Active; 'I' for Inactive)
REMARK    1  A    between atoms: C_5  and  C_42
REMARK    2  A    between atoms: C_6  and  C_59
REMARK    3  A    between atoms: C_7  and  N_34
REMARK    4  A    between atoms: C_9  and  O_35
REMARK    5  A    between atoms: C_10  and  O_37
REMARK    6  A    between atoms: C_10  and  C_38
REMARK    7  A    between atoms: C_11  and  C_48
REMARK    8  A    between atoms: C_12  and  C_68
REMARK    9  A    between atoms: C_13  and  C_78
REMARK   10  A    between atoms: C_14  and  C_73
REMARK   11  A    between atoms: C_15  and  C_88
REMARK   12  A    between atoms: C_16  and  C_83
REMARK   13  A    between atoms: O_35  and  P_36
REMARK   14  A    between atoms: P_36  and  O_37
REMARK   15  A    between atoms: C_38  and  N_39
REMARK   16  A    between atoms: C_40  and  C_41
REMARK   17  A    between atoms: C_41  and  C_42
REMARK   18  A    between atoms: C_59  and  C_60
REMARK   19  A    between atoms: C_68  and  C_69
REMARK   20  A    between atoms: C_69  and  C_70
REMARK   21  A    between atoms: C_73  and  C_74
REMARK   22  A    between atoms: C_78  and  C_79
REMARK   23  A    between atoms: C_79  and  C_80
REMARK   24  A    between atoms: C_83  and  C_84
REMARK   25  A    between atoms: C_88  and  C_89
REMARK   26  A    between atoms: C_89  and  C_90
REMARK                            x       y       z     vdW  Elec       q    Type
REMARK                         _______ _______ _______ _____ _____    ______ ____
ROOT
ATOM      1  C   UNL     1      -1.539   2.446   0.000  0.00  0.00    +0.000 C 
ATOM      2  C   UNL     1      -1.342  -0.285   0.000  0.00  0.00    +0.000 C 
ATOM      3  C   UNL     1      -1.893   0.252   0.000  0.00  0.00    +0.000 C 
ATOM      4  C   UNL     1       1.575  -0.263   0.000  0.00  0.00    +0.000 C 
ATOM      5  C   UNL     1       2.090   3.231   0.000  0.00  0.00    +0.000 C 
ATOM      6  C   UNL     1       1.539   3.783   0.000  0.00  0.00    +0.000 C 
ATOM      7  C   UNL     1      -1.316   3.720   0.000  0.00  0.00    +0.000 C 
ATOM      8  C   UNL     1      -1.889   3.140   0.000  0.00  0.00    +0.000 C 
ATOM      9  N   UNL     1      -0.768   2.596   0.000  0.00  0.00    +0.000 NA
ATOM     10  C   UNL     1      -0.601   3.381   0.000  0.00  0.00    +0.000 C 
ATOM     11  C   UNL     1       0.111   3.764   0.000  0.00  0.00    +0.000 C 
ATOM     12  C   UNL     1       0.108   4.582   0.000  0.00  0.00    +0.000 C 
ATOM     13  C   UNL     1       0.801   3.396   0.000  0.00  0.00    +0.000 C 
ATOM     14  N   UNL     1       0.951   2.585   0.000  0.00  0.00    +0.000 NA
ATOM     15  C   UNL     1       1.700   2.475   0.000  0.00  0.00    +0.000 C 
ATOM     16  C   UNL     1       2.098   1.760   0.000  0.00  0.00    +0.000 C 
ATOM     17  C   UNL     1       1.736   1.073   0.000  0.00  0.00    +0.000 C 
ATOM     18  N   UNL     1       0.940   0.887   0.000  0.00  0.00    +0.000 NA
ATOM     19  C   UNL     1       0.801   0.106   0.000  0.00  0.00    +0.000 C 
ATOM     20  C   UNL     1       0.111  -0.270   0.000  0.00  0.00    +0.000 C 
ATOM     21  C   UNL     1      -0.601   0.124   0.000  0.00  0.00    +0.000 C 
ATOM     22  C   UNL     1      -1.524   1.011   0.000  0.00  0.00    +0.000 C 
ATOM     23  N   UNL     1      -0.725   0.873   0.000  0.00  0.00    +0.000 NA
ATOM     24  C   UNL     1      -0.933  -1.008   0.000  0.00  0.00    +0.000 C 
ATOM     25  C   UNL     1       0.111  -1.106   0.000  0.00  0.00    +0.000 C 
ATOM     26  C   UNL     1       2.116   0.292   0.000  0.00  0.00    +0.000 C 
ATOM     27  C   UNL     1       2.824   0.708   0.000  0.00  0.00    +0.000 C 
ATOM     28  C   UNL     1       2.828  -0.124   0.000  0.00  0.00    +0.000 C 
ATOM     29  C   UNL     1       2.360   3.783   0.000  0.00  0.00    +0.000 C 
ATOM     30  C   UNL     1      -2.601   2.727   0.000  0.00  0.00    +0.000 C 
ATOM     31  C   UNL     1      -2.258   2.034   0.000  0.00  0.00    +0.000 C 
ENDROOT
BRANCH   3  32
ATOM     32  C   UNL     1      -2.718   0.256   0.000  0.00  0.00    +0.000 C 
BRANCH  32  33
ATOM     33  C   UNL     1      -3.434   0.675   0.000  0.00  0.00    +0.000 C 
ATOM     34  O   UNL     1      -3.434   1.511   0.000  0.00  0.00    +0.000 OA
ATOM     35  N   UNL     1      -4.146   0.256   0.000  0.00  0.00    +0.000 NA
ENDBRANCH  32  33
ENDBRANCH   3  32
BRANCH   4  36
ATOM     36  C   UNL     1       1.572  -1.092   0.000  0.00  0.00    +0.000 C 
BRANCH  36  37
ATOM     37  C   UNL     1       2.280  -1.504   0.000  0.00  0.00    +0.000 C 
BRANCH  37  38
ATOM     38  C   UNL     1       3.098  -1.504   0.000  0.00  0.00    +0.000 C 
ATOM     39  O   UNL     1       3.496  -0.792   0.000  0.00  0.00    +0.000 OA
ATOM     40  N   UNL     1       3.496  -2.209   0.000  0.00  0.00    +0.000 NA
ENDBRANCH  37  38
ENDBRANCH  36  37
ENDBRANCH   4  36
BRANCH   2  41
ATOM     41  C   UNL     1      -1.762  -1.004   0.000  0.00  0.00    +0.000 C 
BRANCH  41  42
ATOM     42  C   UNL     1      -2.576  -1.000   0.000  0.00  0.00    +0.000 C 
BRANCH  42  44
ATOM     43  N   UNL     1      -3.813  -1.705   0.000  0.00  0.00    +0.000 NA
ATOM     44  C   UNL     1      -2.996  -1.709   0.000  0.00  0.00    +0.000 C 
ATOM     45  O   UNL     1      -2.587  -2.432   0.000  0.00  0.00    +0.000 OA
BRANCH  43  46
ATOM     46  C   UNL     1      -4.237  -2.424   0.000  0.00  0.00    +0.000 C 
BRANCH  46  47
ATOM     47  C   UNL     1      -3.824  -3.140   0.000  0.00  0.00    +0.000 C 
ATOM     48  C   UNL     1      -2.999  -3.140   0.000  0.00  0.00    +0.000 C 
BRANCH  47  49
ATOM     49  O   UNL     1      -4.237  -3.856   0.000  0.00  0.00    +0.000 OA
BRANCH  49  50
ATOM     50  P   UNL     1      -3.828  -4.575   0.000  0.00  0.00    +0.000 P 
ATOM     51  O   UNL     1      -3.832  -5.400   0.000  0.00  0.00    +0.000 OA
ATOM     52  O   UNL     1      -4.551  -4.987   0.000  0.00  0.00    +0.000 OA
BRANCH  50  53
ATOM     53  O   UNL     1      -2.189  -4.597   0.000  0.00  0.00    +0.000 OA
BRANCH  53  56
ATOM     54  C   UNL     1      -0.268  -3.582   0.000  0.00  0.00    +0.000 C 
ATOM     55  C   UNL     1      -1.090  -3.443   0.000  0.00  0.00    +0.000 C 
ATOM     56  C   UNL     1      -1.466  -4.188   0.000  0.00  0.00    +0.000 C 
ATOM     57  C   UNL     1      -0.885  -4.783   0.000  0.00  0.00    +0.000 C 
ATOM     58  O   UNL     1      -0.144  -4.407   0.000  0.00  0.00    +0.000 OA
ATOM     59  O   UNL     1      -1.495  -2.727   0.000  0.00  0.00    +0.000 OA
BRANCH  54  62
ATOM     60  N   UNL     1       0.962  -1.815   0.000  0.00  0.00    +0.000 NA
ATOM     61  C   UNL     1       0.210  -2.165   0.000  0.00  0.00    +0.000 A 
ATOM     62  N   UNL     1       0.312  -2.990   0.000  0.00  0.00    +0.000 N 
ATOM     63  C   UNL     1       1.123  -3.155   0.000  0.00  0.00    +0.000 A 
ATOM     64  C   UNL     1       1.524  -2.424   0.000  0.00  0.00    +0.000 A 
ATOM     65  C   UNL     1       2.353  -2.406   0.000  0.00  0.00    +0.000 A 
ATOM     66  C   UNL     1       2.780  -3.122   0.000  0.00  0.00    +0.000 A 
ATOM     67  C   UNL     1       2.379  -3.856   0.000  0.00  0.00    +0.000 A 
ATOM     68  C   UNL     1       1.554  -3.863   0.000  0.00  0.00    +0.000 A 
ATOM     69  C   UNL     1       2.788  -4.575   0.000  0.00  0.00    +0.000 C 
ATOM     70  C   UNL     1       3.598  -3.115   0.000  0.00  0.00    +0.000 C 
ENDBRANCH  54  62
BRANCH  57  71
ATOM     71  C   UNL     1      -1.302  -5.491   0.000  0.00  0.00    +0.000 C 
ATOM     72  O   UNL     1      -0.889  -6.210   0.000  0.00  0.00    +0.000 OA
ENDBRANCH  57  71
ENDBRANCH  53  56
ENDBRANCH  50  53
ENDBRANCH  49  50
ENDBRANCH  47  49
ENDBRANCH  46  47
ENDBRANCH  43  46
ENDBRANCH  42  44
ENDBRANCH  41  42
ENDBRANCH   2  41
BRANCH   6  73
ATOM     73  C   UNL     1       1.539   4.600   0.000  0.00  0.00    +0.000 C 
BRANCH  73  74
ATOM     74  C   UNL     1       2.244   5.020   0.000  0.00  0.00    +0.000 C 
ATOM     75  O   UNL     1       2.244   5.842   0.000  0.00  0.00    +0.000 OA
ATOM     76  N   UNL     1       2.963   4.600   0.000  0.00  0.00    +0.000 NA
ENDBRANCH  73  74
ENDBRANCH   6  73
BRANCH   5  77
ATOM     77  C   UNL     1       2.908   3.228   0.000  0.00  0.00    +0.000 C 
BRANCH  77  78
ATOM     78  C   UNL     1       3.317   2.512   0.000  0.00  0.00    +0.000 C 
BRANCH  78  79
ATOM     79  C   UNL     1       4.146   2.512   0.000  0.00  0.00    +0.000 C 
ATOM     80  O   UNL     1       4.551   3.235   0.000  0.00  0.00    +0.000 OA
ATOM     81  N   UNL     1       4.551   1.789   0.000  0.00  0.00    +0.000 NA
ENDBRANCH  78  79
ENDBRANCH  77  78
ENDBRANCH   5  77
BRANCH   8  82
ATOM     82  C   UNL     1      -2.601   3.556   0.000  0.00  0.00    +0.000 C 
BRANCH  82  83
ATOM     83  C   UNL     1      -3.434   3.560   0.000  0.00  0.00    +0.000 C 
ATOM     84  O   UNL     1      -3.846   4.276   0.000  0.00  0.00    +0.000 OA
ATOM     85  N   UNL     1      -3.846   2.841   0.000  0.00  0.00    +0.000 NA
ENDBRANCH  82  83
ENDBRANCH   8  82
BRANCH   7  86
ATOM     86  C   UNL     1      -1.323   4.549   0.000  0.00  0.00    +0.000 C 
BRANCH  86  87
ATOM     87  C   UNL     1      -0.615   4.962   0.000  0.00  0.00    +0.000 C 
BRANCH  87  88
ATOM     88  C   UNL     1      -0.619   5.791   0.000  0.00  0.00    +0.000 C 
ATOM     89  O   UNL     1      -1.331   6.210   0.000  0.00  0.00    +0.000 OA
ATOM     90  N   UNL     1       0.089   6.207   0.000  0.00  0.00    +0.000 NA
ENDBRANCH  87  88
ENDBRANCH  86  87
ENDBRANCH   7  86
TORSDOF 26
