REMARK  Name = 
REMARK  4 active torsions:
REMARK  status: ('A' for Active; 'I' for Inactive)
REMARK    1  A    between atoms: C_2  and  C_3
REMARK    2  A    between atoms: C_2  and  N_6
REMARK    3  A    between atoms: C_10  and  C_17
REMARK    4  A    between atoms: C_19  and  C_22
REMARK                            x       y       z     vdW  Elec       q    Type
REMARK                         _______ _______ _______ _____ _____    ______ ____
ROOT
ATOM      1  N   UNL     1       0.654  -0.698   0.000  0.00  0.00    +0.000 N 
ATOM      2  C   UNL     1       1.139  -0.030   0.000  0.00  0.00    +0.000 C 
ATOM      3  C   UNL     1       1.923  -0.285   0.000  0.00  0.00    +0.000 A 
ATOM      4  C   UNL     1       2.638   0.127   0.000  0.00  0.00    +0.000 A 
ATOM      5  C   UNL     1       3.352  -0.285   0.000  0.00  0.00    +0.000 A 
ATOM      6  C   UNL     1       3.352  -1.110   0.000  0.00  0.00    +0.000 A 
ATOM      7  C   UNL     1       2.638  -1.523   0.000  0.00  0.00    +0.000 A 
ATOM      8  C   UNL     1       1.923  -1.110   0.000  0.00  0.00    +0.000 A 
ATOM      9  C   UNL     1       1.139  -1.365   0.000  0.00  0.00    +0.000 C 
ATOM     10  O   UNL     1       0.884  -2.150   0.000  0.00  0.00    +0.000 OA
ATOM     11 CL   UNL     1       2.638  -2.348   0.000  0.00  0.00    +0.000 Cl
ENDROOT
BRANCH   5  12
ATOM     12  C   UNL     1       4.067   0.127   0.000  0.00  0.00    +0.000 A 
ATOM     13  C   UNL     1       4.153   0.948   0.000  0.00  0.00    +0.000 A 
ATOM     14  C   UNL     1       4.960   1.119   0.000  0.00  0.00    +0.000 A 
ATOM     15  N   UNL     1       5.372   0.405   0.000  0.00  0.00    +0.000 NA
ATOM     16  O   UNL     1       4.820  -0.208   0.000  0.00  0.00    +0.000 OA
BRANCH  14  17
ATOM     17  C   UNL     1       5.295   1.873   0.000  0.00  0.00    +0.000 C 
ATOM     18  O   UNL     1       4.811   2.540   0.000  0.00  0.00    +0.000 OA
ATOM     19  N   UNL     1       6.116   1.959   0.000  0.00  0.00    +0.000 N 
ATOM     20  C   UNL     1       6.452   2.713   0.000  0.00  0.00    +0.000 C 
ATOM     21  C   UNL     1       6.601   1.292   0.000  0.00  0.00    +0.000 C 
ENDBRANCH  14  17
ENDBRANCH   5  12
BRANCH   1  23
ATOM     22  C   UNL     1      -0.584   0.017   0.000  0.00  0.00    +0.000 C 
ATOM     23  C   UNL     1      -0.171  -0.698   0.000  0.00  0.00    +0.000 C 
BRANCH  23  24
ATOM     24  C   UNL     1      -0.584  -1.412   0.000  0.00  0.00    +0.000 C 
ATOM     25  C   UNL     1      -0.584  -2.237   0.000  0.00  0.00    +0.000 C 
ATOM     26  C   UNL     1      -1.298  -1.825   0.000  0.00  0.00    +0.000 C 
ENDBRANCH  23  24
ENDBRANCH   1  23
TORSDOF 4
