REMARK  Name = 
REMARK  9 active torsions:
REMARK  status: ('A' for Active; 'I' for Inactive)
REMARK    1  A    between atoms: C_10  and  C_18
REMARK    2  A    between atoms: C_13  and  C_25
REMARK    3  A    between atoms: C_18  and  N_29
REMARK    4  A    between atoms: C_23  and  C_24
REMARK    5  A    between atoms: C_23  and  N_30
REMARK    6  A    between atoms: C_24  and  O_31
REMARK    7  A    between atoms: C_26  and  C_28
REMARK    8  A    between atoms: C_27  and  C_28
REMARK    9  A    between atoms: C_28  and  O_31
REMARK                            x       y       z     vdW  Elec       q    Type
REMARK                         _______ _______ _______ _____ _____    ______ ____
ROOT
ATOM      1  C   UNL     1      -1.429  -1.031   0.000  0.00  0.00    +0.000 C 
ENDROOT
BRANCH   1   7
ATOM      2  C   UNL     1      -2.143   1.031   0.000  0.00  0.00    +0.000 C 
ATOM      3  C   UNL     1      -0.714   1.031   0.000  0.00  0.00    +0.000 C 
ATOM      4  C   UNL     1      -2.143   0.206   0.000  0.00  0.00    +0.000 C 
ATOM      5  C   UNL     1      -0.714   0.206   0.000  0.00  0.00    +0.000 C 
ATOM      6  N   UNL     1      -1.429   1.444   0.000  0.00  0.00    +0.000 NA
ATOM      7  N   UNL     1      -1.429  -0.206   0.000  0.00  0.00    +0.000 NA
BRANCH   6   8
ATOM      8  C   UNL     1      -1.429   2.269   0.000  0.00  0.00    +0.000 C 
BRANCH   8   9
ATOM      9  C   UNL     1      -0.714   2.681   0.000  0.00  0.00    +0.000 C 
ATOM     10  C   UNL     1      -0.714   3.506   0.000  0.00  0.00    +0.000 C 
BRANCH  10  16
ATOM     11  C   UNL     1       1.429   4.744   0.000  0.00  0.00    +0.000 A 
ATOM     12  C   UNL     1       0.714   5.156   0.000  0.00  0.00    +0.000 A 
ATOM     13  C   UNL     1       1.429   3.919   0.000  0.00  0.00    +0.000 A 
ATOM     14  C   UNL     1       0.000   4.744   0.000  0.00  0.00    +0.000 A 
ATOM     15  C   UNL     1       0.714   3.506   0.000  0.00  0.00    +0.000 A 
ATOM     16  C   UNL     1       0.000   3.919   0.000  0.00  0.00    +0.000 A 
ENDBRANCH  10  16
ENDBRANCH   8   9
ENDBRANCH   6   8
ENDBRANCH   1   7
BRANCH   1  17
ATOM     17  C   UNL     1      -0.714  -1.444   0.000  0.00  0.00    +0.000 C 
BRANCH  17  18
ATOM     18  O   UNL     1      -0.714  -2.269   0.000  0.00  0.00    +0.000 OA
BRANCH  18  19
ATOM     19  C   UNL     1       0.000  -2.681   0.000  0.00  0.00    +0.000 C 
BRANCH  19  25
ATOM     20  C   UNL     1       0.000  -5.156   0.000  0.00  0.00    +0.000 A 
ATOM     21  C   UNL     1       0.714  -4.744   0.000  0.00  0.00    +0.000 A 
ATOM     22  C   UNL     1      -0.714  -4.744   0.000  0.00  0.00    +0.000 A 
ATOM     23  C   UNL     1       0.714  -3.919   0.000  0.00  0.00    +0.000 A 
ATOM     24  C   UNL     1      -0.714  -3.919   0.000  0.00  0.00    +0.000 A 
ATOM     25  C   UNL     1       0.000  -3.506   0.000  0.00  0.00    +0.000 A 
ENDBRANCH  19  25
BRANCH  19  31
ATOM     26  C   UNL     1       2.143  -1.444   0.000  0.00  0.00    +0.000 A 
ATOM     27  C   UNL     1       1.429  -1.031   0.000  0.00  0.00    +0.000 A 
ATOM     28  C   UNL     1       2.143  -2.269   0.000  0.00  0.00    +0.000 A 
ATOM     29  C   UNL     1       0.714  -1.444   0.000  0.00  0.00    +0.000 A 
ATOM     30  C   UNL     1       1.429  -2.681   0.000  0.00  0.00    +0.000 A 
ATOM     31  C   UNL     1       0.714  -2.269   0.000  0.00  0.00    +0.000 A 
ENDBRANCH  19  31
ENDBRANCH  18  19
ENDBRANCH  17  18
ENDBRANCH   1  17
TORSDOF 9
