REMARK  Name = 
REMARK  8 active torsions:
REMARK  status: ('A' for Active; 'I' for Inactive)
REMARK    1  A    between atoms: C_3  and  C_4
REMARK    2  A    between atoms: C_4  and  C_5
REMARK    3  A    between atoms: C_5  and  C_6
REMARK    4  A    between atoms: C_7  and  C_8
REMARK    5  A    between atoms: C_8  and  C_9
REMARK    6  A    between atoms: C_9  and  C_10
REMARK    7  A    between atoms: C_11  and  C_12
REMARK    8  A    between atoms: C_12  and  N_13
REMARK                            x       y       z     vdW  Elec       q    Type
REMARK                         _______ _______ _______ _____ _____    ______ ____
ROOT
ATOM      1  N   UNL     1       4.216   2.300   0.000  0.00  0.00    +0.000 N 
ATOM      2  C   UNL     1       4.731   1.655   0.000  0.00  0.00    +0.000 A 
ATOM      3  C   UNL     1       5.519   1.899   0.000  0.00  0.00    +0.000 A 
ATOM      4  C   UNL     1       6.124   1.337   0.000  0.00  0.00    +0.000 A 
ATOM      5  C   UNL     1       5.940   0.533   0.000  0.00  0.00    +0.000 A 
ATOM      6  C   UNL     1       5.152   0.290   0.000  0.00  0.00    +0.000 A 
ATOM      7  C   UNL     1       4.547   0.851   0.000  0.00  0.00    +0.000 A 
ATOM      8  N   UNL     1       3.804   0.493   0.000  0.00  0.00    +0.000 NA
ATOM      9  C   UNL     1       3.060   0.851   0.000  0.00  0.00    +0.000 A 
ATOM     10  C   UNL     1       2.877   1.655   0.000  0.00  0.00    +0.000 A 
ATOM     11  C   UNL     1       2.088   1.899   0.000  0.00  0.00    +0.000 A 
ATOM     12  C   UNL     1       1.484   1.337   0.000  0.00  0.00    +0.000 A 
ATOM     13  C   UNL     1       1.667   0.533   0.000  0.00  0.00    +0.000 A 
ATOM     14  C   UNL     1       2.456   0.290   0.000  0.00  0.00    +0.000 A 
ATOM     15  O   UNL     1       2.639  -0.514   0.000  0.00  0.00    +0.000 OA
ATOM     16  C   UNL     1       3.391   2.300   0.000  0.00  0.00    +0.000 C 
ATOM     17  O   UNL     1       3.033   3.044   0.000  0.00  0.00    +0.000 OA
ATOM     18  O   UNL     1       4.968  -0.514   0.000  0.00  0.00    +0.000 OA
ATOM     19  O   UNL     1       6.912   1.581   0.000  0.00  0.00    +0.000 OA
ENDROOT
BRANCH   1  20
ATOM     20  C   UNL     1       4.574   3.044   0.000  0.00  0.00    +0.000 C 
BRANCH  20  22
ATOM     21  C   UNL     1       4.467   4.468   0.000  0.00  0.00    +0.000 C 
ATOM     22  C   UNL     1       4.109   3.725   0.000  0.00  0.00    +0.000 C 
ATOM     23  C   UNL     1       5.290   4.530   0.000  0.00  0.00    +0.000 C 
BRANCH  21  24
ATOM     24  C   UNL     1       4.003   5.150   0.000  0.00  0.00    +0.000 C 
BRANCH  24  25
ATOM     25  C   UNL     1       4.361   5.894   0.000  0.00  0.00    +0.000 C 
BRANCH  25  27
ATOM     26  C   UNL     1       4.254   7.318   0.000  0.00  0.00    +0.000 C 
ATOM     27  C   UNL     1       3.896   6.575   0.000  0.00  0.00    +0.000 C 
ATOM     28  C   UNL     1       5.077   7.380   0.000  0.00  0.00    +0.000 C 
BRANCH  26  29
ATOM     29  C   UNL     1       3.789   8.000   0.000  0.00  0.00    +0.000 C 
BRANCH  29  30
ATOM     30  C   UNL     1       4.147   8.743   0.000  0.00  0.00    +0.000 C 
BRANCH  30  33
ATOM     31  C   UNL     1       3.575  10.850   0.000  0.00  0.00    +0.000 C 
ATOM     32  C   UNL     1       4.040  10.168   0.000  0.00  0.00    +0.000 C 
ATOM     33  C   UNL     1       3.682   9.425   0.000  0.00  0.00    +0.000 C 
ATOM     34  C   UNL     1       4.863  10.230   0.000  0.00  0.00    +0.000 C 
ENDBRANCH  30  33
ENDBRANCH  29  30
ENDBRANCH  26  29
ENDBRANCH  25  27
ENDBRANCH  24  25
ENDBRANCH  21  24
ENDBRANCH  20  22
ENDBRANCH   1  20
TORSDOF 8
