REMARK  Name = 
REMARK  3 active torsions:
REMARK  status: ('A' for Active; 'I' for Inactive)
REMARK    1  A    between atoms: C_2  and  N_3
REMARK    2  A    between atoms: C_2  and  C_13
REMARK    3  A    between atoms: N_24  and  C_25
REMARK                            x       y       z     vdW  Elec       q    Type
REMARK                         _______ _______ _______ _____ _____    ______ ____
ROOT
ATOM      1  C   UNL     1      -0.715  -1.238   0.000  0.00  0.00    +0.000 A 
ATOM      2  N   UNL     1       0.000  -1.650   0.000  0.00  0.00    +0.000 NA
ATOM      3  C   UNL     1       0.715  -1.238   0.000  0.00  0.00    +0.000 A 
ATOM      4  C   UNL     1       0.715  -0.412   0.000  0.00  0.00    +0.000 A 
ATOM      5  C   UNL     1       1.429   0.000   0.000  0.00  0.00    +0.000 A 
ATOM      6  C   UNL     1       2.143  -0.412   0.000  0.00  0.00    +0.000 A 
ATOM      7  F   UNL     1       2.858   0.000   0.000  0.00  0.00    +0.000 F 
ATOM      8  C   UNL     1       2.143  -1.238   0.000  0.00  0.00    +0.000 A 
ATOM      9  C   UNL     1       1.429  -1.650   0.000  0.00  0.00    +0.000 A 
ATOM     10  C   UNL     1       0.000   0.000   0.000  0.00  0.00    +0.000 A 
ATOM     11  O   UNL     1       0.000   0.825   0.000  0.00  0.00    +0.000 OA
ATOM     12  N   UNL     1      -0.715  -0.412   0.000  0.00  0.00    +0.000 N 
ENDROOT
BRANCH  12  13
ATOM     13  C   UNL     1      -1.429   0.000   0.000  0.00  0.00    +0.000 A 
ATOM     14  C   UNL     1      -2.143  -0.412   0.000  0.00  0.00    +0.000 A 
ATOM     15  C   UNL     1      -2.858   0.000   0.000  0.00  0.00    +0.000 A 
ATOM     16  C   UNL     1      -2.858   0.825   0.000  0.00  0.00    +0.000 A 
ATOM     17  C   UNL     1      -2.143   1.238   0.000  0.00  0.00    +0.000 A 
ATOM     18  C   UNL     1      -1.429   0.825   0.000  0.00  0.00    +0.000 A 
ENDBRANCH  12  13
BRANCH   1  20
ATOM     19  C   UNL     1      -1.429  -2.475   0.000  0.00  0.00    +0.000 C 
ATOM     20  C   UNL     1      -1.429  -1.650   0.000  0.00  0.00    +0.000 C 
BRANCH  20  21
ATOM     21  N   UNL     1      -2.143  -1.238   0.000  0.00  0.00    +0.000 NA
ATOM     22  C   UNL     1      -2.858  -1.650   0.000  0.00  0.00    +0.000 A 
ATOM     23  N   UNL     1      -2.858  -2.475   0.000  0.00  0.00    +0.000 NA
ATOM     24  C   UNL     1      -3.572  -2.888   0.000  0.00  0.00    +0.000 A 
ATOM     25  N   UNL     1      -4.287  -2.475   0.000  0.00  0.00    +0.000 NA
ATOM     26  C   UNL     1      -4.287  -1.650   0.000  0.00  0.00    +0.000 A 
ATOM     27  C   UNL     1      -3.572  -1.238   0.000  0.00  0.00    +0.000 A 
ATOM     28  N   UNL     1      -3.744  -0.430   0.000  0.00  0.00    +0.000 NA
ATOM     29  C   UNL     1      -4.564  -0.344   0.000  0.00  0.00    +0.000 A 
ATOM     30  N   UNL     1      -4.900  -1.098   0.000  0.00  0.00    +0.000 NA
ENDBRANCH  20  21
ENDBRANCH   1  20
TORSDOF 3
