REMARK  Name = 
REMARK  5 active torsions:
REMARK  status: ('A' for Active; 'I' for Inactive)
REMARK    1  A    between atoms: O_4  and  C_15
REMARK    2  A    between atoms: C_7  and  C_8
REMARK    3  A    between atoms: C_7  and  C_9
REMARK    4  A    between atoms: C_7  and  C_10
REMARK    5  A    between atoms: C_10  and  C_11
REMARK                            x       y       z     vdW  Elec       q    Type
REMARK                         _______ _______ _______ _____ _____    ______ ____
ROOT
ATOM      1  O   UNL     1       1.095   0.000   0.000  0.00  0.00    +0.000 OA
ATOM      2  C   UNL     1       0.350   0.415   0.000  0.00  0.00    +0.000 C 
ENDROOT
BRANCH   2   5
ATOM      3  O   UNL     1       1.095   1.655   0.000  0.00  0.00    +0.000 OA
ATOM      4  N   UNL     1       2.500   0.830   0.000  0.00  0.00    +0.000 NA
ATOM      5  C   UNL     1       1.095   0.830   0.000  0.00  0.00    +0.000 C 
ATOM      6  C   UNL     1       1.800   0.415   0.000  0.00  0.00    +0.000 C 
ATOM      7  C   UNL     1       1.800   2.065   0.000  0.00  0.00    +0.000 C 
ATOM      8  C   UNL     1       2.500   1.655   0.000  0.00  0.00    +0.000 C 
ENDBRANCH   2   5
BRANCH   2  10
ATOM      9  O   UNL     1       0.350  -2.065   0.000  0.00  0.00    +0.000 OA
ATOM     10  C   UNL     1       0.350  -0.410   0.000  0.00  0.00    +0.000 C 
ATOM     11  C   UNL     1      -0.350  -0.825   0.000  0.00  0.00    +0.000 C 
ATOM     12  C   UNL     1       1.095  -0.825   0.000  0.00  0.00    +0.000 C 
ATOM     13  C   UNL     1       1.095  -1.650   0.000  0.00  0.00    +0.000 C 
ATOM     14  C   UNL     1      -0.350  -1.650   0.000  0.00  0.00    +0.000 C 
ENDBRANCH   2  10
BRANCH   2  15
ATOM     15  C   UNL     1      -0.350   0.830   0.000  0.00  0.00    +0.000 C 
BRANCH  15  17
ATOM     16  F   UNL     1      -1.800  -1.650   0.000  0.00  0.00    +0.000 F 
ATOM     17  C   UNL     1      -1.055   0.415   0.000  0.00  0.00    +0.000 A 
ATOM     18  C   UNL     1      -1.800   0.830   0.000  0.00  0.00    +0.000 A 
ATOM     19  C   UNL     1      -1.055  -0.410   0.000  0.00  0.00    +0.000 A 
ATOM     20  C   UNL     1      -1.800  -0.825   0.000  0.00  0.00    +0.000 A 
ATOM     21  C   UNL     1      -2.500   0.415   0.000  0.00  0.00    +0.000 A 
ATOM     22  C   UNL     1      -2.500  -0.410   0.000  0.00  0.00    +0.000 A 
BRANCH  18  23
ATOM     23  O   UNL     1      -1.800   1.655   0.000  0.00  0.00    +0.000 OA
ATOM     24  C   UNL     1      -1.055   2.065   0.000  0.00  0.00    +0.000 C 
ENDBRANCH  18  23
ENDBRANCH  15  17
ENDBRANCH   2  15
TORSDOF 5
