REMARK  Name = 
REMARK  2 active torsions:
REMARK  status: ('A' for Active; 'I' for Inactive)
REMARK    1  A    between atoms: C_2  and  C_15
REMARK    2  A    between atoms: C_5  and  C_7
REMARK                            x       y       z     vdW  Elec       q    Type
REMARK                         _______ _______ _______ _____ _____    ______ ____
ROOT
ATOM      1  C   UNL     1       0.162  -0.624   0.000  0.00  0.00    +0.000 C 
ATOM      2  C   UNL     1       0.715  -1.238   0.000  0.00  0.00    +0.000 C 
ATOM      3  C   UNL     1       1.382  -1.722   0.000  0.00  0.00    +0.000 C 
ATOM      4  S   UNL     1       1.127  -2.507   0.000  0.00  0.00    +0.000 S 
ATOM      5  C   UNL     1       0.302  -2.507   0.000  0.00  0.00    +0.000 C 
ATOM      6  N   UNL     1       0.047  -1.722   0.000  0.00  0.00    +0.000 NA
ENDROOT
BRANCH   5   7
ATOM      7  C   UNL     1      -0.183  -3.175   0.000  0.00  0.00    +0.000 A 
ATOM      8  C   UNL     1       0.153  -3.928   0.000  0.00  0.00    +0.000 A 
ATOM      9  C   UNL     1      -0.332  -4.596   0.000  0.00  0.00    +0.000 A 
ATOM     10  C   UNL     1      -1.153  -4.509   0.000  0.00  0.00    +0.000 A 
ATOM     11  O   UNL     1      -1.638  -5.177   0.000  0.00  0.00    +0.000 OA
ATOM     12  C   UNL     1      -1.488  -3.756   0.000  0.00  0.00    +0.000 A 
ATOM     13  C   UNL     1      -1.003  -3.088   0.000  0.00  0.00    +0.000 A 
ATOM     14  O   UNL     1      -1.339  -2.335   0.000  0.00  0.00    +0.000 OA
ENDBRANCH   5   7
BRANCH   2  15
ATOM     15  C   UNL     1       1.266  -0.624   0.000  0.00  0.00    +0.000 C 
ATOM     16  O   UNL     1       1.012   0.160   0.000  0.00  0.00    +0.000 OA
ATOM     17  O   UNL     1       2.074  -0.796   0.000  0.00  0.00    +0.000 OA
ENDBRANCH   2  15
TORSDOF 2
