REMARK  Name = 
REMARK  3 active torsions:
REMARK  status: ('A' for Active; 'I' for Inactive)
REMARK    1  A    between atoms: C_5  and  C_7
REMARK    2  A    between atoms: C_7  and  C_8
REMARK    3  A    between atoms: C_8  and  N_11
REMARK                            x       y       z     vdW  Elec       q    Type
REMARK                         _______ _______ _______ _____ _____    ______ ____
ROOT
ATOM      1  C   UNL     1      -0.002   0.414   0.000  0.00  0.00    +0.000 C 
ATOM      2  O   UNL     1      -0.006   1.239   0.000  0.00  0.00    +0.000 OA
ENDROOT
BRANCH   1   7
ATOM      3  C   UNL     1      -2.142  -0.006   0.000  0.00  0.00    +0.000 A 
ATOM      4  C   UNL     1      -2.144  -0.833   0.000  0.00  0.00    +0.000 A 
ATOM      5  C   UNL     1      -1.431  -1.246   0.000  0.00  0.00    +0.000 A 
ATOM      6  C   UNL     1      -0.711  -0.833   0.000  0.00  0.00    +0.000 A 
ATOM      7  C   UNL     1      -0.714  -0.002   0.000  0.00  0.00    +0.000 A 
ATOM      8  C   UNL     1      -1.433   0.407   0.000  0.00  0.00    +0.000 A 
ENDBRANCH   1   7
BRANCH   1   9
ATOM      9  C   UNL     1       0.715   0.005   0.000  0.00  0.00    +0.000 C 
ATOM     10  C   UNL     1       0.719  -0.820   0.000  0.00  0.00    +0.000 C 
BRANCH   9  11
ATOM     11  N   UNL     1       1.427   0.421   0.000  0.00  0.00    +0.000 NA
ATOM     12  C   UNL     1       2.144   0.012   0.000  0.00  0.00    +0.000 C 
ATOM     13  C   UNL     1       1.423   1.246   0.000  0.00  0.00    +0.000 C 
ENDBRANCH   9  11
ENDBRANCH   1   9
TORSDOF 3
