REMARK  Name = 
REMARK  1 active torsions:
REMARK  status: ('A' for Active; 'I' for Inactive)
REMARK    1  A    between atoms: C_14  and  C_17
REMARK                            x       y       z     vdW  Elec       q    Type
REMARK                         _______ _______ _______ _____ _____    ______ ____
ROOT
ATOM      1  C   UNL     1       4.644  -0.136   0.000  0.00  0.00    +0.000 C 
ATOM      2  C   UNL     1       1.491   1.209   0.000  0.00  0.00    +0.000 A 
ATOM      3  C   UNL     1       1.491   2.034   0.000  0.00  0.00    +0.000 A 
ATOM      4  C   UNL     1       2.205   0.797   0.000  0.00  0.00    +0.000 A 
ATOM      5  C   UNL     1       2.205   2.447   0.000  0.00  0.00    +0.000 A 
ATOM      6  C   UNL     1       4.911   1.209   0.000  0.00  0.00    +0.000 C 
ATOM      7  C   UNL     1       4.911   2.034   0.000  0.00  0.00    +0.000 C 
ATOM      8  C   UNL     1       3.503   0.626   0.000  0.00  0.00    +0.000 C 
ATOM      9  C   UNL     1       2.920   1.209   0.000  0.00  0.00    +0.000 A 
ATOM     10  C   UNL     1       2.920   2.034   0.000  0.00  0.00    +0.000 A 
ATOM     11  C   UNL     1       3.503   2.618   0.000  0.00  0.00    +0.000 C 
ATOM     12  N   UNL     1       4.328   0.626   0.000  0.00  0.00    +0.000 NA
ATOM     13  O   UNL     1       4.328   2.618   0.000  0.00  0.00    +0.000 OA
ENDROOT
BRANCH  11  19
ATOM     14  C   UNL     1       2.556   4.904   0.000  0.00  0.00    +0.000 A 
ATOM     15  C   UNL     1       2.054   4.250   0.000  0.00  0.00    +0.000 A 
ATOM     16  C   UNL     1       3.374   4.797   0.000  0.00  0.00    +0.000 A 
ATOM     17  C   UNL     1       2.369   3.488   0.000  0.00  0.00    +0.000 A 
ATOM     18  C   UNL     1       3.690   4.035   0.000  0.00  0.00    +0.000 A 
ATOM     19  C   UNL     1       3.187   3.380   0.000  0.00  0.00    +0.000 A 
ENDBRANCH  11  19
TORSDOF 1
