REMARK  Name = 
REMARK  3 active torsions:
REMARK  status: ('A' for Active; 'I' for Inactive)
REMARK    1  A    between atoms: C_6  and  C_9
REMARK    2  A    between atoms: N_8  and  O_13
REMARK    3  A    between atoms: O_13  and  S_14
REMARK                            x       y       z     vdW  Elec       q    Type
REMARK                         _______ _______ _______ _____ _____    ______ ____
ROOT
ATOM      1  C   UNL     1      -0.251   0.932   0.000  0.00  0.00    +0.000 C 
ATOM      2  C   UNL     1       0.464   0.519   0.000  0.00  0.00    +0.000 C 
ATOM      3  C   UNL     1       0.464  -0.305   0.000  0.00  0.00    +0.000 C 
ATOM      4  C   UNL     1      -0.251  -0.718   0.000  0.00  0.00    +0.000 C 
ATOM      5  N   UNL     1      -0.965  -0.305   0.000  0.00  0.00    +0.000 N 
ATOM      6  C   UNL     1      -0.965   0.519   0.000  0.00  0.00    +0.000 C 
ATOM      7  C   UNL     1      -0.751  -1.103   0.000  0.00  0.00    +0.000 C 
ATOM      8  N   UNL     1       0.250  -1.103   0.000  0.00  0.00    +0.000 N 
ATOM      9  O   UNL     1      -1.254  -1.757   0.000  0.00  0.00    +0.000 OA
ENDROOT
BRANCH   6  10
ATOM     10  C   UNL     1      -1.679   0.932   0.000  0.00  0.00    +0.000 C 
ATOM     11  O   UNL     1      -1.679   1.757   0.000  0.00  0.00    +0.000 OA
ATOM     12  N   UNL     1      -2.394   0.519   0.000  0.00  0.00    +0.000 NA
ENDBRANCH   6  10
BRANCH   8  13
ATOM     13  O   UNL     1       0.965  -1.515   0.000  0.00  0.00    +0.000 OA
BRANCH  13  14
ATOM     14  S   UNL     1       1.679  -1.103   0.000  0.00  0.00    +0.000 S 
ATOM     15  O   UNL     1       2.394  -1.515   0.000  0.00  0.00    +0.000 OA
ATOM     16  O   UNL     1       2.092  -0.388   0.000  0.00  0.00    +0.000 OA
ATOM     17  O   UNL     1       1.267  -0.388   0.000  0.00  0.00    +0.000 OA
ENDBRANCH  13  14
ENDBRANCH   8  13
TORSDOF 3
