REMARK  Name = 
REMARK  0 active torsions:
REMARK  status: ('A' for Active; 'I' for Inactive)
REMARK                            x       y       z     vdW  Elec       q    Type
REMARK                         _______ _______ _______ _____ _____    ______ ____
ROOT
ATOM      1  C   UNL     1       0.115  -0.410   0.000  0.00  0.00    +0.000 A 
ATOM      2  C   UNL     1       0.115   0.431   0.000  0.00  0.00    +0.000 A 
ATOM      3  N   UNL     1      -0.601  -0.820   0.000  0.00  0.00    +0.000 N 
ATOM      4  N   UNL     1      -1.314   0.410   0.000  0.00  0.00    +0.000 N 
ATOM      5  C   UNL     1      -1.314  -0.382   0.000  0.00  0.00    +0.000 A 
ATOM      6  C   UNL     1      -0.601   0.841   0.000  0.00  0.00    +0.000 A 
ATOM      7  N   UNL     1       0.879  -0.664   0.000  0.00  0.00    +0.000 NA
ATOM      8  N   UNL     1       0.879   0.692   0.000  0.00  0.00    +0.000 NA
ATOM      9  C   UNL     1       1.366  -0.003   0.000  0.00  0.00    +0.000 A 
ATOM     10  O   UNL     1      -2.054  -0.796   0.000  0.00  0.00    +0.000 OA
ATOM     11  O   UNL     1      -0.601   1.661   0.000  0.00  0.00    +0.000 OA
ATOM     12  C   UNL     1      -0.601  -1.661   0.000  0.00  0.00    +0.000 C 
ATOM     13 BR   UNL     1       2.054  -0.003   0.000  0.00  0.00    +0.000 Br
ATOM     14  C   UNL     1      -2.054   0.817   0.000  0.00  0.00    +0.000 C 
ENDROOT
TORSDOF 0
