REMARK  Name = 
REMARK  18 active torsions:
REMARK  status: ('A' for Active; 'I' for Inactive)
REMARK    1  A    between atoms: C_1  and  C_2
REMARK    2  A    between atoms: C_1  and  C_11
REMARK    3  A    between atoms: C_2  and  C_3
REMARK    4  A    between atoms: C_3  and  C_4
REMARK    5  A    between atoms: C_4  and  C_5
REMARK    6  A    between atoms: C_5  and  C_6
REMARK    7  A    between atoms: C_6  and  C_7
REMARK    8  A    between atoms: C_7  and  C_8
REMARK    9  A    between atoms: C_11  and  C_12
REMARK   10  A    between atoms: N_14  and  C_16
REMARK   11  A    between atoms: C_16  and  C_17
REMARK   12  A    between atoms: C_16  and  C_19
REMARK   13  A    between atoms: N_21  and  CA_22
REMARK   14  A    between atoms: CA_22  and  C_24
REMARK   15  A    between atoms: N_26  and  CA_27
REMARK   16  A    between atoms: CA_27  and  C_28
REMARK   17  A    between atoms: N_30  and  C_32
REMARK   18  A    between atoms: C_41  and  C_42
REMARK                            x       y       z     vdW  Elec       q    Type
REMARK                         _______ _______ _______ _____ _____    ______ ____
ROOT
ATOM      1  C   GLY A   2       3.572   1.031   0.000  0.00  0.00    +0.000 C 
ATOM      2  O   GLY A   2       3.572   0.206   0.000  0.00  0.00    +0.000 OA
ATOM      3  N   UNK A   3       4.287   1.444   0.000  0.00  0.00    +0.000 N 
ATOM      4  C   UNK A   3       4.287   2.269   0.000  0.00  0.00    +0.000 C 
ENDROOT
BRANCH   3   5
ATOM      5  C   UNK A   3       5.001   1.031   0.000  0.00  0.00    +0.000 C 
ATOM      6  C   UNK A   3       5.716   1.444   0.000  0.00  0.00    +0.000 C 
ATOM      7  O   UNK A   3       5.716   2.269   0.000  0.00  0.00    +0.000 OA
ATOM      8  N   ALA A   4       6.430   1.031   0.000  0.00  0.00    +0.000 NA
ATOM      9  CA  ALA A   4       7.145   1.444   0.000  0.00  0.00    +0.000 C 
ATOM     10  CB  ALA A   4       7.145   2.269   0.000  0.00  0.00    +0.000 C 
ATOM     11  C   ALA A   4       7.859   1.031   0.000  0.00  0.00    +0.000 C 
ATOM     12  O   ALA A   4       8.573   1.444   0.000  0.00  0.00    +0.000 OA
ATOM     13  N   UNK A   5       7.859   0.206   0.000  0.00  0.00    +0.000 NA
ATOM     14  C   UNK A   5       8.573  -0.206   0.000  0.00  0.00    +0.000 C 
ATOM     15  C   UNK A   5       8.573  -1.031   0.000  0.00  0.00    +0.000 C 
ATOM     16  C   UNK A   5       7.859  -1.444   0.000  0.00  0.00    +0.000 A 
ATOM     17  C   UNK A   5       7.145  -1.031   0.000  0.00  0.00    +0.000 A 
ATOM     18  C   UNK A   5       7.859  -2.269   0.000  0.00  0.00    +0.000 A 
ATOM     19  C   UNK A   5       7.145  -2.681   0.000  0.00  0.00    +0.000 A 
ATOM     20  C   UNK A   5       6.430  -2.269   0.000  0.00  0.00    +0.000 A 
ATOM     21  O   UNK A   5       5.716  -2.681   0.000  0.00  0.00    +0.000 OA
ATOM     22  C   UNK A   5       6.430  -1.444   0.000  0.00  0.00    +0.000 A 
ATOM     23  C   UNK A   5       5.716  -1.031   0.000  0.00  0.00    +0.000 A 
ATOM     24  C   UNK A   5       5.716  -0.206   0.000  0.00  0.00    +0.000 A 
ATOM     25  C   UNK A   5       5.001   0.206   0.000  0.00  0.00    +0.000 A 
ATOM     26  C   UNK A   5       4.287  -0.206   0.000  0.00  0.00    +0.000 A 
ATOM     27  C   UNK A   5       4.287  -1.031   0.000  0.00  0.00    +0.000 A 
ATOM     28  C   UNK A   5       5.001  -1.444   0.000  0.00  0.00    +0.000 A 
ATOM     29  O   UNK A   5       5.001  -2.269   0.000  0.00  0.00    +0.000 OA
BRANCH  14  30
ATOM     30  C   UNK A   5       9.288   0.206   0.000  0.00  0.00    +0.000 C 
ATOM     31  O   UNK A   5       9.288   1.031   0.000  0.00  0.00    +0.000 OA
ATOM     32  O   UNK A   5      10.003  -0.206   0.000  0.00  0.00    +0.000 OA
ENDBRANCH  14  30
ENDBRANCH   3   5
BRANCH   1  33
ATOM     33  CA  GLY A   2       2.858   1.444   0.000  0.00  0.00    +0.000 C 
BRANCH  33  36
ATOM     34  C   ALA A   1       1.429   1.444   0.000  0.00  0.00    +0.000 C 
ATOM     35  O   ALA A   1       1.429   2.269   0.000  0.00  0.00    +0.000 OA
ATOM     36  N   GLY A   2       2.143   1.031   0.000  0.00  0.00    +0.000 NA
BRANCH  34  37
ATOM     37  CA  ALA A   1       0.714   1.031   0.000  0.00  0.00    +0.000 C 
ATOM     38  CB  ALA A   1       0.714   0.206   0.000  0.00  0.00    +0.000 C 
BRANCH  37  41
ATOM     39  C   UNK A   0      -0.714   1.031   0.000  0.00  0.00    +0.000 C 
ATOM     40  O   UNK A   0      -0.714   0.206   0.000  0.00  0.00    +0.000 OA
ATOM     41  N   ALA A   1       0.000   1.444   0.000  0.00  0.00    +0.000 NA
BRANCH  39  42
ATOM     42  C   UNK A   0      -1.429   1.444   0.000  0.00  0.00    +0.000 C 
BRANCH  42  45
ATOM     43  C   UNK A   0      -2.858   1.444   0.000  0.00  0.00    +0.000 C 
ATOM     44  O   UNK A   0      -2.858   2.269   0.000  0.00  0.00    +0.000 OA
ATOM     45  N   UNK A   0      -2.143   1.031   0.000  0.00  0.00    +0.000 N 
ATOM     46  C   UNK A   0      -2.143   0.206   0.000  0.00  0.00    +0.000 C 
BRANCH  43  47
ATOM     47  C   UNK A   0      -3.572   1.031   0.000  0.00  0.00    +0.000 C 
BRANCH  47  48
ATOM     48  C   UNK A   0      -4.287   1.444   0.000  0.00  0.00    +0.000 C 
BRANCH  48  49
ATOM     49  C   UNK A   0      -5.001   1.031   0.000  0.00  0.00    +0.000 C 
BRANCH  49  50
ATOM     50  C   UNK A   0      -5.716   1.444   0.000  0.00  0.00    +0.000 C 
BRANCH  50  51
ATOM     51  C   UNK A   0      -6.430   1.031   0.000  0.00  0.00    +0.000 C 
BRANCH  51  52
ATOM     52  C   UNK A   0      -7.145   1.444   0.000  0.00  0.00    +0.000 C 
BRANCH  52  53
ATOM     53  C   UNK A   0      -7.859   1.031   0.000  0.00  0.00    +0.000 C 
BRANCH  53  54
ATOM     54  C   UNK A   0      -8.574   1.444   0.000  0.00  0.00    +0.000 C 
BRANCH  54  55
ATOM     55  C   UNK A   0      -9.288   1.031   0.000  0.00  0.00    +0.000 C 
ATOM     56  C   UNK A   0     -10.002   1.444   0.000  0.00  0.00    +0.000 C 
ATOM     57  C   UNK A   0      -9.288   0.206   0.000  0.00  0.00    +0.000 C 
ENDBRANCH  54  55
ENDBRANCH  53  54
ENDBRANCH  52  53
ENDBRANCH  51  52
ENDBRANCH  50  51
ENDBRANCH  49  50
ENDBRANCH  48  49
ENDBRANCH  47  48
ENDBRANCH  43  47
ENDBRANCH  42  45
BRANCH  42  58
ATOM     58  C   UNK A   0      -1.429   2.269   0.000  0.00  0.00    +0.000 C 
ATOM     59  O   UNK A   0      -0.714   2.681   0.000  0.00  0.00    +0.000 OA
ENDBRANCH  42  58
ENDBRANCH  39  42
ENDBRANCH  37  41
ENDBRANCH  34  37
ENDBRANCH  33  36
ENDBRANCH   1  33
TORSDOF 18
