REMARK  Name = 
REMARK  94 active torsions:
REMARK  status: ('A' for Active; 'I' for Inactive)
REMARK    1  A    between atoms: C_2  and  C_3
REMARK    2  A    between atoms: C_3  and  C_5
REMARK    3  A    between atoms: C_5  and  N_6
REMARK    4  A    between atoms: C_5  and  C_11
REMARK    5  A    between atoms: C_7  and  C_9
REMARK    6  A    between atoms: N_13  and  C_14
REMARK    7  A    between atoms: C_14  and  C_15
REMARK    8  A    between atoms: N_17  and  C_18
REMARK    9  A    between atoms: C_18  and  C_19
REMARK   10  A    between atoms: C_18  and  C_24
REMARK   11  A    between atoms: C_19  and  C_20
REMARK   12  A    between atoms: C_20  and  C_21
REMARK   13  A    between atoms: C_21  and  C_22
REMARK   14  A    between atoms: N_26  and  C_27
REMARK   15  A    between atoms: C_27  and  C_28
REMARK   16  A    between atoms: C_27  and  C_35
REMARK   17  A    between atoms: C_28  and  C_29
REMARK   18  A    between atoms: N_37  and  C_38
REMARK   19  A    between atoms: C_38  and  C_39
REMARK   20  A    between atoms: C_38  and  C_43
REMARK   21  A    between atoms: C_39  and  C_40
REMARK   22  A    between atoms: N_45  and  C_46
REMARK   23  A    between atoms: C_46  and  C_47
REMARK   24  A    between atoms: C_46  and  C_52
REMARK   25  A    between atoms: C_47  and  C_48
REMARK   26  A    between atoms: C_48  and  C_49
REMARK   27  A    between atoms: C_49  and  C_50
REMARK   28  A    between atoms: N_54  and  C_55
REMARK   29  A    between atoms: C_55  and  C_56
REMARK   30  A    between atoms: C_55  and  C_61
REMARK   31  A    between atoms: C_56  and  C_57
REMARK   32  A    between atoms: C_57  and  C_58
REMARK   33  A    between atoms: C_58  and  C_59
REMARK   34  A    between atoms: N_63  and  C_64
REMARK   35  A    between atoms: C_64  and  C_66
REMARK   36  A    between atoms: N_68  and  C_69
REMARK   37  A    between atoms: C_69  and  C_70
REMARK   38  A    between atoms: C_69  and  C_75
REMARK   39  A    between atoms: C_70  and  C_71
REMARK   40  A    between atoms: C_71  and  C_72
REMARK   41  A    between atoms: C_72  and  C_73
REMARK   42  A    between atoms: N_77  and  C_78
REMARK   43  A    between atoms: C_78  and  C_79
REMARK   44  A    between atoms: C_78  and  C_84
REMARK   45  A    between atoms: C_79  and  C_80
REMARK   46  A    between atoms: C_80  and  C_81
REMARK   47  A    between atoms: C_81  and  C_82
REMARK   48  A    between atoms: N_86  and  C_87
REMARK   49  A    between atoms: C_87  and  C_88
REMARK   50  A    between atoms: C_87  and  C_95
REMARK   51  A    between atoms: C_88  and  C_89
REMARK   52  A    between atoms: N_97  and  C_98
REMARK   53  A    between atoms: C_98  and  C_99
REMARK   54  A    between atoms: N_101  and  C_102
REMARK   55  A    between atoms: C_102  and  C_103
REMARK   56  A    between atoms: C_102  and  C_108
REMARK   57  A    between atoms: C_103  and  C_104
REMARK   58  A    between atoms: C_104  and  C_105
REMARK   59  A    between atoms: C_105  and  C_106
REMARK   60  A    between atoms: N_110  and  C_111
REMARK   61  A    between atoms: C_111  and  C_113
REMARK   62  A    between atoms: N_115  and  C_116
REMARK   63  A    between atoms: C_116  and  C_117
REMARK   64  A    between atoms: C_116  and  C_124
REMARK   65  A    between atoms: C_117  and  C_118
REMARK   66  A    between atoms: N_126  and  C_127
REMARK   67  A    between atoms: C_127  and  C_128
REMARK   68  A    between atoms: C_127  and  C_131
REMARK   69  A    between atoms: N_133  and  C_134
REMARK   70  A    between atoms: C_134  and  C_135
REMARK   71  A    between atoms: C_134  and  C_140
REMARK   72  A    between atoms: C_135  and  C_136
REMARK   73  A    between atoms: C_136  and  C_137
REMARK   74  A    between atoms: C_137  and  C_138
REMARK   75  A    between atoms: N_142  and  C_143
REMARK   76  A    between atoms: C_143  and  C_144
REMARK   77  A    between atoms: C_143  and  C_148
REMARK   78  A    between atoms: C_144  and  C_146
REMARK   79  A    between atoms: N_150  and  C_151
REMARK   80  A    between atoms: C_151  and  C_152
REMARK   81  A    between atoms: C_151  and  C_156
REMARK   82  A    between atoms: C_152  and  C_153
REMARK   83  A    between atoms: N_158  and  C_159
REMARK   84  A    between atoms: C_159  and  C_160
REMARK   85  A    between atoms: C_159  and  C_165
REMARK   86  A    between atoms: C_160  and  C_161
REMARK   87  A    between atoms: C_161  and  C_162
REMARK   88  A    between atoms: C_162  and  C_163
REMARK   89  A    between atoms: N_167  and  C_168
REMARK   90  A    between atoms: C_168  and  C_169
REMARK   91  A    between atoms: C_168  and  C_174
REMARK   92  A    between atoms: C_169  and  C_170
REMARK   93  A    between atoms: C_170  and  C_171
REMARK   94  A    between atoms: C_171  and  C_172
REMARK                            x       y       z     vdW  Elec       q    Type
REMARK                         _______ _______ _______ _____ _____    ______ ____
ROOT
ATOM      1  C   UNL     1      38.581 -28.875   0.000  0.00  0.00    +0.000 C 
ENDROOT
BRANCH   1   4
ATOM      2  C   UNL     1      37.153 -28.875   0.000  0.00  0.00    +0.000 C 
ATOM      3  O   UNL     1      37.153 -29.700   0.000  0.00  0.00    +0.000 OA
ATOM      4  N   UNL     1      37.867 -28.462   0.000  0.00  0.00    +0.000 NA
BRANCH   2   5
ATOM      5  C   UNL     1      36.438 -28.462   0.000  0.00  0.00    +0.000 C 
BRANCH   5   8
ATOM      6  C   UNL     1      35.009 -28.462   0.000  0.00  0.00    +0.000 C 
ATOM      7  O   UNL     1      35.009 -27.637   0.000  0.00  0.00    +0.000 OA
ATOM      8  N   UNL     1      35.724 -28.875   0.000  0.00  0.00    +0.000 NA
BRANCH   6   9
ATOM      9  C   UNL     1      34.295 -28.875   0.000  0.00  0.00    +0.000 C 
BRANCH   9  12
ATOM     10  C   UNL     1      32.866 -28.875   0.000  0.00  0.00    +0.000 C 
ATOM     11  O   UNL     1      32.866 -29.700   0.000  0.00  0.00    +0.000 OA
ATOM     12  N   UNL     1      33.580 -28.462   0.000  0.00  0.00    +0.000 NA
BRANCH  10  13
ATOM     13  C   UNL     1      32.151 -28.462   0.000  0.00  0.00    +0.000 C 
ATOM     14  C   UNL     1      32.151 -27.637   0.000  0.00  0.00    +0.000 C 
BRANCH  13  17
ATOM     15  C   UNL     1      30.722 -28.462   0.000  0.00  0.00    +0.000 C 
ATOM     16  O   UNL     1      30.722 -27.637   0.000  0.00  0.00    +0.000 OA
ATOM     17  N   UNL     1      31.437 -28.875   0.000  0.00  0.00    +0.000 NA
BRANCH  15  18
ATOM     18  C   UNL     1      30.008 -28.875   0.000  0.00  0.00    +0.000 C 
BRANCH  18  21
ATOM     19  C   UNL     1      28.579 -28.875   0.000  0.00  0.00    +0.000 C 
ATOM     20  O   UNL     1      28.579 -29.700   0.000  0.00  0.00    +0.000 OA
ATOM     21  N   UNL     1      29.293 -28.462   0.000  0.00  0.00    +0.000 NA
BRANCH  19  22
ATOM     22  C   UNL     1      27.864 -28.462   0.000  0.00  0.00    +0.000 C 
BRANCH  22  25
ATOM     23  C   UNL     1      26.435 -28.462   0.000  0.00  0.00    +0.000 C 
ATOM     24  O   UNL     1      26.435 -27.637   0.000  0.00  0.00    +0.000 OA
ATOM     25  N   UNL     1      27.150 -28.875   0.000  0.00  0.00    +0.000 NA
BRANCH  23  26
ATOM     26  C   UNL     1      25.721 -28.875   0.000  0.00  0.00    +0.000 C 
BRANCH  26  29
ATOM     27  C   UNL     1      24.292 -28.875   0.000  0.00  0.00    +0.000 C 
ATOM     28  O   UNL     1      24.292 -29.700   0.000  0.00  0.00    +0.000 OA
ATOM     29  N   UNL     1      25.006 -28.462   0.000  0.00  0.00    +0.000 NA
BRANCH  27  30
ATOM     30  C   UNL     1      23.578 -28.462   0.000  0.00  0.00    +0.000 C 
BRANCH  30  33
ATOM     31  C   UNL     1      22.149 -28.462   0.000  0.00  0.00    +0.000 C 
ATOM     32  O   UNL     1      22.149 -27.637   0.000  0.00  0.00    +0.000 OA
ATOM     33  N   UNL     1      22.863 -28.875   0.000  0.00  0.00    +0.000 NA
BRANCH  31  34
ATOM     34  C   UNL     1      21.434 -28.875   0.000  0.00  0.00    +0.000 C 
BRANCH  34  37
ATOM     35  C   UNL     1      20.005 -28.875   0.000  0.00  0.00    +0.000 C 
ATOM     36  O   UNL     1      20.005 -29.700   0.000  0.00  0.00    +0.000 OA
ATOM     37  N   UNL     1      20.720 -28.462   0.000  0.00  0.00    +0.000 NA
BRANCH  35  38
ATOM     38  C   UNL     1      19.291 -28.462   0.000  0.00  0.00    +0.000 C 
BRANCH  38  41
ATOM     39  C   UNL     1      17.862 -28.462   0.000  0.00  0.00    +0.000 C 
ATOM     40  O   UNL     1      17.862 -27.637   0.000  0.00  0.00    +0.000 OA
ATOM     41  N   UNL     1      18.576 -28.875   0.000  0.00  0.00    +0.000 NA
BRANCH  39  42
ATOM     42  C   UNL     1      17.147 -28.875   0.000  0.00  0.00    +0.000 C 
BRANCH  42  43
ATOM     43  N   UNL     1      16.433 -28.462   0.000  0.00  0.00    +0.000 NA
ATOM     44  C   UNL     1      15.718 -28.875   0.000  0.00  0.00    +0.000 C 
ATOM     45  O   UNL     1      15.718 -29.700   0.000  0.00  0.00    +0.000 OA
BRANCH  44  46
ATOM     46  C   UNL     1      15.004 -28.462   0.000  0.00  0.00    +0.000 C 
ATOM     47  N   UNL     1      14.289 -28.875   0.000  0.00  0.00    +0.000 NA
ENDBRANCH  44  46
ENDBRANCH  42  43
BRANCH  42  48
ATOM     48  C   UNL     1      17.147 -29.700   0.000  0.00  0.00    +0.000 C 
ATOM     49  C   UNL     1      16.433 -30.113   0.000  0.00  0.00    +0.000 C 
BRANCH  48  51
ATOM     50  C   UNL     1      17.862 -30.938   0.000  0.00  0.00    +0.000 C 
ATOM     51  C   UNL     1      17.862 -30.113   0.000  0.00  0.00    +0.000 C 
ENDBRANCH  48  51
ENDBRANCH  42  48
ENDBRANCH  39  42
ENDBRANCH  38  41
ENDBRANCH  35  38
ENDBRANCH  34  37
BRANCH  34  52
ATOM     52  C   UNL     1      21.434 -29.700   0.000  0.00  0.00    +0.000 C 
BRANCH  52  53
ATOM     53  C   UNL     1      22.149 -30.113   0.000  0.00  0.00    +0.000 C 
BRANCH  53  54
ATOM     54  C   UNL     1      22.149 -30.938   0.000  0.00  0.00    +0.000 C 
BRANCH  54  55
ATOM     55  C   UNL     1      22.863 -31.350   0.000  0.00  0.00    +0.000 C 
ATOM     56  N   UNL     1      22.863 -32.175   0.000  0.00  0.00    +0.000 NA
ENDBRANCH  54  55
ENDBRANCH  53  54
ENDBRANCH  52  53
ENDBRANCH  34  52
ENDBRANCH  31  34
ENDBRANCH  30  33
BRANCH  30  57
ATOM     57  C   UNL     1      23.578 -27.637   0.000  0.00  0.00    +0.000 C 
BRANCH  57  58
ATOM     58  C   UNL     1      24.292 -27.225   0.000  0.00  0.00    +0.000 A 
ATOM     59  C   UNL     1      24.292 -26.400   0.000  0.00  0.00    +0.000 A 
ATOM     60  C   UNL     1      25.006 -25.988   0.000  0.00  0.00    +0.000 A 
ATOM     61  C   UNL     1      25.721 -26.400   0.000  0.00  0.00    +0.000 A 
ATOM     62  C   UNL     1      25.721 -27.225   0.000  0.00  0.00    +0.000 A 
ATOM     63  C   UNL     1      25.006 -27.637   0.000  0.00  0.00    +0.000 A 
ENDBRANCH  57  58
ENDBRANCH  30  57
ENDBRANCH  27  30
ENDBRANCH  26  29
BRANCH  26  64
ATOM     64  C   UNL     1      25.721 -29.700   0.000  0.00  0.00    +0.000 C 
BRANCH  64  65
ATOM     65  C   UNL     1      26.435 -30.113   0.000  0.00  0.00    +0.000 C 
ATOM     66  C   UNL     1      27.150 -29.700   0.000  0.00  0.00    +0.000 C 
ATOM     67  C   UNL     1      26.435 -30.938   0.000  0.00  0.00    +0.000 C 
ENDBRANCH  64  65
ENDBRANCH  26  64
ENDBRANCH  23  26
ENDBRANCH  22  25
BRANCH  22  68
ATOM     68  C   UNL     1      27.864 -27.637   0.000  0.00  0.00    +0.000 C 
BRANCH  68  69
ATOM     69  C   UNL     1      27.150 -27.225   0.000  0.00  0.00    +0.000 C 
BRANCH  69  70
ATOM     70  C   UNL     1      27.150 -26.400   0.000  0.00  0.00    +0.000 C 
BRANCH  70  71
ATOM     71  C   UNL     1      26.435 -25.988   0.000  0.00  0.00    +0.000 C 
ATOM     72  N   UNL     1      26.435 -25.163   0.000  0.00  0.00    +0.000 NA
ENDBRANCH  70  71
ENDBRANCH  69  70
ENDBRANCH  68  69
ENDBRANCH  22  68
ENDBRANCH  19  22
ENDBRANCH  18  21
BRANCH  18  73
ATOM     73  C   UNL     1      30.008 -29.700   0.000  0.00  0.00    +0.000 C 
BRANCH  73  74
ATOM     74  C   UNL     1      30.722 -30.113   0.000  0.00  0.00    +0.000 C 
BRANCH  74  75
ATOM     75  C   UNL     1      30.722 -30.938   0.000  0.00  0.00    +0.000 C 
BRANCH  75  76
ATOM     76  C   UNL     1      31.437 -31.350   0.000  0.00  0.00    +0.000 C 
ATOM     77  N   UNL     1      31.437 -32.175   0.000  0.00  0.00    +0.000 NA
ENDBRANCH  75  76
ENDBRANCH  74  75
ENDBRANCH  73  74
ENDBRANCH  18  73
ENDBRANCH  15  18
ENDBRANCH  13  17
ENDBRANCH  10  13
ENDBRANCH   9  12
BRANCH   9  78
ATOM     78  C   UNL     1      34.295 -29.700   0.000  0.00  0.00    +0.000 C 
BRANCH  78  79
ATOM     79  C   UNL     1      35.009 -30.113   0.000  0.00  0.00    +0.000 C 
BRANCH  79  80
ATOM     80  C   UNL     1      35.009 -30.938   0.000  0.00  0.00    +0.000 C 
BRANCH  80  81
ATOM     81  C   UNL     1      35.724 -31.350   0.000  0.00  0.00    +0.000 C 
ATOM     82  N   UNL     1      35.724 -32.175   0.000  0.00  0.00    +0.000 NA
ENDBRANCH  80  81
ENDBRANCH  79  80
ENDBRANCH  78  79
ENDBRANCH   9  78
ENDBRANCH   6   9
ENDBRANCH   5   8
BRANCH   5  83
ATOM     83  C   UNL     1      36.438 -27.637   0.000  0.00  0.00    +0.000 C 
BRANCH  83  84
ATOM     84  C   UNL     1      35.724 -27.225   0.000  0.00  0.00    +0.000 C 
BRANCH  84  85
ATOM     85  C   UNL     1      35.724 -26.400   0.000  0.00  0.00    +0.000 C 
BRANCH  85  86
ATOM     86  C   UNL     1      35.009 -25.988   0.000  0.00  0.00    +0.000 C 
ATOM     87  N   UNL     1      35.009 -25.163   0.000  0.00  0.00    +0.000 NA
ENDBRANCH  85  86
ENDBRANCH  84  85
ENDBRANCH  83  84
ENDBRANCH   5  83
ENDBRANCH   2   5
ENDBRANCH   1   4
BRANCH   1  88
ATOM     88  C   UNL     1      39.296 -28.462   0.000  0.00  0.00    +0.000 C 
ATOM     89  O   UNL     1      39.296 -27.637   0.000  0.00  0.00    +0.000 OA
ATOM     90  N   UNL     1      40.010 -28.875   0.000  0.00  0.00    +0.000 NA
BRANCH  90  91
ATOM     91  C   UNL     1      40.725 -28.462   0.000  0.00  0.00    +0.000 C 
BRANCH  91  92
ATOM     92  C   UNL     1      41.439 -28.875   0.000  0.00  0.00    +0.000 C 
ATOM     93  O   UNL     1      41.439 -29.700   0.000  0.00  0.00    +0.000 OA
ATOM     94  N   UNL     1      42.154 -28.462   0.000  0.00  0.00    +0.000 NA
BRANCH  94  95
ATOM     95  C   UNL     1      42.868 -28.875   0.000  0.00  0.00    +0.000 C 
BRANCH  95  96
ATOM     96  C   UNL     1      43.583 -28.462   0.000  0.00  0.00    +0.000 C 
ATOM     97  O   UNL     1      43.583 -27.637   0.000  0.00  0.00    +0.000 OA
ATOM     98  N   UNL     1      44.297 -28.875   0.000  0.00  0.00    +0.000 NA
BRANCH  98  99
ATOM     99  C   UNL     1      45.012 -28.462   0.000  0.00  0.00    +0.000 C 
ATOM    100  C   UNL     1      45.012 -27.637   0.000  0.00  0.00    +0.000 C 
BRANCH  99 101
ATOM    101  C   UNL     1      45.726 -28.875   0.000  0.00  0.00    +0.000 C 
ATOM    102  O   UNL     1      45.726 -29.700   0.000  0.00  0.00    +0.000 OA
ATOM    103  N   UNL     1      46.441 -28.462   0.000  0.00  0.00    +0.000 NA
BRANCH 103 104
ATOM    104  C   UNL     1      47.155 -28.875   0.000  0.00  0.00    +0.000 C 
BRANCH 104 105
ATOM    105  C   UNL     1      47.870 -28.462   0.000  0.00  0.00    +0.000 C 
ATOM    106  O   UNL     1      47.870 -27.637   0.000  0.00  0.00    +0.000 OA
ATOM    107  N   UNL     1      48.584 -28.875   0.000  0.00  0.00    +0.000 NA
BRANCH 107 108
ATOM    108  C   UNL     1      49.298 -28.462   0.000  0.00  0.00    +0.000 C 
BRANCH 108 109
ATOM    109  C   UNL     1      50.013 -28.875   0.000  0.00  0.00    +0.000 C 
ATOM    110  O   UNL     1      50.013 -29.700   0.000  0.00  0.00    +0.000 OA
ATOM    111  N   UNL     1      50.727 -28.462   0.000  0.00  0.00    +0.000 NA
BRANCH 111 112
ATOM    112  C   UNL     1      51.442 -28.875   0.000  0.00  0.00    +0.000 C 
BRANCH 112 113
ATOM    113  C   UNL     1      52.156 -28.462   0.000  0.00  0.00    +0.000 C 
ATOM    114  O   UNL     1      52.156 -27.637   0.000  0.00  0.00    +0.000 OA
ATOM    115  N   UNL     1      52.871 -28.875   0.000  0.00  0.00    +0.000 NA
BRANCH 115 116
ATOM    116  C   UNL     1      53.585 -28.462   0.000  0.00  0.00    +0.000 C 
BRANCH 116 117
ATOM    117  C   UNL     1      54.300 -28.875   0.000  0.00  0.00    +0.000 C 
ATOM    118  O   UNL     1      54.300 -29.700   0.000  0.00  0.00    +0.000 OA
ATOM    119  N   UNL     1      55.014 -28.462   0.000  0.00  0.00    +0.000 NA
BRANCH 119 120
ATOM    120  C   UNL     1      55.729 -28.875   0.000  0.00  0.00    +0.000 C 
BRANCH 120 121
ATOM    121  C   UNL     1      56.443 -28.462   0.000  0.00  0.00    +0.000 C 
ATOM    122  O   UNL     1      56.443 -27.637   0.000  0.00  0.00    +0.000 OA
ATOM    123  N   UNL     1      57.158 -28.875   0.000  0.00  0.00    +0.000 NA
BRANCH 123 124
ATOM    124  C   UNL     1      57.872 -28.462   0.000  0.00  0.00    +0.000 C 
BRANCH 124 125
ATOM    125  C   UNL     1      58.587 -28.875   0.000  0.00  0.00    +0.000 C 
ATOM    126  O   UNL     1      58.587 -29.700   0.000  0.00  0.00    +0.000 OA
ATOM    127  N   UNL     1      59.301 -28.462   0.000  0.00  0.00    +0.000 NA
BRANCH 127 128
ATOM    128  C   UNL     1      60.016 -28.875   0.000  0.00  0.00    +0.000 C 
BRANCH 128 129
ATOM    129  C   UNL     1      60.016 -29.700   0.000  0.00  0.00    +0.000 C 
ATOM    130  N   UNL     1      60.730 -30.113   0.000  0.00  0.00    +0.000 NA
ATOM    131  O   UNL     1      59.301 -30.113   0.000  0.00  0.00    +0.000 OA
ENDBRANCH 128 129
BRANCH 128 132
ATOM    132  C   UNL     1      60.730 -28.462   0.000  0.00  0.00    +0.000 C 
BRANCH 132 133
ATOM    133  C   UNL     1      61.444 -28.875   0.000  0.00  0.00    +0.000 C 
BRANCH 133 134
ATOM    134  C   UNL     1      62.159 -28.462   0.000  0.00  0.00    +0.000 C 
BRANCH 134 135
ATOM    135  C   UNL     1      62.873 -28.875   0.000  0.00  0.00    +0.000 C 
ATOM    136  N   UNL     1      63.588 -28.462   0.000  0.00  0.00    +0.000 NA
ENDBRANCH 134 135
ENDBRANCH 133 134
ENDBRANCH 132 133
ENDBRANCH 128 132
ENDBRANCH 127 128
ENDBRANCH 124 125
BRANCH 124 137
ATOM    137  C   UNL     1      57.872 -27.637   0.000  0.00  0.00    +0.000 C 
BRANCH 137 138
ATOM    138  C   UNL     1      57.158 -27.225   0.000  0.00  0.00    +0.000 C 
BRANCH 138 139
ATOM    139  C   UNL     1      57.158 -26.400   0.000  0.00  0.00    +0.000 C 
BRANCH 139 140
ATOM    140  C   UNL     1      56.443 -25.988   0.000  0.00  0.00    +0.000 C 
ATOM    141  N   UNL     1      56.443 -25.163   0.000  0.00  0.00    +0.000 NA
ENDBRANCH 139 140
ENDBRANCH 138 139
ENDBRANCH 137 138
ENDBRANCH 124 137
ENDBRANCH 123 124
ENDBRANCH 120 121
BRANCH 120 142
ATOM    142  C   UNL     1      55.729 -29.700   0.000  0.00  0.00    +0.000 C 
BRANCH 142 143
ATOM    143  C   UNL     1      56.443 -30.113   0.000  0.00  0.00    +0.000 C 
ATOM    144  C   UNL     1      57.158 -29.700   0.000  0.00  0.00    +0.000 C 
ATOM    145  C   UNL     1      56.443 -30.938   0.000  0.00  0.00    +0.000 C 
ENDBRANCH 142 143
ENDBRANCH 120 142
ENDBRANCH 119 120
ENDBRANCH 116 117
BRANCH 116 146
ATOM    146  C   UNL     1      53.585 -27.637   0.000  0.00  0.00    +0.000 C 
ATOM    147  C   UNL     1      54.300 -27.225   0.000  0.00  0.00    +0.000 C 
BRANCH 146 148
ATOM    148  C   UNL     1      52.871 -27.225   0.000  0.00  0.00    +0.000 C 
ATOM    149  C   UNL     1      52.871 -26.400   0.000  0.00  0.00    +0.000 C 
ENDBRANCH 146 148
ENDBRANCH 116 146
ENDBRANCH 115 116
ENDBRANCH 112 113
BRANCH 112 150
ATOM    150  C   UNL     1      51.442 -29.700   0.000  0.00  0.00    +0.000 C 
BRANCH 150 151
ATOM    151  C   UNL     1      52.156 -30.113   0.000  0.00  0.00    +0.000 C 
BRANCH 151 152
ATOM    152  C   UNL     1      52.156 -30.938   0.000  0.00  0.00    +0.000 C 
BRANCH 152 153
ATOM    153  C   UNL     1      52.871 -31.350   0.000  0.00  0.00    +0.000 C 
ATOM    154  N   UNL     1      52.871 -32.175   0.000  0.00  0.00    +0.000 NA
ENDBRANCH 152 153
ENDBRANCH 151 152
ENDBRANCH 150 151
ENDBRANCH 112 150
ENDBRANCH 111 112
ENDBRANCH 108 109
BRANCH 108 155
ATOM    155  C   UNL     1      49.298 -27.637   0.000  0.00  0.00    +0.000 C 
ATOM    156  C   UNL     1      50.013 -27.225   0.000  0.00  0.00    +0.000 C 
ATOM    157  C   UNL     1      48.584 -27.225   0.000  0.00  0.00    +0.000 C 
ENDBRANCH 108 155
ENDBRANCH 107 108
ENDBRANCH 104 105
BRANCH 104 158
ATOM    158  C   UNL     1      47.155 -29.700   0.000  0.00  0.00    +0.000 C 
BRANCH 158 159
ATOM    159  C   UNL     1      47.870 -30.113   0.000  0.00  0.00    +0.000 A 
ATOM    160  C   UNL     1      48.584 -29.700   0.000  0.00  0.00    +0.000 A 
ATOM    161  C   UNL     1      49.298 -30.113   0.000  0.00  0.00    +0.000 A 
ATOM    162  C   UNL     1      49.298 -30.938   0.000  0.00  0.00    +0.000 A 
ATOM    163  C   UNL     1      48.584 -31.350   0.000  0.00  0.00    +0.000 A 
ATOM    164  C   UNL     1      47.870 -30.938   0.000  0.00  0.00    +0.000 A 
ENDBRANCH 158 159
ENDBRANCH 104 158
ENDBRANCH 103 104
ENDBRANCH  99 101
ENDBRANCH  98  99
ENDBRANCH  95  96
BRANCH  95 165
ATOM    165  C   UNL     1      42.868 -29.700   0.000  0.00  0.00    +0.000 C 
BRANCH 165 166
ATOM    166  C   UNL     1      43.583 -30.113   0.000  0.00  0.00    +0.000 C 
BRANCH 166 167
ATOM    167  C   UNL     1      43.583 -30.938   0.000  0.00  0.00    +0.000 C 
BRANCH 167 168
ATOM    168  C   UNL     1      44.297 -31.350   0.000  0.00  0.00    +0.000 C 
ATOM    169  N   UNL     1      44.297 -32.175   0.000  0.00  0.00    +0.000 NA
ENDBRANCH 167 168
ENDBRANCH 166 167
ENDBRANCH 165 166
ENDBRANCH  95 165
ENDBRANCH  94  95
ENDBRANCH  91  92
ENDBRANCH  90  91
ENDBRANCH   1  88
BRANCH   1 170
ATOM    170  C   UNL     1      38.581 -29.700   0.000  0.00  0.00    +0.000 C 
BRANCH 170 171
ATOM    171  C   UNL     1      39.296 -30.113   0.000  0.00  0.00    +0.000 A 
ATOM    172  C   UNL     1      40.010 -29.700   0.000  0.00  0.00    +0.000 A 
ATOM    173  C   UNL     1      40.725 -30.113   0.000  0.00  0.00    +0.000 A 
ATOM    174  C   UNL     1      40.725 -30.938   0.000  0.00  0.00    +0.000 A 
ATOM    175  C   UNL     1      40.010 -31.350   0.000  0.00  0.00    +0.000 A 
ATOM    176  C   UNL     1      39.296 -30.938   0.000  0.00  0.00    +0.000 A 
ENDBRANCH 170 171
ENDBRANCH   1 170
TORSDOF 94
