REMARK  Name = 
REMARK  15 active torsions:
REMARK  status: ('A' for Active; 'I' for Inactive)
REMARK    1  A    between atoms: C_2  and  C_4
REMARK    2  A    between atoms: C_4  and  N_5
REMARK    3  A    between atoms: C_4  and  C_38
REMARK    4  A    between atoms: C_6  and  C_7
REMARK    5  A    between atoms: C_7  and  N_8
REMARK    6  A    between atoms: C_7  and  C_35
REMARK    7  A    between atoms: C_9  and  C_10
REMARK    8  A    between atoms: C_10  and  N_11
REMARK    9  A    between atoms: C_10  and  C_32
REMARK   10  A    between atoms: C_12  and  C_13
REMARK   11  A    between atoms: C_13  and  N_14
REMARK   12  A    between atoms: C_13  and  C_25
REMARK   13  A    between atoms: C_15  and  C_16
REMARK   14  A    between atoms: C_25  and  C_26
REMARK   15  A    between atoms: C_38  and  C_39
REMARK                            x       y       z     vdW  Elec       q    Type
REMARK                         _______ _______ _______ _____ _____    ______ ____
ROOT
ATOM      1  N   UNK A   1      -1.935  -0.185   0.000  0.00  0.00    +0.000 NA
ATOM      2  C   UNK A   1      -2.576  -0.704   0.000  0.00  0.00    +0.000 C 
ATOM      3  O   UNK A   1      -2.448  -1.519   0.000  0.00  0.00    +0.000 OA
ENDROOT
BRANCH   2   4
ATOM      4  C   UNK A   1      -3.346  -0.407   0.000  0.00  0.00    +0.000 C 
BRANCH   4   5
ATOM      5  N   UNK A   1      -3.475   0.407   0.000  0.00  0.00    +0.000 NA
ATOM      6  C   UNK A   0      -2.833   0.926   0.000  0.00  0.00    +0.000 C 
ATOM      7  O   UNK A   0      -2.063   0.630   0.000  0.00  0.00    +0.000 OA
BRANCH   6   8
ATOM      8  C   UNK A   0      -2.961   1.741   0.000  0.00  0.00    +0.000 C 
ATOM      9  N   UNK A   0      -3.696   2.116   0.000  0.00  0.00    +0.000 N 
ATOM     10  C   UNK A   0      -4.431   1.742   0.000  0.00  0.00    +0.000 C 
ATOM     11  C   UNK A   0      -5.123   2.192   0.000  0.00  0.00    +0.000 C 
ATOM     12  O   UNK A   0      -4.475   0.918   0.000  0.00  0.00    +0.000 OA
ATOM     13  C   UNK A   0      -3.566   2.931   0.000  0.00  0.00    +0.000 C 
ATOM     14  C   UNK A   0      -2.751   3.059   0.000  0.00  0.00    +0.000 C 
ATOM     15  C   UNK A   0      -2.377   2.324   0.000  0.00  0.00    +0.000 C 
ENDBRANCH   6   8
ENDBRANCH   4   5
BRANCH   4  16
ATOM     16  C   UNK A   1      -3.988  -0.926   0.000  0.00  0.00    +0.000 C 
BRANCH  16  17
ATOM     17  C   UNK A   1      -3.860  -1.741   0.000  0.00  0.00    +0.000 A 
ATOM     18  C   UNK A   1      -3.125  -2.116   0.000  0.00  0.00    +0.000 A 
ATOM     19  N   UNK A   1      -3.255  -2.931   0.000  0.00  0.00    +0.000 NA
ATOM     20  C   UNK A   1      -4.070  -3.059   0.000  0.00  0.00    +0.000 A 
ATOM     21  N   UNK A   1      -4.443  -2.324   0.000  0.00  0.00    +0.000 NA
ENDBRANCH  16  17
ENDBRANCH   4  16
ENDBRANCH   2   4
BRANCH   1  22
ATOM     22  C   UNK A   1      -1.165  -0.481   0.000  0.00  0.00    +0.000 C 
BRANCH  22  24
ATOM     23  N   UNK A   1       0.247  -0.259   0.000  0.00  0.00    +0.000 NA
ATOM     24  C   UNK A   1      -0.523   0.037   0.000  0.00  0.00    +0.000 C 
ATOM     25  O   UNK A   1      -0.651   0.852   0.000  0.00  0.00    +0.000 OA
BRANCH  23  26
ATOM     26  C   UNK A   1       0.888   0.259   0.000  0.00  0.00    +0.000 C 
BRANCH  26  28
ATOM     27  N   UNK A   1       2.300   0.481   0.000  0.00  0.00    +0.000 NA
ATOM     28  C   UNK A   1       1.658  -0.037   0.000  0.00  0.00    +0.000 C 
ATOM     29  O   UNK A   1       1.787  -0.852   0.000  0.00  0.00    +0.000 OA
BRANCH  27  30
ATOM     30  C   UNK A   1       3.070   0.185   0.000  0.00  0.00    +0.000 C 
BRANCH  30  32
ATOM     31  O   UNK A   1       3.968  -0.926   0.000  0.00  0.00    +0.000 OA
ATOM     32  C   UNK A   1       3.198  -0.630   0.000  0.00  0.00    +0.000 C 
ATOM     33  N   UNK A   1       2.557  -1.148   0.000  0.00  0.00    +0.000 NA
ENDBRANCH  30  32
BRANCH  30  34
ATOM     34  C   UNK A   1       3.711   0.704   0.000  0.00  0.00    +0.000 C 
BRANCH  34  35
ATOM     35  C   UNK A   1       4.481   0.407   0.000  0.00  0.00    +0.000 C 
ATOM     36  N   UNK A   1       4.610  -0.407   0.000  0.00  0.00    +0.000 NA
ATOM     37  O   UNK A   1       5.123   0.926   0.000  0.00  0.00    +0.000 OA
ENDBRANCH  34  35
ENDBRANCH  30  34
ENDBRANCH  27  30
ENDBRANCH  26  28
BRANCH  26  38
ATOM     38  C   UNK A   1       0.760   1.074   0.000  0.00  0.00    +0.000 C 
ATOM     39  S   UNK A   1      -0.010   1.371   0.000  0.00  0.00    +0.000 S 
ENDBRANCH  26  38
ENDBRANCH  23  26
ENDBRANCH  22  24
BRANCH  22  40
ATOM     40  C   UNK A   1      -1.036  -1.296   0.000  0.00  0.00    +0.000 C 
ATOM     41  O   UNK A   1      -1.678  -1.815   0.000  0.00  0.00    +0.000 OA
ENDBRANCH  22  40
ENDBRANCH   1  22
TORSDOF 15
