REMARK  Name = 
REMARK  43 active torsions:
REMARK  status: ('A' for Active; 'I' for Inactive)
REMARK    1  A    between atoms: C_2  and  C_3
REMARK    2  A    between atoms: C_3  and  C_4
REMARK    3  A    between atoms: C_4  and  C_5
REMARK    4  A    between atoms: C_5  and  C_6
REMARK    5  A    between atoms: C_6  and  C_7
REMARK    6  A    between atoms: C_7  and  C_8
REMARK    7  A    between atoms: C_8  and  C_9
REMARK    8  A    between atoms: C_9  and  C_10
REMARK    9  A    between atoms: C_10  and  C_11
REMARK   10  A    between atoms: C_11  and  C_12
REMARK   11  A    between atoms: C_12  and  C_13
REMARK   12  A    between atoms: C_13  and  C_14
REMARK   13  A    between atoms: C_14  and  C_15
REMARK   14  A    between atoms: C_15  and  C_16
REMARK   15  A    between atoms: C_16  and  C_17
REMARK   16  A    between atoms: C_17  and  C_18
REMARK   17  A    between atoms: C_18  and  C_19
REMARK   18  A    between atoms: C_19  and  C_20
REMARK   19  A    between atoms: C_20  and  C_21
REMARK   20  A    between atoms: C_21  and  C_22
REMARK   21  A    between atoms: C_22  and  C_23
REMARK   22  A    between atoms: C_23  and  C_24
REMARK   23  A    between atoms: N_26  and  C_27
REMARK   24  A    between atoms: C_27  and  C_28
REMARK   25  A    between atoms: C_27  and  C_44
REMARK   26  A    between atoms: C_28  and  O_29
REMARK   27  A    between atoms: O_29  and  C_30
REMARK   28  A    between atoms: C_32  and  C_33
REMARK   29  A    between atoms: C_33  and  N_34
REMARK   30  A    between atoms: C_44  and  C_46
REMARK   31  A    between atoms: C_46  and  C_48
REMARK   32  A    between atoms: C_48  and  C_49
REMARK   33  A    between atoms: C_49  and  C_50
REMARK   34  A    between atoms: C_50  and  C_51
REMARK   35  A    between atoms: C_51  and  C_52
REMARK   36  A    between atoms: C_52  and  C_53
REMARK   37  A    between atoms: C_53  and  C_54
REMARK   38  A    between atoms: C_54  and  C_55
REMARK   39  A    between atoms: C_55  and  C_56
REMARK   40  A    between atoms: C_56  and  C_57
REMARK   41  A    between atoms: C_57  and  C_58
REMARK   42  A    between atoms: C_58  and  C_59
REMARK   43  A    between atoms: C_59  and  C_60
REMARK                            x       y       z     vdW  Elec       q    Type
REMARK                         _______ _______ _______ _____ _____    ______ ____
ROOT
ATOM      1  C   UNL     1       1.429  -2.475   0.000  0.00  0.00    +0.000 C 
ENDROOT
BRANCH   1   4
ATOM      2  C   UNL     1       0.000  -2.475   0.000  0.00  0.00    +0.000 C 
ATOM      3  O   UNL     1       0.000  -1.650   0.000  0.00  0.00    +0.000 OA
ATOM      4  N   UNL     1       0.715  -2.888   0.000  0.00  0.00    +0.000 NA
BRANCH   2   5
ATOM      5  C   UNL     1      -0.715  -2.888   0.000  0.00  0.00    +0.000 C 
BRANCH   5   6
ATOM      6  C   UNL     1      -1.429  -2.475   0.000  0.00  0.00    +0.000 C 
BRANCH   6   7
ATOM      7  C   UNL     1      -2.143  -2.888   0.000  0.00  0.00    +0.000 C 
BRANCH   7   8
ATOM      8  C   UNL     1      -2.858  -2.475   0.000  0.00  0.00    +0.000 C 
BRANCH   8   9
ATOM      9  C   UNL     1      -3.572  -2.888   0.000  0.00  0.00    +0.000 C 
BRANCH   9  10
ATOM     10  C   UNL     1      -4.287  -2.475   0.000  0.00  0.00    +0.000 C 
BRANCH  10  11
ATOM     11  C   UNL     1      -5.001  -2.888   0.000  0.00  0.00    +0.000 C 
BRANCH  11  12
ATOM     12  C   UNL     1      -5.716  -2.475   0.000  0.00  0.00    +0.000 C 
BRANCH  12  13
ATOM     13  C   UNL     1      -6.430  -2.888   0.000  0.00  0.00    +0.000 C 
BRANCH  13  14
ATOM     14  C   UNL     1      -7.145  -2.475   0.000  0.00  0.00    +0.000 C 
BRANCH  14  15
ATOM     15  C   UNL     1      -7.859  -2.888   0.000  0.00  0.00    +0.000 C 
BRANCH  15  16
ATOM     16  C   UNL     1      -8.574  -2.475   0.000  0.00  0.00    +0.000 C 
BRANCH  16  17
ATOM     17  C   UNL     1      -9.288  -2.888   0.000  0.00  0.00    +0.000 C 
BRANCH  17  18
ATOM     18  C   UNL     1     -10.003  -2.475   0.000  0.00  0.00    +0.000 C 
BRANCH  18  19
ATOM     19  C   UNL     1     -10.717  -2.888   0.000  0.00  0.00    +0.000 C 
BRANCH  19  20
ATOM     20  C   UNL     1     -11.431  -2.475   0.000  0.00  0.00    +0.000 C 
BRANCH  20  21
ATOM     21  C   UNL     1     -12.146  -2.888   0.000  0.00  0.00    +0.000 C 
BRANCH  21  22
ATOM     22  C   UNL     1     -12.861  -2.475   0.000  0.00  0.00    +0.000 C 
BRANCH  22  23
ATOM     23  C   UNL     1     -13.575  -2.888   0.000  0.00  0.00    +0.000 C 
BRANCH  23  24
ATOM     24  C   UNL     1     -14.289  -2.475   0.000  0.00  0.00    +0.000 C 
BRANCH  24  25
ATOM     25  C   UNL     1     -15.004  -2.888   0.000  0.00  0.00    +0.000 C 
BRANCH  25  27
ATOM     26  C   UNL     1     -16.433  -2.888   0.000  0.00  0.00    +0.000 C 
ATOM     27  C   UNL     1     -15.718  -2.475   0.000  0.00  0.00    +0.000 C 
ENDBRANCH  25  27
ENDBRANCH  24  25
ENDBRANCH  23  24
ENDBRANCH  22  23
ENDBRANCH  21  22
ENDBRANCH  20  21
ENDBRANCH  19  20
ENDBRANCH  18  19
ENDBRANCH  17  18
ENDBRANCH  16  17
ENDBRANCH  15  16
ENDBRANCH  14  15
ENDBRANCH  13  14
ENDBRANCH  12  13
ENDBRANCH  11  12
ENDBRANCH  10  11
ENDBRANCH   9  10
ENDBRANCH   8   9
ENDBRANCH   7   8
ENDBRANCH   6   7
ENDBRANCH   5   6
ENDBRANCH   2   5
ENDBRANCH   1   4
BRANCH   1  28
ATOM     28  C   UNL     1       2.143  -2.888   0.000  0.00  0.00    +0.000 C 
ATOM     29  O   UNL     1       2.143  -3.712   0.000  0.00  0.00    +0.000 OA
BRANCH  28  30
ATOM     30  C   UNL     1       2.858  -2.475   0.000  0.00  0.00    +0.000 C 
ATOM     31  O   UNL     1       2.858  -1.650   0.000  0.00  0.00    +0.000 OA
BRANCH  30  32
ATOM     32  C   UNL     1       3.572  -2.888   0.000  0.00  0.00    +0.000 C 
BRANCH  32  33
ATOM     33  C   UNL     1       4.287  -2.475   0.000  0.00  0.00    +0.000 C 
BRANCH  33  34
ATOM     34  C   UNL     1       5.001  -2.888   0.000  0.00  0.00    +0.000 C 
BRANCH  34  35
ATOM     35  C   UNL     1       5.716  -2.475   0.000  0.00  0.00    +0.000 C 
BRANCH  35  36
ATOM     36  C   UNL     1       6.430  -2.888   0.000  0.00  0.00    +0.000 C 
BRANCH  36  37
ATOM     37  C   UNL     1       7.145  -2.475   0.000  0.00  0.00    +0.000 C 
BRANCH  37  38
ATOM     38  C   UNL     1       7.859  -2.888   0.000  0.00  0.00    +0.000 C 
BRANCH  38  39
ATOM     39  C   UNL     1       8.574  -2.475   0.000  0.00  0.00    +0.000 C 
BRANCH  39  40
ATOM     40  C   UNL     1       9.288  -2.888   0.000  0.00  0.00    +0.000 C 
BRANCH  40  41
ATOM     41  C   UNL     1      10.003  -2.475   0.000  0.00  0.00    +0.000 C 
BRANCH  41  42
ATOM     42  C   UNL     1      10.717  -2.888   0.000  0.00  0.00    +0.000 C 
BRANCH  42  43
ATOM     43  C   UNL     1      11.431  -2.475   0.000  0.00  0.00    +0.000 C 
BRANCH  43  44
ATOM     44  C   UNL     1      12.146  -2.888   0.000  0.00  0.00    +0.000 C 
ATOM     45  C   UNL     1      12.861  -2.475   0.000  0.00  0.00    +0.000 C 
ENDBRANCH  43  44
ENDBRANCH  42  43
ENDBRANCH  41  42
ENDBRANCH  40  41
ENDBRANCH  39  40
ENDBRANCH  38  39
ENDBRANCH  37  38
ENDBRANCH  36  37
ENDBRANCH  35  36
ENDBRANCH  34  35
ENDBRANCH  33  34
ENDBRANCH  32  33
ENDBRANCH  30  32
ENDBRANCH  28  30
ENDBRANCH   1  28
BRANCH   1  46
ATOM     46  C   UNL     1       1.429  -1.650   0.000  0.00  0.00    +0.000 C 
BRANCH  46  47
ATOM     47  O   UNL     1       0.715  -1.238   0.000  0.00  0.00    +0.000 OA
BRANCH  47  48
ATOM     48  C   UNL     1       0.715  -0.412   0.000  0.00  0.00    +0.000 C 
ATOM     49  O   UNL     1       0.000   0.000   0.000  0.00  0.00    +0.000 OA
ATOM     50  C   UNL     1       0.000   0.825   0.000  0.00  0.00    +0.000 C 
ATOM     51  C   UNL     1       0.715   1.238   0.000  0.00  0.00    +0.000 C 
ATOM     52  O   UNL     1       0.715   2.062   0.000  0.00  0.00    +0.000 OA
ATOM     53  C   UNL     1       1.429   0.825   0.000  0.00  0.00    +0.000 C 
ATOM     54  O   UNL     1       2.143   1.238   0.000  0.00  0.00    +0.000 OA
ATOM     55  C   UNL     1       1.429   0.000   0.000  0.00  0.00    +0.000 C 
ATOM     56  O   UNL     1       2.143  -0.412   0.000  0.00  0.00    +0.000 OA
BRANCH  50  57
ATOM     57  C   UNL     1      -0.715   1.238   0.000  0.00  0.00    +0.000 C 
BRANCH  57  58
ATOM     58  N   UNL     1      -0.715   2.062   0.000  0.00  0.00    +0.000 NA
ATOM     59  C   UNL     1      -1.429   2.475   0.000  0.00  0.00    +0.000 C 
ATOM     60  C   UNL     1      -2.143   2.062   0.000  0.00  0.00    +0.000 C 
ATOM     61  O   UNL     1      -1.429   3.300   0.000  0.00  0.00    +0.000 OA
ENDBRANCH  57  58
ENDBRANCH  50  57
ENDBRANCH  47  48
ENDBRANCH  46  47
ENDBRANCH   1  46
TORSDOF 43
