REMARK  Name = 
REMARK  8 active torsions:
REMARK  status: ('A' for Active; 'I' for Inactive)
REMARK    1  A    between atoms: C_4  and  N_12
REMARK    2  A    between atoms: N_12  and  C_14
REMARK    3  A    between atoms: N_13  and  C_16
REMARK    4  A    between atoms: N_13  and  C_17
REMARK    5  A    between atoms: N_13  and  C_18
REMARK    6  A    between atoms: C_14  and  C_19
REMARK    7  A    between atoms: C_15  and  C_16
REMARK    8  A    between atoms: C_15  and  C_19
REMARK                            x       y       z     vdW  Elec       q    Type
REMARK                         _______ _______ _______ _____ _____    ______ ____
ROOT
ATOM      1  N   UNL     1       2.143  -2.062   0.000  0.00  0.00    +0.000 NA
ATOM      2  C   UNL     1       2.858  -1.650   0.000  0.00  0.00    +0.000 A 
ATOM      3  C   UNL     1       1.429  -0.825   0.000  0.00  0.00    +0.000 A 
ATOM      4  C   UNL     1       2.143  -0.412   0.000  0.00  0.00    +0.000 A 
ATOM      5  C   UNL     1       1.429  -1.650   0.000  0.00  0.00    +0.000 A 
ATOM      6  C   UNL     1       0.714  -2.062   0.000  0.00  0.00    +0.000 A 
ATOM      7  C   UNL     1       0.714  -0.412   0.000  0.00  0.00    +0.000 A 
ATOM      8  C   UNL     1       0.000  -1.650   0.000  0.00  0.00    +0.000 A 
ATOM      9  C   UNL     1       2.858  -0.825   0.000  0.00  0.00    +0.000 A 
ATOM     10  C   UNL     1       0.000  -0.825   0.000  0.00  0.00    +0.000 A 
ATOM     11 CL   UNL     1      -0.714  -2.062   0.000  0.00  0.00    +0.000 Cl
ENDROOT
BRANCH   4  12
ATOM     12  N   UNL     1       2.143   0.412   0.000  0.00  0.00    +0.000 NA
BRANCH  12  13
ATOM     13  C   UNL     1       1.429   0.825   0.000  0.00  0.00    +0.000 C 
ATOM     14  C   UNL     1       1.429   1.650   0.000  0.00  0.00    +0.000 C 
BRANCH  13  15
ATOM     15  C   UNL     1       0.715   0.412   0.000  0.00  0.00    +0.000 C 
BRANCH  15  16
ATOM     16  C   UNL     1       0.000   0.825   0.000  0.00  0.00    +0.000 C 
BRANCH  16  17
ATOM     17  C   UNL     1      -0.714   0.412   0.000  0.00  0.00    +0.000 C 
BRANCH  17  18
ATOM     18  N   UNL     1      -1.429   0.825   0.000  0.00  0.00    +0.000 NA
BRANCH  18  19
ATOM     19  C   UNL     1      -2.143   0.412   0.000  0.00  0.00    +0.000 C 
ATOM     20  C   UNL     1      -2.858   0.825   0.000  0.00  0.00    +0.000 C 
ENDBRANCH  18  19
BRANCH  18  21
ATOM     21  C   UNL     1      -1.429   1.650   0.000  0.00  0.00    +0.000 C 
ATOM     22  C   UNL     1      -2.143   2.062   0.000  0.00  0.00    +0.000 C 
ENDBRANCH  18  21
ENDBRANCH  17  18
ENDBRANCH  16  17
ENDBRANCH  15  16
ENDBRANCH  13  15
ENDBRANCH  12  13
ENDBRANCH   4  12
TORSDOF 8
