REMARK  Name = 
REMARK  5 active torsions:
REMARK  status: ('A' for Active; 'I' for Inactive)
REMARK    1  A    between atoms: C_3  and  C_19
REMARK    2  A    between atoms: C_4  and  C_9
REMARK    3  A    between atoms: C_6  and  C_14
REMARK    4  A    between atoms: N_8  and  C_14
REMARK    5  A    between atoms: C_19  and  C_24
REMARK                            x       y       z     vdW  Elec       q    Type
REMARK                         _______ _______ _______ _____ _____    ______ ____
ROOT
ATOM      1  C   UNL     1      -1.542  -0.760   0.000  0.00  0.00    +0.000 A 
ATOM      2  N   UNL     1      -1.542  -1.586   0.000  0.00  0.00    +0.000 N 
ATOM      3  C   UNL     1      -0.829  -0.348   0.000  0.00  0.00    +0.000 A 
ATOM      4  N   UNL     1      -2.329  -0.506   0.000  0.00  0.00    +0.000 NA
ATOM      5  C   UNL     1      -0.113  -0.760   0.000  0.00  0.00    +0.000 A 
ATOM      6  N   UNL     1      -2.329  -1.840   0.000  0.00  0.00    +0.000 NA
ATOM      7  N   UNL     1      -0.113  -1.586   0.000  0.00  0.00    +0.000 NA
ATOM      8  C   UNL     1      -0.829  -1.998   0.000  0.00  0.00    +0.000 A 
ATOM      9  C   UNL     1      -2.813  -1.173   0.000  0.00  0.00    +0.000 A 
ATOM     10  C   UNL     1      -3.638  -1.173   0.000  0.00  0.00    +0.000 C 
ENDROOT
BRANCH   5  11
ATOM     11  C   UNL     1       0.600  -0.348   0.000  0.00  0.00    +0.000 C 
BRANCH  11  13
ATOM     12  C   UNL     1       2.067  -0.423   0.000  0.00  0.00    +0.000 A 
ATOM     13  N   UNL     1       1.313  -0.760   0.000  0.00  0.00    +0.000 N 
ATOM     14  N   UNL     1       2.621  -1.036   0.000  0.00  0.00    +0.000 NA
ATOM     15  C   UNL     1       2.209  -1.752   0.000  0.00  0.00    +0.000 A 
ATOM     16  C   UNL     1       1.400  -1.581   0.000  0.00  0.00    +0.000 A 
BRANCH  12  17
ATOM     17  C   UNL     1       2.242   0.385   0.000  0.00  0.00    +0.000 A 
ATOM     18  N   UNL     1       1.625   0.935   0.000  0.00  0.00    +0.000 NA
ATOM     19  C   UNL     1       3.025   0.640   0.000  0.00  0.00    +0.000 A 
ATOM     20  F   UNL     1       3.638   0.085   0.000  0.00  0.00    +0.000 F 
ATOM     21  C   UNL     1       1.800   1.744   0.000  0.00  0.00    +0.000 A 
ATOM     22  C   UNL     1       3.196   1.444   0.000  0.00  0.00    +0.000 A 
ATOM     23  C   UNL     1       2.584   1.998   0.000  0.00  0.00    +0.000 A 
ENDBRANCH  12  17
ENDBRANCH  11  13
ENDBRANCH   5  11
BRANCH   3  24
ATOM     24  C   UNL     1      -0.829   0.477   0.000  0.00  0.00    +0.000 C 
BRANCH  24  25
ATOM     25  C   UNL     1      -1.542   0.890   0.000  0.00  0.00    +0.000 C 
ATOM     26  C   UNL     1      -1.542   1.715   0.000  0.00  0.00    +0.000 C 
ENDBRANCH  24  25
ENDBRANCH   3  24
TORSDOF 5
