REMARK  Name = 
REMARK  9 active torsions:
REMARK  status: ('A' for Active; 'I' for Inactive)
REMARK    1  A    between atoms: CA_1  and  CB_2
REMARK    2  A    between atoms: CA_1  and  N_3
REMARK    3  A    between atoms: CA_1  and  C_4
REMARK    4  A    between atoms: CB_2  and  CG_5
REMARK    5  A    between atoms: N_3  and  C_6
REMARK    6  A    between atoms: CG_5  and  CD_9
REMARK    7  A    between atoms: C_6  and  C_10
REMARK    8  A    between atoms: CD_9  and  NE_11
REMARK    9  A    between atoms: C_10  and  C_12
REMARK                            x       y       z     vdW  Elec       q    Type
REMARK                         _______ _______ _______ _____ _____    ______ ____
ROOT
ATOM      1  CA  ARG A   1       1.429   1.031   0.000  0.00  0.00    +0.000 C 
ENDROOT
BRANCH   1   2
ATOM      2  C   ARG A   1       2.143   1.444   0.000  0.00  0.00    +0.000 C 
ATOM      3  O   ARG A   1       2.858   1.031   0.000  0.00  0.00    +0.000 OA
ATOM      4  OXT ARG A   1       2.143   2.269   0.000  0.00  0.00    +0.000 OA
ENDBRANCH   1   2
BRANCH   1   5
ATOM      5  N   ARG A   1       1.429   0.206   0.000  0.00  0.00    +0.000 NA
BRANCH   5   6
ATOM      6  C   UNK A   0       0.715  -0.206   0.000  0.00  0.00    +0.000 C 
BRANCH   6   7
ATOM      7  C   UNK A   0       0.715  -1.031   0.000  0.00  0.00    +0.000 C 
BRANCH   7   8
ATOM      8  C   UNK A   0       0.000  -1.444   0.000  0.00  0.00    +0.000 C 
ATOM      9  O   UNK A   0      -0.715  -1.031   0.000  0.00  0.00    +0.000 OA
ATOM     10  O   UNK A   0       0.000  -2.269   0.000  0.00  0.00    +0.000 OA
ENDBRANCH   7   8
ENDBRANCH   6   7
ENDBRANCH   5   6
ENDBRANCH   1   5
BRANCH   1  11
ATOM     11  CB  ARG A   1       0.715   1.444   0.000  0.00  0.00    +0.000 C 
BRANCH  11  12
ATOM     12  CG  ARG A   1       0.000   1.031   0.000  0.00  0.00    +0.000 C 
BRANCH  12  13
ATOM     13  CD  ARG A   1      -0.715   1.444   0.000  0.00  0.00    +0.000 C 
BRANCH  13  14
ATOM     14  NE  ARG A   1      -1.429   1.031   0.000  0.00  0.00    +0.000 NA
ATOM     15  CZ  ARG A   1      -2.143   1.444   0.000  0.00  0.00    +0.000 C 
ATOM     16  NH1 ARG A   1      -2.858   1.031   0.000  0.00  0.00    +0.000 NA
ATOM     17  NH2 ARG A   1      -2.143   2.269   0.000  0.00  0.00    +0.000 NA
ENDBRANCH  13  14
ENDBRANCH  12  13
ENDBRANCH  11  12
ENDBRANCH   1  11
TORSDOF 9
