REMARK  Name = 
REMARK  2 active torsions:
REMARK  status: ('A' for Active; 'I' for Inactive)
REMARK    1  A    between atoms: C_12  and  C_16
REMARK    2  A    between atoms: C_16  and  C_18
REMARK                            x       y       z     vdW  Elec       q    Type
REMARK                         _______ _______ _______ _____ _____    ______ ____
ROOT
ATOM      1  C   UNL     1      -3.160  -0.327   0.000  0.00  0.00    +0.000 A 
ATOM      2  C   UNL     1      -3.635  -1.002   0.000  0.00  0.00    +0.000 A 
ATOM      3  C   UNL     1      -3.288  -1.750   0.000  0.00  0.00    +0.000 A 
ATOM      4  C   UNL     1      -2.466  -1.825   0.000  0.00  0.00    +0.000 A 
ATOM      5  C   UNL     1      -1.992  -1.150   0.000  0.00  0.00    +0.000 A 
ATOM      6  C   UNL     1      -2.338  -0.401   0.000  0.00  0.00    +0.000 A 
ATOM      7  C   UNL     1       0.195   0.386   0.000  0.00  0.00    +0.000 A 
ATOM      8  C   UNL     1      -0.525  -0.016   0.000  0.00  0.00    +0.000 A 
ATOM      9  C   UNL     1      -0.537  -0.841   0.000  0.00  0.00    +0.000 A 
ATOM     10  C   UNL     1       0.171  -1.264   0.000  0.00  0.00    +0.000 A 
ATOM     11  C   UNL     1       0.891  -0.862   0.000  0.00  0.00    +0.000 A 
ATOM     12  C   UNL     1       0.904  -0.037   0.000  0.00  0.00    +0.000 A 
ATOM     13  S   UNL     1      -1.190  -1.345   0.000  0.00  0.00    +0.000 S 
ATOM     14  C   UNL     1      -1.969   0.337   0.000  0.00  0.00    +0.000 C 
ATOM     15  C   UNL     1      -1.162   0.508   0.000  0.00  0.00    +0.000 C 
ATOM     16  O   UNL     1      -2.474   0.989   0.000  0.00  0.00    +0.000 OA
ENDROOT
BRANCH  12  17
ATOM     17  C   UNL     1       1.624   0.364   0.000  0.00  0.00    +0.000 C 
ATOM     18  C   UNL     1       1.637   1.189   0.000  0.00  0.00    +0.000 C 
BRANCH  17  19
ATOM     19  C   UNL     1       2.332  -0.059   0.000  0.00  0.00    +0.000 C 
ATOM     20  O   UNL     1       3.053   0.343   0.000  0.00  0.00    +0.000 OA
ATOM     21  O   UNL     1       2.320  -0.884   0.000  0.00  0.00    +0.000 OA
ENDBRANCH  17  19
ENDBRANCH  12  17
TORSDOF 2
