REMARK  Name = 
REMARK  4 active torsions:
REMARK  status: ('A' for Active; 'I' for Inactive)
REMARK    1  A    between atoms: C_3  and  O_18
REMARK    2  A    between atoms: C_9  and  C_11
REMARK    3  A    between atoms: C_11  and  O_18
REMARK    4  A    between atoms: C_13  and  N_15
REMARK                            x       y       z     vdW  Elec       q    Type
REMARK                         _______ _______ _______ _____ _____    ______ ____
ROOT
ATOM      1  C   UNL     1      -1.022   2.091   0.000  0.00  0.00    +0.000 C 
ATOM      2  C   UNL     1       0.430   1.036   0.000  0.00  0.00    +0.000 C 
ATOM      3  C   UNL     1      -0.355   0.782   0.000  0.00  0.00    +0.000 C 
ATOM      4  C   UNL     1      -1.690   0.782   0.000  0.00  0.00    +0.000 C 
ATOM      5  C   UNL     1      -1.435  -0.003   0.000  0.00  0.00    +0.000 C 
ATOM      6  N   UNL     1      -1.022   1.266   0.000  0.00  0.00    +0.000 N 
ATOM      7  O   UNL     1      -2.474   1.036   0.000  0.00  0.00    +0.000 OA
ATOM      8  S   UNL     1      -0.610  -0.003   0.000  0.00  0.00    +0.000 S 
ENDROOT
BRANCH   5  14
ATOM      9  C   UNL     1      -2.890  -2.005   0.000  0.00  0.00    +0.000 C 
ATOM     10  C   UNL     1      -2.069  -2.091   0.000  0.00  0.00    +0.000 C 
ATOM     11  C   UNL     1      -3.225  -1.252   0.000  0.00  0.00    +0.000 C 
ATOM     12  C   UNL     1      -1.584  -1.424   0.000  0.00  0.00    +0.000 C 
ATOM     13  C   UNL     1      -2.740  -0.584   0.000  0.00  0.00    +0.000 C 
ATOM     14  N   UNL     1      -1.920  -0.670   0.000  0.00  0.00    +0.000 NA
ENDBRANCH   5  14
BRANCH   2  15
ATOM     15  C   UNL     1       1.043   0.484   0.000  0.00  0.00    +0.000 C 
ATOM     16  O   UNL     1       0.871  -0.322   0.000  0.00  0.00    +0.000 OA
BRANCH  15  17
ATOM     17  O   UNL     1       1.827   0.739   0.000  0.00  0.00    +0.000 OA
BRANCH  17  19
ATOM     18  C   UNL     1       3.225   0.442   0.000  0.00  0.00    +0.000 C 
ATOM     19  C   UNL     1       2.441   0.187   0.000  0.00  0.00    +0.000 C 
ENDBRANCH  17  19
ENDBRANCH  15  17
ENDBRANCH   2  15
TORSDOF 4
