REMARK  Name = 
REMARK  10 active torsions:
REMARK  status: ('A' for Active; 'I' for Inactive)
REMARK    1  A    between atoms: S_1  and  O_5
REMARK    2  A    between atoms: S_1  and  N_13
REMARK    3  A    between atoms: O_5  and  C_21
REMARK    4  A    between atoms: N_10  and  C_19
REMARK    5  A    between atoms: N_15  and  C_25
REMARK    6  A    between atoms: N_16  and  C_27
REMARK    7  A    between atoms: C_20  and  C_21
REMARK    8  A    between atoms: C_27  and  C_28
REMARK    9  A    between atoms: C_27  and  C_29
REMARK   10  A    between atoms: C_29  and  C_30
REMARK                            x       y       z     vdW  Elec       q    Type
REMARK                         _______ _______ _______ _____ _____    ______ ____
ROOT
ATOM      1  O   UNL     1      -0.755   0.933   0.000  0.00  0.00    +0.000 OA
ENDROOT
BRANCH   1   2
ATOM      2  S   UNL     1      -0.087   1.417   0.000  0.00  0.00    +0.000 S 
ATOM      3  O   UNL     1      -0.571   2.085   0.000  0.00  0.00    +0.000 OA
ATOM      4  O   UNL     1       0.397   0.749   0.000  0.00  0.00    +0.000 OA
BRANCH   2   6
ATOM      5  O   UNL     1       1.419   0.743   0.000  0.00  0.00    +0.000 OA
ATOM      6  N   UNL     1       0.581   1.901   0.000  0.00  0.00    +0.000 N 
ATOM      7  C   UNL     1       1.334   1.564   0.000  0.00  0.00    +0.000 C 
ATOM      8  H   UNL     1       0.529   2.409   0.000  0.00  0.00    +0.000 HD
BRANCH   7   9
ATOM      9  C   UNL     1       2.003   2.048   0.000  0.00  0.00    +0.000 C 
BRANCH   9  10
ATOM     10  N   UNL     1       1.918   2.868   0.000  0.00  0.00    +0.000 NA
ATOM     11  H   UNL     1       2.332   3.168   0.000  0.00  0.00    +0.000 HD
ATOM     12  H   UNL     1       1.451   3.077   0.000  0.00  0.00    +0.000 HD
ENDBRANCH   9  10
BRANCH   9  13
ATOM     13  C   UNL     1       2.756   1.711   0.000  0.00  0.00    +0.000 C 
BRANCH  13  15
ATOM     14  O   UNL     1       5.428   3.646   0.000  0.00  0.00    +0.000 OA
ATOM     15  C   UNL     1       3.424   2.195   0.000  0.00  0.00    +0.000 A 
ATOM     16  C   UNL     1       3.339   3.015   0.000  0.00  0.00    +0.000 A 
ATOM     17  C   UNL     1       4.177   1.858   0.000  0.00  0.00    +0.000 A 
ATOM     18  C   UNL     1       4.007   3.499   0.000  0.00  0.00    +0.000 A 
ATOM     19  C   UNL     1       4.845   2.341   0.000  0.00  0.00    +0.000 A 
ATOM     20  C   UNL     1       4.760   3.162   0.000  0.00  0.00    +0.000 A 
ENDBRANCH  13  15
ENDBRANCH   9  13
ENDBRANCH   7   9
ENDBRANCH   2   6
ENDBRANCH   1   2
BRANCH   1  21
ATOM     21  C   UNL     1      -1.508   1.270   0.000  0.00  0.00    +0.000 C 
BRANCH  21  28
ATOM     22  O   UNL     1      -2.178  -0.038   0.000  0.00  0.00    +0.000 OA
ATOM     23  O   UNL     1      -4.271   0.377   0.000  0.00  0.00    +0.000 OA
ATOM     24  O   UNL     1      -3.214   1.828   0.000  0.00  0.00    +0.000 OA
ATOM     25  C   UNL     1      -3.447   0.376   0.000  0.00  0.00    +0.000 C 
ATOM     26  C   UNL     1      -2.961   1.043   0.000  0.00  0.00    +0.000 C 
ATOM     27  C   UNL     1      -2.963  -0.292   0.000  0.00  0.00    +0.000 C 
ATOM     28  C   UNL     1      -2.176   0.786   0.000  0.00  0.00    +0.000 C 
BRANCH  27  29
ATOM     29  N   UNL     1      -3.219  -1.076   0.000  0.00  0.00    +0.000 N 
ATOM     30  N   UNL     1      -3.219  -2.404   0.000  0.00  0.00    +0.000 NA
ATOM     31  N   UNL     1      -4.714  -0.915   0.000  0.00  0.00    +0.000 NA
ATOM     32  N   UNL     1      -5.428  -2.153   0.000  0.00  0.00    +0.000 NA
ATOM     33  C   UNL     1      -4.000  -1.328   0.000  0.00  0.00    +0.000 A 
ATOM     34  C   UNL     1      -2.738  -1.740   0.000  0.00  0.00    +0.000 A 
ATOM     35  C   UNL     1      -4.000  -2.153   0.000  0.00  0.00    +0.000 A 
ATOM     36  C   UNL     1      -4.714  -2.565   0.000  0.00  0.00    +0.000 A 
ATOM     37  C   UNL     1      -5.428  -1.328   0.000  0.00  0.00    +0.000 A 
BRANCH  36  38
ATOM     38  N   UNL     1      -4.714  -3.390   0.000  0.00  0.00    +0.000 N 
ATOM     39  H   UNL     1      -4.271  -3.646   0.000  0.00  0.00    +0.000 HD
ATOM     40  H   UNL     1      -5.157  -3.646   0.000  0.00  0.00    +0.000 HD
ENDBRANCH  36  38
ENDBRANCH  27  29
ENDBRANCH  21  28
ENDBRANCH   1  21
TORSDOF 10
