REMARK  Name = 
REMARK  2 active torsions:
REMARK  status: ('A' for Active; 'I' for Inactive)
REMARK    1  A    between atoms: C_6  and  C_16
REMARK    2  A    between atoms: C_16  and  C_20
REMARK                            x       y       z     vdW  Elec       q    Type
REMARK                         _______ _______ _______ _____ _____    ______ ____
ROOT
ATOM      1  O   UNL     1       3.255  -0.001   0.000  0.00  0.00    +0.000 OA
ATOM      2  O   UNL     1      -3.255  -0.991   0.000  0.00  0.00    +0.000 OA
ATOM      3  C   UNL     1       1.338  -0.896   0.000  0.00  0.00    +0.000 C 
ATOM      4  C   UNL     1       1.618  -0.120   0.000  0.00  0.00    +0.000 C 
ATOM      5  C   UNL     1       0.525  -1.041   0.000  0.00  0.00    +0.000 C 
ATOM      6  C   UNL     1       2.442  -0.147   0.000  0.00  0.00    +0.000 C 
ATOM      7  C   UNL     1      -0.006  -0.410   0.000  0.00  0.00    +0.000 C 
ATOM      8  C   UNL     1       1.989  -1.402   0.000  0.00  0.00    +0.000 C 
ATOM      9  C   UNL     1       1.086   0.511   0.000  0.00  0.00    +0.000 C 
ATOM     10  C   UNL     1       2.672  -0.939   0.000  0.00  0.00    +0.000 C 
ATOM     11  C   UNL     1      -0.818  -0.555   0.000  0.00  0.00    +0.000 C 
ATOM     12  C   UNL     1       0.245  -1.817   0.000  0.00  0.00    +0.000 C 
ATOM     13  C   UNL     1       0.274   0.366   0.000  0.00  0.00    +0.000 C 
ATOM     14  C   UNL     1       1.978   0.623   0.000  0.00  0.00    +0.000 C 
ATOM     15  C   UNL     1      -1.099  -1.331   0.000  0.00  0.00    +0.000 C 
ATOM     16  C   UNL     1      -0.567  -1.962   0.000  0.00  0.00    +0.000 C 
ATOM     17  C   UNL     1      -1.350   0.075   0.000  0.00  0.00    +0.000 C 
ATOM     18  C   UNL     1      -1.911  -1.477   0.000  0.00  0.00    +0.000 C 
ATOM     19  C   UNL     1      -2.443  -0.846   0.000  0.00  0.00    +0.000 C 
ATOM     20  C   UNL     1      -2.162  -0.070   0.000  0.00  0.00    +0.000 C 
ENDROOT
BRANCH   6  21
ATOM     21  C   UNL     1       2.383   0.676   0.000  0.00  0.00    +0.000 C 
BRANCH  21  22
ATOM     22  C   UNL     1       3.066   1.139   0.000  0.00  0.00    +0.000 C 
ATOM     23  C   UNL     1       3.006   1.962   0.000  0.00  0.00    +0.000 C 
ENDBRANCH  21  22
ENDBRANCH   6  21
TORSDOF 2
