REMARK  Name = 
REMARK  10 active torsions:
REMARK  status: ('A' for Active; 'I' for Inactive)
REMARK    1  A    between atoms: C_1  and  C_3
REMARK    2  A    between atoms: C_2  and  O_10
REMARK    3  A    between atoms: C_3  and  O_8
REMARK    4  A    between atoms: O_8  and  C_13
REMARK    5  A    between atoms: O_10  and  C_17
REMARK    6  A    between atoms: N_11  and  C_14
REMARK    7  A    between atoms: N_11  and  C_15
REMARK    8  A    between atoms: N_11  and  C_16
REMARK    9  A    between atoms: C_13  and  C_14
REMARK   10  A    between atoms: C_17  and  C_18
REMARK                            x       y       z     vdW  Elec       q    Type
REMARK                         _______ _______ _______ _____ _____    ______ ____
ROOT
ATOM      1  C   UNL     1      -1.439  -0.178   0.000  0.00  0.00    +0.000 A 
ATOM      2  C   UNL     1      -1.439  -1.000   0.000  0.00  0.00    +0.000 A 
ATOM      3  C   UNL     1      -2.154   0.231   0.000  0.00  0.00    +0.000 A 
ATOM      4  C   UNL     1      -2.154  -1.409   0.000  0.00  0.00    +0.000 A 
ATOM      5  C   UNL     1      -2.860  -1.025   0.000  0.00  0.00    +0.000 A 
ATOM      6  C   UNL     1      -2.860  -0.178   0.000  0.00  0.00    +0.000 A 
ATOM      7  N   UNL     1      -3.586  -1.453   0.000  0.00  0.00    +0.000 NA
ENDROOT
BRANCH   1   8
ATOM      8  C   UNL     1      -0.694   0.231   0.000  0.00  0.00    +0.000 C 
ATOM      9  O   UNL     1      -0.694   1.059   0.000  0.00  0.00    +0.000 OA
BRANCH   8  10
ATOM     10  O   UNL     1       0.007  -0.178   0.000  0.00  0.00    +0.000 OA
BRANCH  10  11
ATOM     11  C   UNL     1       0.733   0.231   0.000  0.00  0.00    +0.000 C 
BRANCH  11  12
ATOM     12  C   UNL     1       1.439  -0.197   0.000  0.00  0.00    +0.000 C 
BRANCH  12  13
ATOM     13  N   UNL     1       2.169   0.212   0.000  0.00  0.00    +0.000 NA
BRANCH  13  14
ATOM     14  C   UNL     1       2.880  -0.197   0.000  0.00  0.00    +0.000 C 
ATOM     15  C   UNL     1       3.586   0.212   0.000  0.00  0.00    +0.000 C 
ENDBRANCH  13  14
BRANCH  13  16
ATOM     16  C   UNL     1       2.169   1.035   0.000  0.00  0.00    +0.000 C 
ATOM     17  C   UNL     1       2.880   1.453   0.000  0.00  0.00    +0.000 C 
ENDBRANCH  13  16
ENDBRANCH  12  13
ENDBRANCH  11  12
ENDBRANCH  10  11
ENDBRANCH   8  10
ENDBRANCH   1   8
BRANCH   2  18
ATOM     18  O   UNL     1      -0.708  -1.439   0.000  0.00  0.00    +0.000 OA
BRANCH  18  19
ATOM     19  C   UNL     1       0.007  -1.025   0.000  0.00  0.00    +0.000 C 
BRANCH  19  20
ATOM     20  C   UNL     1       0.718  -1.453   0.000  0.00  0.00    +0.000 C 
ATOM     21  C   UNL     1       1.439  -1.044   0.000  0.00  0.00    +0.000 C 
ENDBRANCH  19  20
ENDBRANCH  18  19
ENDBRANCH   2  18
TORSDOF 10
