REMARK  Name = 
REMARK  9 active torsions:
REMARK  status: ('A' for Active; 'I' for Inactive)
REMARK    1  A    between atoms: C_10  and  C_11
REMARK    2  A    between atoms: C_18  and  C_23
REMARK    3  A    between atoms: C_23  and  O_26
REMARK    4  A    between atoms: O_26  and  C_27
REMARK    5  A    between atoms: C_27  and  C_28
REMARK    6  A    between atoms: C_28  and  C_29
REMARK    7  A    between atoms: C_29  and  C_30
REMARK    8  A    between atoms: C_30  and  C_31
REMARK    9  A    between atoms: C_30  and  C_34
REMARK                            x       y       z     vdW  Elec       q    Type
REMARK                         _______ _______ _______ _____ _____    ______ ____
ROOT
ATOM      1  C   UNL     1      -1.719   1.450   0.000  0.00  0.00    +0.000 C 
ATOM      2  C   UNL     1      -1.723   0.625   0.000  0.00  0.00    +0.000 C 
ATOM      3  C   UNL     1      -2.441   0.217   0.000  0.00  0.00    +0.000 C 
ATOM      4  C   UNL     1      -2.447  -0.604   0.000  0.00  0.00    +0.000 C 
ATOM      5  C   UNL     1      -1.737  -1.024   0.000  0.00  0.00    +0.000 C 
ATOM      6  C   UNL     1      -1.011   0.211   0.000  0.00  0.00    +0.000 C 
ATOM      7  C   UNL     1      -1.019  -0.617   0.000  0.00  0.00    +0.000 C 
ATOM      8  C   UNL     1       0.411  -0.631   0.000  0.00  0.00    +0.000 C 
ATOM      9  C   UNL     1       0.419   0.197   0.000  0.00  0.00    +0.000 C 
ATOM     10  C   UNL     1      -0.294   0.623   0.000  0.00  0.00    +0.000 C 
ATOM     11  C   UNL     1      -1.027  -1.442   0.000  0.00  0.00    +0.000 C 
ENDROOT
BRANCH   1  21
ATOM     12  C   UNL     1      -4.677   1.863   0.000  0.00  0.00    +0.000 C 
ATOM     13  C   UNL     1      -4.677   1.038   0.000  0.00  0.00    +0.000 C 
ATOM     14  C   UNL     1      -3.965   0.629   0.000  0.00  0.00    +0.000 C 
ATOM     15  C   UNL     1      -3.253   1.038   0.000  0.00  0.00    +0.000 C 
ATOM     16  C   UNL     1      -3.253   1.863   0.000  0.00  0.00    +0.000 C 
ATOM     17  C   UNL     1      -3.965   2.279   0.000  0.00  0.00    +0.000 C 
ATOM     18  O   UNL     1      -5.394   2.275   0.000  0.00  0.00    +0.000 OA
ATOM     19  O   UNL     1      -3.973  -0.196   0.000  0.00  0.00    +0.000 OA
ATOM     20  C   UNL     1      -2.544   0.625   0.000  0.00  0.00    +0.000 C 
ATOM     21  C   UNL     1      -2.431   1.863   0.000  0.00  0.00    +0.000 C 
ENDBRANCH   1  21
BRANCH   8  22
ATOM     22  C   UNL     1       1.123  -1.042   0.000  0.00  0.00    +0.000 C 
ATOM     23  C   UNL     1       1.835  -0.625   0.000  0.00  0.00    +0.000 C 
BRANCH  22  24
ATOM     24  O   UNL     1       1.119  -1.867   0.000  0.00  0.00    +0.000 OA
BRANCH  24  25
ATOM     25  C   UNL     1       1.831  -2.279   0.000  0.00  0.00    +0.000 C 
BRANCH  25  26
ATOM     26  C   UNL     1       2.544  -1.862   0.000  0.00  0.00    +0.000 C 
BRANCH  26  27
ATOM     27  C   UNL     1       3.256  -2.275   0.000  0.00  0.00    +0.000 C 
BRANCH  27  28
ATOM     28  C   UNL     1       3.969  -1.858   0.000  0.00  0.00    +0.000 C 
ATOM     29  O   UNL     1       3.552  -1.142   0.000  0.00  0.00    +0.000 OA
BRANCH  28  30
ATOM     30  C   UNL     1       4.681  -2.271   0.000  0.00  0.00    +0.000 C 
ATOM     31  C   UNL     1       5.394  -1.854   0.000  0.00  0.00    +0.000 C 
ENDBRANCH  28  30
BRANCH  28  32
ATOM     32  C   UNL     1       4.377  -1.142   0.000  0.00  0.00    +0.000 C 
ATOM     33  C   UNL     1       5.090  -0.725   0.000  0.00  0.00    +0.000 C 
ENDBRANCH  28  32
ENDBRANCH  27  28
ENDBRANCH  26  27
ENDBRANCH  25  26
ENDBRANCH  24  25
ENDBRANCH  22  24
ENDBRANCH   8  22
TORSDOF 9
