REMARK  Name = 
REMARK  3 active torsions:
REMARK  status: ('A' for Active; 'I' for Inactive)
REMARK    1  A    between atoms: S_1  and  O_3
REMARK    2  A    between atoms: O_3  and  C_11
REMARK    3  A    between atoms: C_13  and  C_16
REMARK                            x       y       z     vdW  Elec       q    Type
REMARK                         _______ _______ _______ _____ _____    ______ ____
ROOT
ATOM      1  O   UNL     1       0.357  -0.977   0.000  0.00  0.00    +0.000 OA
ATOM      2  O   UNL     1      -1.788   0.262   0.000  0.00  0.00    +0.000 OA
ATOM      3  O   UNL     1      -1.788  -1.389   0.000  0.00  0.00    +0.000 OA
ATOM      4  O   UNL     1      -0.357  -2.216   0.000  0.00  0.00    +0.000 OA
ATOM      5  C   UNL     1      -0.357   0.262   0.000  0.00  0.00    +0.000 C 
ATOM      6  C   UNL     1      -1.073  -0.149   0.000  0.00  0.00    +0.000 C 
ATOM      7  C   UNL     1       0.357  -0.149   0.000  0.00  0.00    +0.000 C 
ATOM      8  C   UNL     1      -1.073  -0.977   0.000  0.00  0.00    +0.000 C 
ATOM      9  C   UNL     1      -0.357  -1.389   0.000  0.00  0.00    +0.000 C 
ENDROOT
BRANCH   7  11
ATOM     10  O   UNL     1       1.788  -0.149   0.000  0.00  0.00    +0.000 OA
ATOM     11  C   UNL     1       1.073   0.262   0.000  0.00  0.00    +0.000 C 
ENDBRANCH   7  11
BRANCH   5  12
ATOM     12  O   UNL     1      -0.357   1.090   0.000  0.00  0.00    +0.000 OA
BRANCH  12  13
ATOM     13  S   UNL     1       0.357   1.501   0.000  0.00  0.00    +0.000 S 
ATOM     14  O   UNL     1       1.073   1.913   0.000  0.00  0.00    +0.000 OA
ATOM     15  O   UNL     1       0.769   0.786   0.000  0.00  0.00    +0.000 OA
ATOM     16  O   UNL     1      -0.059   2.216   0.000  0.00  0.00    +0.000 OA
ENDBRANCH  12  13
ENDBRANCH   5  12
TORSDOF 3
