REMARK  Name = 
REMARK  5 active torsions:
REMARK  status: ('A' for Active; 'I' for Inactive)
REMARK    1  A    between atoms: C_2  and  N_23
REMARK    2  A    between atoms: C_5  and  C_7
REMARK    3  A    between atoms: C_7  and  C_8
REMARK    4  A    between atoms: C_8  and  N_9
REMARK    5  A    between atoms: N_12  and  C_15
REMARK                            x       y       z     vdW  Elec       q    Type
REMARK                         _______ _______ _______ _____ _____    ______ ____
ROOT
ATOM      1  C   UNL     1       0.351   0.433   0.000  0.00  0.00    +0.000 C 
ENDROOT
BRANCH   1   2
ATOM      2  N   UNL     1       1.052   0.021   0.000  0.00  0.00    +0.000 NA
ATOM      3  C   UNL     1       1.753   0.433   0.000  0.00  0.00    +0.000 C 
ATOM      4  C   UNL     1       2.454   0.021   0.000  0.00  0.00    +0.000 C 
ATOM      5  N   UNL     1       2.454  -0.804   0.000  0.00  0.00    +0.000 N 
ATOM      6  C   UNL     1       1.753  -1.217   0.000  0.00  0.00    +0.000 C 
ATOM      7  C   UNL     1       1.052  -0.804   0.000  0.00  0.00    +0.000 C 
BRANCH   5   8
ATOM      8  C   UNL     1       3.197  -1.258   0.000  0.00  0.00    +0.000 A 
ATOM      9  C   UNL     1       3.898  -0.846   0.000  0.00  0.00    +0.000 A 
ATOM     10  C   UNL     1       4.641  -1.258   0.000  0.00  0.00    +0.000 A 
ATOM     11  C   UNL     1       4.641  -2.083   0.000  0.00  0.00    +0.000 A 
ATOM     12  C   UNL     1       3.898  -2.496   0.000  0.00  0.00    +0.000 A 
ATOM     13  C   UNL     1       3.197  -2.083   0.000  0.00  0.00    +0.000 A 
ATOM     14 CL   UNL     1       5.342  -0.804   0.000  0.00  0.00    +0.000 Cl
ATOM     15 CL   UNL     1       3.898   0.021   0.000  0.00  0.00    +0.000 Cl
ENDBRANCH   5   8
ENDBRANCH   1   2
BRANCH   1  16
ATOM     16  C   UNL     1      -0.351   0.021   0.000  0.00  0.00    +0.000 C 
BRANCH  16  21
ATOM     17  C   UNL     1      -2.537   0.433   0.000  0.00  0.00    +0.000 C 
ATOM     18  C   UNL     1      -2.537   1.258   0.000  0.00  0.00    +0.000 C 
ATOM     19  C   UNL     1      -1.794   1.671   0.000  0.00  0.00    +0.000 C 
ATOM     20  C   UNL     1      -1.093   1.258   0.000  0.00  0.00    +0.000 C 
ATOM     21  C   UNL     1      -1.093   0.433   0.000  0.00  0.00    +0.000 C 
ATOM     22  C   UNL     1      -1.794   0.021   0.000  0.00  0.00    +0.000 C 
BRANCH  18  23
ATOM     23  N   UNL     1      -3.238   1.671   0.000  0.00  0.00    +0.000 NA
ATOM     24  C   UNL     1      -3.939   1.258   0.000  0.00  0.00    +0.000 C 
ATOM     25  N   UNL     1      -4.641   1.671   0.000  0.00  0.00    +0.000 N 
ATOM     26  O   UNL     1      -3.939   0.433   0.000  0.00  0.00    +0.000 OA
ATOM     27  C   UNL     1      -5.342   1.258   0.000  0.00  0.00    +0.000 C 
ATOM     28  C   UNL     1      -4.641   2.496   0.000  0.00  0.00    +0.000 C 
ENDBRANCH  18  23
ENDBRANCH  16  21
ENDBRANCH   1  16
TORSDOF 5
