REMARK  Name = 
REMARK  92 active torsions:
REMARK  status: ('A' for Active; 'I' for Inactive)
REMARK    1  A    between atoms: C_2  and  C_3
REMARK    2  A    between atoms: C_3  and  C_4
REMARK    3  A    between atoms: C_4  and  C_5
REMARK    4  A    between atoms: C_5  and  C_6
REMARK    5  A    between atoms: C_6  and  C_7
REMARK    6  A    between atoms: C_7  and  C_8
REMARK    7  A    between atoms: C_8  and  C_9
REMARK    8  A    between atoms: C_9  and  C_10
REMARK    9  A    between atoms: C_10  and  C_11
REMARK   10  A    between atoms: C_11  and  C_12
REMARK   11  A    between atoms: C_12  and  C_13
REMARK   12  A    between atoms: C_13  and  C_14
REMARK   13  A    between atoms: C_14  and  C_15
REMARK   14  A    between atoms: C_15  and  C_16
REMARK   15  A    between atoms: C_16  and  C_17
REMARK   16  A    between atoms: C_17  and  C_21
REMARK   17  A    between atoms: C_18  and  C_20
REMARK   18  A    between atoms: C_19  and  C_20
REMARK   19  A    between atoms: C_19  and  O_25
REMARK   20  A    between atoms: C_21  and  O_25
REMARK   21  A    between atoms: C_27  and  C_28
REMARK   22  A    between atoms: C_28  and  C_29
REMARK   23  A    between atoms: C_29  and  C_30
REMARK   24  A    between atoms: C_30  and  C_31
REMARK   25  A    between atoms: C_31  and  C_32
REMARK   26  A    between atoms: C_32  and  C_33
REMARK   27  A    between atoms: C_33  and  C_34
REMARK   28  A    between atoms: C_34  and  C_35
REMARK   29  A    between atoms: C_35  and  C_36
REMARK   30  A    between atoms: C_36  and  C_37
REMARK   31  A    between atoms: C_37  and  C_38
REMARK   32  A    between atoms: C_38  and  C_39
REMARK   33  A    between atoms: C_39  and  C_40
REMARK   34  A    between atoms: C_40  and  C_41
REMARK   35  A    between atoms: C_41  and  C_42
REMARK   36  A    between atoms: C_42  and  C_46
REMARK   37  A    between atoms: C_43  and  C_45
REMARK   38  A    between atoms: C_44  and  C_45
REMARK   39  A    between atoms: C_44  and  O_50
REMARK   40  A    between atoms: C_46  and  O_50
REMARK   41  A    between atoms: C_52  and  C_53
REMARK   42  A    between atoms: C_53  and  C_54
REMARK   43  A    between atoms: C_54  and  C_55
REMARK   44  A    between atoms: C_55  and  C_56
REMARK   45  A    between atoms: C_56  and  C_57
REMARK   46  A    between atoms: C_57  and  C_58
REMARK   47  A    between atoms: C_58  and  C_59
REMARK   48  A    between atoms: C_59  and  C_60
REMARK   49  A    between atoms: C_60  and  C_61
REMARK   50  A    between atoms: C_61  and  C_62
REMARK   51  A    between atoms: C_62  and  C_63
REMARK   52  A    between atoms: C_63  and  C_64
REMARK   53  A    between atoms: C_64  and  C_65
REMARK   54  A    between atoms: C_65  and  C_66
REMARK   55  A    between atoms: C_66  and  C_67
REMARK   56  A    between atoms: C_67  and  C_71
REMARK   57  A    between atoms: C_68  and  C_70
REMARK   58  A    between atoms: C_69  and  C_70
REMARK   59  A    between atoms: C_70  and  O_75
REMARK   60  A    between atoms: C_71  and  O_75
REMARK   61  A    between atoms: C_77  and  C_78
REMARK   62  A    between atoms: C_78  and  C_79
REMARK   63  A    between atoms: C_79  and  C_80
REMARK   64  A    between atoms: C_80  and  C_81
REMARK   65  A    between atoms: C_81  and  C_82
REMARK   66  A    between atoms: C_82  and  C_83
REMARK   67  A    between atoms: C_83  and  C_84
REMARK   68  A    between atoms: C_84  and  C_85
REMARK   69  A    between atoms: C_85  and  C_86
REMARK   70  A    between atoms: C_86  and  C_87
REMARK   71  A    between atoms: C_87  and  C_88
REMARK   72  A    between atoms: C_88  and  C_89
REMARK   73  A    between atoms: C_89  and  C_90
REMARK   74  A    between atoms: C_90  and  C_91
REMARK   75  A    between atoms: C_91  and  C_92
REMARK   76  A    between atoms: C_92  and  C_93
REMARK   77  A    between atoms: C_97  and  C_98
REMARK   78  A    between atoms: C_98  and  C_99
REMARK   79  A    between atoms: C_99  and  C_100
REMARK   80  A    between atoms: C_100  and  C_101
REMARK   81  A    between atoms: C_101  and  C_102
REMARK   82  A    between atoms: C_102  and  C_103
REMARK   83  A    between atoms: C_103  and  C_104
REMARK   84  A    between atoms: C_104  and  C_105
REMARK   85  A    between atoms: C_105  and  C_106
REMARK   86  A    between atoms: C_106  and  C_107
REMARK   87  A    between atoms: C_107  and  C_108
REMARK   88  A    between atoms: C_108  and  C_109
REMARK   89  A    between atoms: C_109  and  C_110
REMARK   90  A    between atoms: C_110  and  C_111
REMARK   91  A    between atoms: C_111  and  C_112
REMARK   92  A    between atoms: C_112  and  C_113
REMARK                            x       y       z     vdW  Elec       q    Type
REMARK                         _______ _______ _______ _____ _____    ______ ____
ROOT
ATOM      1  C   UNL     1     -16.986   1.856   0.000  0.00  0.00    +0.000 C 
ENDROOT
BRANCH   1   2
ATOM      2  C   UNL     1     -17.701   1.444   0.000  0.00  0.00    +0.000 C 
BRANCH   2   3
ATOM      3  C   UNL     1     -18.415   1.856   0.000  0.00  0.00    +0.000 C 
BRANCH   3   4
ATOM      4  C   UNL     1     -19.129   1.444   0.000  0.00  0.00    +0.000 C 
BRANCH   4   5
ATOM      5  C   UNL     1     -19.844   1.856   0.000  0.00  0.00    +0.000 C 
BRANCH   5   6
ATOM      6  C   UNL     1     -20.558   1.444   0.000  0.00  0.00    +0.000 C 
BRANCH   6   7
ATOM      7  C   UNL     1     -21.273   1.856   0.000  0.00  0.00    +0.000 C 
BRANCH   7   8
ATOM      8  C   UNL     1     -21.987   1.444   0.000  0.00  0.00    +0.000 C 
BRANCH   8   9
ATOM      9  C   UNL     1     -22.702   1.856   0.000  0.00  0.00    +0.000 C 
BRANCH   9  10
ATOM     10  C   UNL     1     -23.416   1.444   0.000  0.00  0.00    +0.000 C 
BRANCH  10  11
ATOM     11  C   UNL     1     -24.131   1.856   0.000  0.00  0.00    +0.000 C 
BRANCH  11  13
ATOM     12  C   UNL     1     -25.560   1.856   0.000  0.00  0.00    +0.000 C 
ATOM     13  C   UNL     1     -24.845   1.444   0.000  0.00  0.00    +0.000 C 
ENDBRANCH  11  13
ENDBRANCH  10  11
ENDBRANCH   9  10
ENDBRANCH   8   9
ENDBRANCH   7   8
ENDBRANCH   6   7
ENDBRANCH   5   6
ENDBRANCH   4   5
ENDBRANCH   3   4
ENDBRANCH   2   3
ENDBRANCH   1   2
BRANCH   1  14
ATOM     14  C   UNL     1     -16.271   1.444   0.000  0.00  0.00    +0.000 C 
BRANCH  14  15
ATOM     15  C   UNL     1     -15.557   1.856   0.000  0.00  0.00    +0.000 C 
BRANCH  15  16
ATOM     16  C   UNL     1     -14.843   1.444   0.000  0.00  0.00    +0.000 C 
BRANCH  16  17
ATOM     17  C   UNL     1     -14.128   1.856   0.000  0.00  0.00    +0.000 C 
BRANCH  17  18
ATOM     18  C   UNL     1     -13.414   1.444   0.000  0.00  0.00    +0.000 C 
ATOM     19  O   UNL     1     -13.414   0.619   0.000  0.00  0.00    +0.000 OA
BRANCH  18  20
ATOM     20  O   UNL     1     -12.699   1.856   0.000  0.00  0.00    +0.000 OA
BRANCH  20  21
ATOM     21  C   UNL     1     -11.985   1.444   0.000  0.00  0.00    +0.000 C 
BRANCH  21  22
ATOM     22  C   UNL     1     -11.270   1.856   0.000  0.00  0.00    +0.000 C 
ATOM     23  O   UNL     1     -11.270   2.681   0.000  0.00  0.00    +0.000 OA
BRANCH  22  24
ATOM     24  C   UNL     1     -10.556   1.444   0.000  0.00  0.00    +0.000 C 
ATOM     25  O   UNL     1      -9.841   1.856   0.000  0.00  0.00    +0.000 OA
ENDBRANCH  22  24
ENDBRANCH  21  22
ENDBRANCH  20  21
ENDBRANCH  18  20
ENDBRANCH  17  18
ENDBRANCH  16  17
ENDBRANCH  15  16
ENDBRANCH  14  15
ENDBRANCH   1  14
TORSDOF 20
REMARK  Name = 
REMARK  92 active torsions:
REMARK  status: ('A' for Active; 'I' for Inactive)
REMARK    1  A    between atoms: C_2  and  C_3
REMARK    2  A    between atoms: C_3  and  C_4
REMARK    3  A    between atoms: C_4  and  C_5
REMARK    4  A    between atoms: C_5  and  C_6
REMARK    5  A    between atoms: C_6  and  C_7
REMARK    6  A    between atoms: C_7  and  C_8
REMARK    7  A    between atoms: C_8  and  C_9
REMARK    8  A    between atoms: C_9  and  C_10
REMARK    9  A    between atoms: C_10  and  C_11
REMARK   10  A    between atoms: C_11  and  C_12
REMARK   11  A    between atoms: C_12  and  C_13
REMARK   12  A    between atoms: C_13  and  C_14
REMARK   13  A    between atoms: C_14  and  C_15
REMARK   14  A    between atoms: C_15  and  C_16
REMARK   15  A    between atoms: C_16  and  C_17
REMARK   16  A    between atoms: C_17  and  C_21
REMARK   17  A    between atoms: C_18  and  C_20
REMARK   18  A    between atoms: C_19  and  C_20
REMARK   19  A    between atoms: C_19  and  O_25
REMARK   20  A    between atoms: C_21  and  O_25
REMARK   21  A    between atoms: C_27  and  C_28
REMARK   22  A    between atoms: C_28  and  C_29
REMARK   23  A    between atoms: C_29  and  C_30
REMARK   24  A    between atoms: C_30  and  C_31
REMARK   25  A    between atoms: C_31  and  C_32
REMARK   26  A    between atoms: C_32  and  C_33
REMARK   27  A    between atoms: C_33  and  C_34
REMARK   28  A    between atoms: C_34  and  C_35
REMARK   29  A    between atoms: C_35  and  C_36
REMARK   30  A    between atoms: C_36  and  C_37
REMARK   31  A    between atoms: C_37  and  C_38
REMARK   32  A    between atoms: C_38  and  C_39
REMARK   33  A    between atoms: C_39  and  C_40
REMARK   34  A    between atoms: C_40  and  C_41
REMARK   35  A    between atoms: C_41  and  C_42
REMARK   36  A    between atoms: C_42  and  C_46
REMARK   37  A    between atoms: C_43  and  C_45
REMARK   38  A    between atoms: C_44  and  C_45
REMARK   39  A    between atoms: C_44  and  O_50
REMARK   40  A    between atoms: C_46  and  O_50
REMARK   41  A    between atoms: C_52  and  C_53
REMARK   42  A    between atoms: C_53  and  C_54
REMARK   43  A    between atoms: C_54  and  C_55
REMARK   44  A    between atoms: C_55  and  C_56
REMARK   45  A    between atoms: C_56  and  C_57
REMARK   46  A    between atoms: C_57  and  C_58
REMARK   47  A    between atoms: C_58  and  C_59
REMARK   48  A    between atoms: C_59  and  C_60
REMARK   49  A    between atoms: C_60  and  C_61
REMARK   50  A    between atoms: C_61  and  C_62
REMARK   51  A    between atoms: C_62  and  C_63
REMARK   52  A    between atoms: C_63  and  C_64
REMARK   53  A    between atoms: C_64  and  C_65
REMARK   54  A    between atoms: C_65  and  C_66
REMARK   55  A    between atoms: C_66  and  C_67
REMARK   56  A    between atoms: C_67  and  C_71
REMARK   57  A    between atoms: C_68  and  C_70
REMARK   58  A    between atoms: C_69  and  C_70
REMARK   59  A    between atoms: C_70  and  O_75
REMARK   60  A    between atoms: C_71  and  O_75
REMARK   61  A    between atoms: C_77  and  C_78
REMARK   62  A    between atoms: C_78  and  C_79
REMARK   63  A    between atoms: C_79  and  C_80
REMARK   64  A    between atoms: C_80  and  C_81
REMARK   65  A    between atoms: C_81  and  C_82
REMARK   66  A    between atoms: C_82  and  C_83
REMARK   67  A    between atoms: C_83  and  C_84
REMARK   68  A    between atoms: C_84  and  C_85
REMARK   69  A    between atoms: C_85  and  C_86
REMARK   70  A    between atoms: C_86  and  C_87
REMARK   71  A    between atoms: C_87  and  C_88
REMARK   72  A    between atoms: C_88  and  C_89
REMARK   73  A    between atoms: C_89  and  C_90
REMARK   74  A    between atoms: C_90  and  C_91
REMARK   75  A    between atoms: C_91  and  C_92
REMARK   76  A    between atoms: C_92  and  C_93
REMARK   77  A    between atoms: C_97  and  C_98
REMARK   78  A    between atoms: C_98  and  C_99
REMARK   79  A    between atoms: C_99  and  C_100
REMARK   80  A    between atoms: C_100  and  C_101
REMARK   81  A    between atoms: C_101  and  C_102
REMARK   82  A    between atoms: C_102  and  C_103
REMARK   83  A    between atoms: C_103  and  C_104
REMARK   84  A    between atoms: C_104  and  C_105
REMARK   85  A    between atoms: C_105  and  C_106
REMARK   86  A    between atoms: C_106  and  C_107
REMARK   87  A    between atoms: C_107  and  C_108
REMARK   88  A    between atoms: C_108  and  C_109
REMARK   89  A    between atoms: C_109  and  C_110
REMARK   90  A    between atoms: C_110  and  C_111
REMARK   91  A    between atoms: C_111  and  C_112
REMARK   92  A    between atoms: C_112  and  C_113
REMARK                            x       y       z     vdW  Elec       q    Type
REMARK                         _______ _______ _______ _____ _____    ______ ____
ROOT
ATOM      1  C   UNL     1     -16.835  -1.729   0.000  0.00  0.00    +0.000 C 
ENDROOT
BRANCH   1   2
ATOM      2  C   UNL     1     -17.550  -2.141   0.000  0.00  0.00    +0.000 C 
BRANCH   2   3
ATOM      3  C   UNL     1     -18.264  -1.729   0.000  0.00  0.00    +0.000 C 
BRANCH   3   4
ATOM      4  C   UNL     1     -18.979  -2.141   0.000  0.00  0.00    +0.000 C 
BRANCH   4   5
ATOM      5  C   UNL     1     -19.693  -1.729   0.000  0.00  0.00    +0.000 C 
BRANCH   5   6
ATOM      6  C   UNL     1     -20.408  -2.141   0.000  0.00  0.00    +0.000 C 
BRANCH   6   7
ATOM      7  C   UNL     1     -21.122  -1.729   0.000  0.00  0.00    +0.000 C 
BRANCH   7   8
ATOM      8  C   UNL     1     -21.837  -2.141   0.000  0.00  0.00    +0.000 C 
BRANCH   8   9
ATOM      9  C   UNL     1     -22.551  -1.729   0.000  0.00  0.00    +0.000 C 
BRANCH   9  10
ATOM     10  C   UNL     1     -23.265  -2.141   0.000  0.00  0.00    +0.000 C 
BRANCH  10  11
ATOM     11  C   UNL     1     -23.980  -1.729   0.000  0.00  0.00    +0.000 C 
BRANCH  11  13
ATOM     12  C   UNL     1     -25.409  -1.729   0.000  0.00  0.00    +0.000 C 
ATOM     13  C   UNL     1     -24.695  -2.141   0.000  0.00  0.00    +0.000 C 
ENDBRANCH  11  13
ENDBRANCH  10  11
ENDBRANCH   9  10
ENDBRANCH   8   9
ENDBRANCH   7   8
ENDBRANCH   6   7
ENDBRANCH   5   6
ENDBRANCH   4   5
ENDBRANCH   3   4
ENDBRANCH   2   3
ENDBRANCH   1   2
BRANCH   1  14
ATOM     14  C   UNL     1     -16.121  -2.141   0.000  0.00  0.00    +0.000 C 
BRANCH  14  15
ATOM     15  C   UNL     1     -15.406  -1.729   0.000  0.00  0.00    +0.000 C 
BRANCH  15  16
ATOM     16  C   UNL     1     -14.692  -2.141   0.000  0.00  0.00    +0.000 C 
BRANCH  16  17
ATOM     17  C   UNL     1     -13.977  -1.729   0.000  0.00  0.00    +0.000 C 
BRANCH  17  18
ATOM     18  C   UNL     1     -13.263  -2.141   0.000  0.00  0.00    +0.000 C 
ATOM     19  O   UNL     1     -13.263  -2.966   0.000  0.00  0.00    +0.000 OA
BRANCH  18  20
ATOM     20  O   UNL     1     -12.549  -1.729   0.000  0.00  0.00    +0.000 OA
BRANCH  20  21
ATOM     21  C   UNL     1     -11.834  -2.141   0.000  0.00  0.00    +0.000 C 
BRANCH  21  22
ATOM     22  C   UNL     1     -11.120  -1.729   0.000  0.00  0.00    +0.000 C 
ATOM     23  O   UNL     1     -11.120  -0.904   0.000  0.00  0.00    +0.000 OA
BRANCH  22  24
ATOM     24  C   UNL     1     -10.405  -2.141   0.000  0.00  0.00    +0.000 C 
ATOM     25  O   UNL     1      -9.691  -1.729   0.000  0.00  0.00    +0.000 OA
ENDBRANCH  22  24
ENDBRANCH  21  22
ENDBRANCH  20  21
ENDBRANCH  18  20
ENDBRANCH  17  18
ENDBRANCH  16  17
ENDBRANCH  15  16
ENDBRANCH  14  15
ENDBRANCH   1  14
TORSDOF 20
REMARK  Name = 
REMARK  92 active torsions:
REMARK  status: ('A' for Active; 'I' for Inactive)
REMARK    1  A    between atoms: C_2  and  C_3
REMARK    2  A    between atoms: C_3  and  C_4
REMARK    3  A    between atoms: C_4  and  C_5
REMARK    4  A    between atoms: C_5  and  C_6
REMARK    5  A    between atoms: C_6  and  C_7
REMARK    6  A    between atoms: C_7  and  C_8
REMARK    7  A    between atoms: C_8  and  C_9
REMARK    8  A    between atoms: C_9  and  C_10
REMARK    9  A    between atoms: C_10  and  C_11
REMARK   10  A    between atoms: C_11  and  C_12
REMARK   11  A    between atoms: C_12  and  C_13
REMARK   12  A    between atoms: C_13  and  C_14
REMARK   13  A    between atoms: C_14  and  C_15
REMARK   14  A    between atoms: C_15  and  C_16
REMARK   15  A    between atoms: C_16  and  C_17
REMARK   16  A    between atoms: C_17  and  C_21
REMARK   17  A    between atoms: C_18  and  C_20
REMARK   18  A    between atoms: C_19  and  C_20
REMARK   19  A    between atoms: C_19  and  O_25
REMARK   20  A    between atoms: C_21  and  O_25
REMARK   21  A    between atoms: C_27  and  C_28
REMARK   22  A    between atoms: C_28  and  C_29
REMARK   23  A    between atoms: C_29  and  C_30
REMARK   24  A    between atoms: C_30  and  C_31
REMARK   25  A    between atoms: C_31  and  C_32
REMARK   26  A    between atoms: C_32  and  C_33
REMARK   27  A    between atoms: C_33  and  C_34
REMARK   28  A    between atoms: C_34  and  C_35
REMARK   29  A    between atoms: C_35  and  C_36
REMARK   30  A    between atoms: C_36  and  C_37
REMARK   31  A    between atoms: C_37  and  C_38
REMARK   32  A    between atoms: C_38  and  C_39
REMARK   33  A    between atoms: C_39  and  C_40
REMARK   34  A    between atoms: C_40  and  C_41
REMARK   35  A    between atoms: C_41  and  C_42
REMARK   36  A    between atoms: C_42  and  C_46
REMARK   37  A    between atoms: C_43  and  C_45
REMARK   38  A    between atoms: C_44  and  C_45
REMARK   39  A    between atoms: C_44  and  O_50
REMARK   40  A    between atoms: C_46  and  O_50
REMARK   41  A    between atoms: C_52  and  C_53
REMARK   42  A    between atoms: C_53  and  C_54
REMARK   43  A    between atoms: C_54  and  C_55
REMARK   44  A    between atoms: C_55  and  C_56
REMARK   45  A    between atoms: C_56  and  C_57
REMARK   46  A    between atoms: C_57  and  C_58
REMARK   47  A    between atoms: C_58  and  C_59
REMARK   48  A    between atoms: C_59  and  C_60
REMARK   49  A    between atoms: C_60  and  C_61
REMARK   50  A    between atoms: C_61  and  C_62
REMARK   51  A    between atoms: C_62  and  C_63
REMARK   52  A    between atoms: C_63  and  C_64
REMARK   53  A    between atoms: C_64  and  C_65
REMARK   54  A    between atoms: C_65  and  C_66
REMARK   55  A    between atoms: C_66  and  C_67
REMARK   56  A    between atoms: C_67  and  C_71
REMARK   57  A    between atoms: C_68  and  C_70
REMARK   58  A    between atoms: C_69  and  C_70
REMARK   59  A    between atoms: C_70  and  O_75
REMARK   60  A    between atoms: C_71  and  O_75
REMARK   61  A    between atoms: C_77  and  C_78
REMARK   62  A    between atoms: C_78  and  C_79
REMARK   63  A    between atoms: C_79  and  C_80
REMARK   64  A    between atoms: C_80  and  C_81
REMARK   65  A    between atoms: C_81  and  C_82
REMARK   66  A    between atoms: C_82  and  C_83
REMARK   67  A    between atoms: C_83  and  C_84
REMARK   68  A    between atoms: C_84  and  C_85
REMARK   69  A    between atoms: C_85  and  C_86
REMARK   70  A    between atoms: C_86  and  C_87
REMARK   71  A    between atoms: C_87  and  C_88
REMARK   72  A    between atoms: C_88  and  C_89
REMARK   73  A    between atoms: C_89  and  C_90
REMARK   74  A    between atoms: C_90  and  C_91
REMARK   75  A    between atoms: C_91  and  C_92
REMARK   76  A    between atoms: C_92  and  C_93
REMARK   77  A    between atoms: C_97  and  C_98
REMARK   78  A    between atoms: C_98  and  C_99
REMARK   79  A    between atoms: C_99  and  C_100
REMARK   80  A    between atoms: C_100  and  C_101
REMARK   81  A    between atoms: C_101  and  C_102
REMARK   82  A    between atoms: C_102  and  C_103
REMARK   83  A    between atoms: C_103  and  C_104
REMARK   84  A    between atoms: C_104  and  C_105
REMARK   85  A    between atoms: C_105  and  C_106
REMARK   86  A    between atoms: C_106  and  C_107
REMARK   87  A    between atoms: C_107  and  C_108
REMARK   88  A    between atoms: C_108  and  C_109
REMARK   89  A    between atoms: C_109  and  C_110
REMARK   90  A    between atoms: C_110  and  C_111
REMARK   91  A    between atoms: C_111  and  C_112
REMARK   92  A    between atoms: C_112  and  C_113
REMARK                            x       y       z     vdW  Elec       q    Type
REMARK                         _______ _______ _______ _____ _____    ______ ____
ROOT
ATOM      1  C   UNL     1     -16.905  -7.025   0.000  0.00  0.00    +0.000 C 
ENDROOT
BRANCH   1   2
ATOM      2  C   UNL     1     -17.620  -6.614   0.000  0.00  0.00    +0.000 C 
BRANCH   2   3
ATOM      3  C   UNL     1     -18.334  -7.029   0.000  0.00  0.00    +0.000 C 
BRANCH   3   4
ATOM      4  C   UNL     1     -19.049  -6.619   0.000  0.00  0.00    +0.000 C 
BRANCH   4   5
ATOM      5  C   UNL     1     -19.762  -7.034   0.000  0.00  0.00    +0.000 C 
BRANCH   5   6
ATOM      6  C   UNL     1     -20.478  -6.623   0.000  0.00  0.00    +0.000 C 
BRANCH   6   7
ATOM      7  C   UNL     1     -21.191  -7.038   0.000  0.00  0.00    +0.000 C 
BRANCH   7   8
ATOM      8  C   UNL     1     -21.907  -6.628   0.000  0.00  0.00    +0.000 C 
BRANCH   8   9
ATOM      9  C   UNL     1     -22.620  -7.043   0.000  0.00  0.00    +0.000 C 
BRANCH   9  10
ATOM     10  C   UNL     1     -23.336  -6.633   0.000  0.00  0.00    +0.000 C 
BRANCH  10  11
ATOM     11  C   UNL     1     -24.049  -7.047   0.000  0.00  0.00    +0.000 C 
BRANCH  11  13
ATOM     12  C   UNL     1     -25.478  -7.052   0.000  0.00  0.00    +0.000 C 
ATOM     13  C   UNL     1     -24.765  -6.637   0.000  0.00  0.00    +0.000 C 
ENDBRANCH  11  13
ENDBRANCH  10  11
ENDBRANCH   9  10
ENDBRANCH   8   9
ENDBRANCH   7   8
ENDBRANCH   6   7
ENDBRANCH   5   6
ENDBRANCH   4   5
ENDBRANCH   3   4
ENDBRANCH   2   3
ENDBRANCH   1   2
BRANCH   1  14
ATOM     14  C   UNL     1     -16.191  -6.610   0.000  0.00  0.00    +0.000 C 
BRANCH  14  15
ATOM     15  C   UNL     1     -15.476  -7.020   0.000  0.00  0.00    +0.000 C 
BRANCH  15  16
ATOM     16  C   UNL     1     -14.762  -6.605   0.000  0.00  0.00    +0.000 C 
BRANCH  16  17
ATOM     17  C   UNL     1     -14.047  -7.016   0.000  0.00  0.00    +0.000 C 
BRANCH  17  18
ATOM     18  C   UNL     1     -13.334  -6.601   0.000  0.00  0.00    +0.000 C 
ATOM     19  O   UNL     1     -13.336  -5.776   0.000  0.00  0.00    +0.000 OA
BRANCH  18  20
ATOM     20  O   UNL     1     -12.618  -7.011   0.000  0.00  0.00    +0.000 OA
BRANCH  20  21
ATOM     21  C   UNL     1     -11.905  -6.596   0.000  0.00  0.00    +0.000 C 
BRANCH  21  22
ATOM     22  C   UNL     1     -11.907  -5.771   0.000  0.00  0.00    +0.000 C 
ATOM     23  O   UNL     1     -11.194  -5.356   0.000  0.00  0.00    +0.000 OA
ENDBRANCH  21  22
BRANCH  21  24
ATOM     24  C   UNL     1     -11.189  -7.006   0.000  0.00  0.00    +0.000 C 
ATOM     25  O   UNL     1     -10.476  -6.592   0.000  0.00  0.00    +0.000 OA
ENDBRANCH  21  24
ENDBRANCH  20  21
ENDBRANCH  18  20
ENDBRANCH  17  18
ENDBRANCH  16  17
ENDBRANCH  15  16
ENDBRANCH  14  15
ENDBRANCH   1  14
TORSDOF 20
REMARK  Name = 
REMARK  92 active torsions:
REMARK  status: ('A' for Active; 'I' for Inactive)
REMARK    1  A    between atoms: C_2  and  C_3
REMARK    2  A    between atoms: C_3  and  C_4
REMARK    3  A    between atoms: C_4  and  C_5
REMARK    4  A    between atoms: C_5  and  C_6
REMARK    5  A    between atoms: C_6  and  C_7
REMARK    6  A    between atoms: C_7  and  C_8
REMARK    7  A    between atoms: C_8  and  C_9
REMARK    8  A    between atoms: C_9  and  C_10
REMARK    9  A    between atoms: C_10  and  C_11
REMARK   10  A    between atoms: C_11  and  C_12
REMARK   11  A    between atoms: C_12  and  C_13
REMARK   12  A    between atoms: C_13  and  C_14
REMARK   13  A    between atoms: C_14  and  C_15
REMARK   14  A    between atoms: C_15  and  C_16
REMARK   15  A    between atoms: C_16  and  C_17
REMARK   16  A    between atoms: C_17  and  C_21
REMARK   17  A    between atoms: C_18  and  C_20
REMARK   18  A    between atoms: C_19  and  C_20
REMARK   19  A    between atoms: C_19  and  O_25
REMARK   20  A    between atoms: C_21  and  O_25
REMARK   21  A    between atoms: C_27  and  C_28
REMARK   22  A    between atoms: C_28  and  C_29
REMARK   23  A    between atoms: C_29  and  C_30
REMARK   24  A    between atoms: C_30  and  C_31
REMARK   25  A    between atoms: C_31  and  C_32
REMARK   26  A    between atoms: C_32  and  C_33
REMARK   27  A    between atoms: C_33  and  C_34
REMARK   28  A    between atoms: C_34  and  C_35
REMARK   29  A    between atoms: C_35  and  C_36
REMARK   30  A    between atoms: C_36  and  C_37
REMARK   31  A    between atoms: C_37  and  C_38
REMARK   32  A    between atoms: C_38  and  C_39
REMARK   33  A    between atoms: C_39  and  C_40
REMARK   34  A    between atoms: C_40  and  C_41
REMARK   35  A    between atoms: C_41  and  C_42
REMARK   36  A    between atoms: C_42  and  C_46
REMARK   37  A    between atoms: C_43  and  C_45
REMARK   38  A    between atoms: C_44  and  C_45
REMARK   39  A    between atoms: C_44  and  O_50
REMARK   40  A    between atoms: C_46  and  O_50
REMARK   41  A    between atoms: C_52  and  C_53
REMARK   42  A    between atoms: C_53  and  C_54
REMARK   43  A    between atoms: C_54  and  C_55
REMARK   44  A    between atoms: C_55  and  C_56
REMARK   45  A    between atoms: C_56  and  C_57
REMARK   46  A    between atoms: C_57  and  C_58
REMARK   47  A    between atoms: C_58  and  C_59
REMARK   48  A    between atoms: C_59  and  C_60
REMARK   49  A    between atoms: C_60  and  C_61
REMARK   50  A    between atoms: C_61  and  C_62
REMARK   51  A    between atoms: C_62  and  C_63
REMARK   52  A    between atoms: C_63  and  C_64
REMARK   53  A    between atoms: C_64  and  C_65
REMARK   54  A    between atoms: C_65  and  C_66
REMARK   55  A    between atoms: C_66  and  C_67
REMARK   56  A    between atoms: C_67  and  C_71
REMARK   57  A    between atoms: C_68  and  C_70
REMARK   58  A    between atoms: C_69  and  C_70
REMARK   59  A    between atoms: C_70  and  O_75
REMARK   60  A    between atoms: C_71  and  O_75
REMARK   61  A    between atoms: C_77  and  C_78
REMARK   62  A    between atoms: C_78  and  C_79
REMARK   63  A    between atoms: C_79  and  C_80
REMARK   64  A    between atoms: C_80  and  C_81
REMARK   65  A    between atoms: C_81  and  C_82
REMARK   66  A    between atoms: C_82  and  C_83
REMARK   67  A    between atoms: C_83  and  C_84
REMARK   68  A    between atoms: C_84  and  C_85
REMARK   69  A    between atoms: C_85  and  C_86
REMARK   70  A    between atoms: C_86  and  C_87
REMARK   71  A    between atoms: C_87  and  C_88
REMARK   72  A    between atoms: C_88  and  C_89
REMARK   73  A    between atoms: C_89  and  C_90
REMARK   74  A    between atoms: C_90  and  C_91
REMARK   75  A    between atoms: C_91  and  C_92
REMARK   76  A    between atoms: C_92  and  C_93
REMARK   77  A    between atoms: C_97  and  C_98
REMARK   78  A    between atoms: C_98  and  C_99
REMARK   79  A    between atoms: C_99  and  C_100
REMARK   80  A    between atoms: C_100  and  C_101
REMARK   81  A    between atoms: C_101  and  C_102
REMARK   82  A    between atoms: C_102  and  C_103
REMARK   83  A    between atoms: C_103  and  C_104
REMARK   84  A    between atoms: C_104  and  C_105
REMARK   85  A    between atoms: C_105  and  C_106
REMARK   86  A    between atoms: C_106  and  C_107
REMARK   87  A    between atoms: C_107  and  C_108
REMARK   88  A    between atoms: C_108  and  C_109
REMARK   89  A    between atoms: C_109  and  C_110
REMARK   90  A    between atoms: C_110  and  C_111
REMARK   91  A    between atoms: C_111  and  C_112
REMARK   92  A    between atoms: C_112  and  C_113
REMARK                            x       y       z     vdW  Elec       q    Type
REMARK                         _______ _______ _______ _____ _____    ______ ____
ROOT
ATOM      1  C   UNL     1     -19.480 -13.626   0.000  0.00  0.00    +0.000 C 
ENDROOT
BRANCH   1   2
ATOM      2  C   UNL     1     -20.194 -13.213   0.000  0.00  0.00    +0.000 C 
BRANCH   2   3
ATOM      3  C   UNL     1     -20.909 -13.626   0.000  0.00  0.00    +0.000 C 
BRANCH   3   4
ATOM      4  C   UNL     1     -21.623 -13.213   0.000  0.00  0.00    +0.000 C 
BRANCH   4   5
ATOM      5  C   UNL     1     -22.338 -13.626   0.000  0.00  0.00    +0.000 C 
BRANCH   5   6
ATOM      6  C   UNL     1     -23.052 -13.213   0.000  0.00  0.00    +0.000 C 
BRANCH   6   7
ATOM      7  C   UNL     1     -23.767 -13.626   0.000  0.00  0.00    +0.000 C 
BRANCH   7   8
ATOM      8  C   UNL     1     -24.481 -13.213   0.000  0.00  0.00    +0.000 C 
BRANCH   8  10
ATOM      9  C   UNL     1     -25.910 -13.213   0.000  0.00  0.00    +0.000 C 
ATOM     10  C   UNL     1     -25.195 -13.626   0.000  0.00  0.00    +0.000 C 
ENDBRANCH   8  10
ENDBRANCH   7   8
ENDBRANCH   6   7
ENDBRANCH   5   6
ENDBRANCH   4   5
ENDBRANCH   3   4
ENDBRANCH   2   3
ENDBRANCH   1   2
BRANCH   1  11
ATOM     11  C   UNL     1     -18.765 -13.213   0.000  0.00  0.00    +0.000 C 
BRANCH  11  12
ATOM     12  C   UNL     1     -18.051 -13.626   0.000  0.00  0.00    +0.000 C 
BRANCH  12  13
ATOM     13  C   UNL     1     -17.336 -13.213   0.000  0.00  0.00    +0.000 C 
BRANCH  13  14
ATOM     14  C   UNL     1     -16.622 -13.626   0.000  0.00  0.00    +0.000 C 
BRANCH  14  15
ATOM     15  C   UNL     1     -15.907 -13.213   0.000  0.00  0.00    +0.000 C 
BRANCH  15  16
ATOM     16  C   UNL     1     -15.193 -13.626   0.000  0.00  0.00    +0.000 C 
BRANCH  16  17
ATOM     17  C   UNL     1     -14.478 -13.213   0.000  0.00  0.00    +0.000 C 
BRANCH  17  18
ATOM     18  C   UNL     1     -13.764 -13.626   0.000  0.00  0.00    +0.000 C 
ATOM     19  O   UNL     1     -13.764 -14.451   0.000  0.00  0.00    +0.000 OA
ATOM     20  O   UNL     1     -13.049 -13.213   0.000  0.00  0.00    +0.000 OA
ENDBRANCH  17  18
ENDBRANCH  16  17
ENDBRANCH  15  16
ENDBRANCH  14  15
ENDBRANCH  13  14
ENDBRANCH  12  13
ENDBRANCH  11  12
ENDBRANCH   1  11
TORSDOF 16
REMARK  Name = 
REMARK  92 active torsions:
REMARK  status: ('A' for Active; 'I' for Inactive)
REMARK    1  A    between atoms: C_2  and  C_3
REMARK    2  A    between atoms: C_3  and  C_4
REMARK    3  A    between atoms: C_4  and  C_5
REMARK    4  A    between atoms: C_5  and  C_6
REMARK    5  A    between atoms: C_6  and  C_7
REMARK    6  A    between atoms: C_7  and  C_8
REMARK    7  A    between atoms: C_8  and  C_9
REMARK    8  A    between atoms: C_9  and  C_10
REMARK    9  A    between atoms: C_10  and  C_11
REMARK   10  A    between atoms: C_11  and  C_12
REMARK   11  A    between atoms: C_12  and  C_13
REMARK   12  A    between atoms: C_13  and  C_14
REMARK   13  A    between atoms: C_14  and  C_15
REMARK   14  A    between atoms: C_15  and  C_16
REMARK   15  A    between atoms: C_16  and  C_17
REMARK   16  A    between atoms: C_17  and  C_21
REMARK   17  A    between atoms: C_18  and  C_20
REMARK   18  A    between atoms: C_19  and  C_20
REMARK   19  A    between atoms: C_19  and  O_25
REMARK   20  A    between atoms: C_21  and  O_25
REMARK   21  A    between atoms: C_27  and  C_28
REMARK   22  A    between atoms: C_28  and  C_29
REMARK   23  A    between atoms: C_29  and  C_30
REMARK   24  A    between atoms: C_30  and  C_31
REMARK   25  A    between atoms: C_31  and  C_32
REMARK   26  A    between atoms: C_32  and  C_33
REMARK   27  A    between atoms: C_33  and  C_34
REMARK   28  A    between atoms: C_34  and  C_35
REMARK   29  A    between atoms: C_35  and  C_36
REMARK   30  A    between atoms: C_36  and  C_37
REMARK   31  A    between atoms: C_37  and  C_38
REMARK   32  A    between atoms: C_38  and  C_39
REMARK   33  A    between atoms: C_39  and  C_40
REMARK   34  A    between atoms: C_40  and  C_41
REMARK   35  A    between atoms: C_41  and  C_42
REMARK   36  A    between atoms: C_42  and  C_46
REMARK   37  A    between atoms: C_43  and  C_45
REMARK   38  A    between atoms: C_44  and  C_45
REMARK   39  A    between atoms: C_44  and  O_50
REMARK   40  A    between atoms: C_46  and  O_50
REMARK   41  A    between atoms: C_52  and  C_53
REMARK   42  A    between atoms: C_53  and  C_54
REMARK   43  A    between atoms: C_54  and  C_55
REMARK   44  A    between atoms: C_55  and  C_56
REMARK   45  A    between atoms: C_56  and  C_57
REMARK   46  A    between atoms: C_57  and  C_58
REMARK   47  A    between atoms: C_58  and  C_59
REMARK   48  A    between atoms: C_59  and  C_60
REMARK   49  A    between atoms: C_60  and  C_61
REMARK   50  A    between atoms: C_61  and  C_62
REMARK   51  A    between atoms: C_62  and  C_63
REMARK   52  A    between atoms: C_63  and  C_64
REMARK   53  A    between atoms: C_64  and  C_65
REMARK   54  A    between atoms: C_65  and  C_66
REMARK   55  A    between atoms: C_66  and  C_67
REMARK   56  A    between atoms: C_67  and  C_71
REMARK   57  A    between atoms: C_68  and  C_70
REMARK   58  A    between atoms: C_69  and  C_70
REMARK   59  A    between atoms: C_70  and  O_75
REMARK   60  A    between atoms: C_71  and  O_75
REMARK   61  A    between atoms: C_77  and  C_78
REMARK   62  A    between atoms: C_78  and  C_79
REMARK   63  A    between atoms: C_79  and  C_80
REMARK   64  A    between atoms: C_80  and  C_81
REMARK   65  A    between atoms: C_81  and  C_82
REMARK   66  A    between atoms: C_82  and  C_83
REMARK   67  A    between atoms: C_83  and  C_84
REMARK   68  A    between atoms: C_84  and  C_85
REMARK   69  A    between atoms: C_85  and  C_86
REMARK   70  A    between atoms: C_86  and  C_87
REMARK   71  A    between atoms: C_87  and  C_88
REMARK   72  A    between atoms: C_88  and  C_89
REMARK   73  A    between atoms: C_89  and  C_90
REMARK   74  A    between atoms: C_90  and  C_91
REMARK   75  A    between atoms: C_91  and  C_92
REMARK   76  A    between atoms: C_92  and  C_93
REMARK   77  A    between atoms: C_97  and  C_98
REMARK   78  A    between atoms: C_98  and  C_99
REMARK   79  A    between atoms: C_99  and  C_100
REMARK   80  A    between atoms: C_100  and  C_101
REMARK   81  A    between atoms: C_101  and  C_102
REMARK   82  A    between atoms: C_102  and  C_103
REMARK   83  A    between atoms: C_103  and  C_104
REMARK   84  A    between atoms: C_104  and  C_105
REMARK   85  A    between atoms: C_105  and  C_106
REMARK   86  A    between atoms: C_106  and  C_107
REMARK   87  A    between atoms: C_107  and  C_108
REMARK   88  A    between atoms: C_108  and  C_109
REMARK   89  A    between atoms: C_109  and  C_110
REMARK   90  A    between atoms: C_110  and  C_111
REMARK   91  A    between atoms: C_111  and  C_112
REMARK   92  A    between atoms: C_112  and  C_113
REMARK                            x       y       z     vdW  Elec       q    Type
REMARK                         _______ _______ _______ _____ _____    ______ ____
ROOT
ATOM      1  C   UNL     1     -19.240 -10.108   0.000  0.00  0.00    +0.000 C 
ENDROOT
BRANCH   1   2
ATOM      2  C   UNL     1     -19.955  -9.696   0.000  0.00  0.00    +0.000 C 
BRANCH   2   3
ATOM      3  C   UNL     1     -20.669 -10.108   0.000  0.00  0.00    +0.000 C 
BRANCH   3   4
ATOM      4  C   UNL     1     -21.384  -9.696   0.000  0.00  0.00    +0.000 C 
BRANCH   4   5
ATOM      5  C   UNL     1     -22.098 -10.108   0.000  0.00  0.00    +0.000 C 
BRANCH   5   6
ATOM      6  C   UNL     1     -22.813  -9.696   0.000  0.00  0.00    +0.000 C 
BRANCH   6   7
ATOM      7  C   UNL     1     -23.527 -10.108   0.000  0.00  0.00    +0.000 C 
BRANCH   7   8
ATOM      8  C   UNL     1     -24.241  -9.696   0.000  0.00  0.00    +0.000 C 
BRANCH   8  10
ATOM      9  C   UNL     1     -25.671  -9.696   0.000  0.00  0.00    +0.000 C 
ATOM     10  C   UNL     1     -24.956 -10.108   0.000  0.00  0.00    +0.000 C 
ENDBRANCH   8  10
ENDBRANCH   7   8
ENDBRANCH   6   7
ENDBRANCH   5   6
ENDBRANCH   4   5
ENDBRANCH   3   4
ENDBRANCH   2   3
ENDBRANCH   1   2
BRANCH   1  11
ATOM     11  C   UNL     1     -18.526  -9.696   0.000  0.00  0.00    +0.000 C 
BRANCH  11  12
ATOM     12  C   UNL     1     -17.811 -10.108   0.000  0.00  0.00    +0.000 C 
BRANCH  12  13
ATOM     13  C   UNL     1     -17.097  -9.696   0.000  0.00  0.00    +0.000 C 
BRANCH  13  14
ATOM     14  C   UNL     1     -16.382 -10.108   0.000  0.00  0.00    +0.000 C 
BRANCH  14  15
ATOM     15  C   UNL     1     -15.668  -9.696   0.000  0.00  0.00    +0.000 C 
BRANCH  15  16
ATOM     16  C   UNL     1     -14.953 -10.108   0.000  0.00  0.00    +0.000 C 
BRANCH  16  17
ATOM     17  C   UNL     1     -14.239  -9.696   0.000  0.00  0.00    +0.000 C 
BRANCH  17  18
ATOM     18  C   UNL     1     -13.524 -10.108   0.000  0.00  0.00    +0.000 C 
ATOM     19  O   UNL     1     -13.524 -10.933   0.000  0.00  0.00    +0.000 OA
ATOM     20  O   UNL     1     -12.810  -9.696   0.000  0.00  0.00    +0.000 OA
ENDBRANCH  17  18
ENDBRANCH  16  17
ENDBRANCH  15  16
ENDBRANCH  14  15
ENDBRANCH  13  14
ENDBRANCH  12  13
ENDBRANCH  11  12
ENDBRANCH   1  11
TORSDOF 16
REMARK  Name = 
REMARK  92 active torsions:
REMARK  status: ('A' for Active; 'I' for Inactive)
REMARK    1  A    between atoms: C_2  and  C_3
REMARK    2  A    between atoms: C_3  and  C_4
REMARK    3  A    between atoms: C_4  and  C_5
REMARK    4  A    between atoms: C_5  and  C_6
REMARK    5  A    between atoms: C_6  and  C_7
REMARK    6  A    between atoms: C_7  and  C_8
REMARK    7  A    between atoms: C_8  and  C_9
REMARK    8  A    between atoms: C_9  and  C_10
REMARK    9  A    between atoms: C_10  and  C_11
REMARK   10  A    between atoms: C_11  and  C_12
REMARK   11  A    between atoms: C_12  and  C_13
REMARK   12  A    between atoms: C_13  and  C_14
REMARK   13  A    between atoms: C_14  and  C_15
REMARK   14  A    between atoms: C_15  and  C_16
REMARK   15  A    between atoms: C_16  and  C_17
REMARK   16  A    between atoms: C_17  and  C_21
REMARK   17  A    between atoms: C_18  and  C_20
REMARK   18  A    between atoms: C_19  and  C_20
REMARK   19  A    between atoms: C_19  and  O_25
REMARK   20  A    between atoms: C_21  and  O_25
REMARK   21  A    between atoms: C_27  and  C_28
REMARK   22  A    between atoms: C_28  and  C_29
REMARK   23  A    between atoms: C_29  and  C_30
REMARK   24  A    between atoms: C_30  and  C_31
REMARK   25  A    between atoms: C_31  and  C_32
REMARK   26  A    between atoms: C_32  and  C_33
REMARK   27  A    between atoms: C_33  and  C_34
REMARK   28  A    between atoms: C_34  and  C_35
REMARK   29  A    between atoms: C_35  and  C_36
REMARK   30  A    between atoms: C_36  and  C_37
REMARK   31  A    between atoms: C_37  and  C_38
REMARK   32  A    between atoms: C_38  and  C_39
REMARK   33  A    between atoms: C_39  and  C_40
REMARK   34  A    between atoms: C_40  and  C_41
REMARK   35  A    between atoms: C_41  and  C_42
REMARK   36  A    between atoms: C_42  and  C_46
REMARK   37  A    between atoms: C_43  and  C_45
REMARK   38  A    between atoms: C_44  and  C_45
REMARK   39  A    between atoms: C_44  and  O_50
REMARK   40  A    between atoms: C_46  and  O_50
REMARK   41  A    between atoms: C_52  and  C_53
REMARK   42  A    between atoms: C_53  and  C_54
REMARK   43  A    between atoms: C_54  and  C_55
REMARK   44  A    between atoms: C_55  and  C_56
REMARK   45  A    between atoms: C_56  and  C_57
REMARK   46  A    between atoms: C_57  and  C_58
REMARK   47  A    between atoms: C_58  and  C_59
REMARK   48  A    between atoms: C_59  and  C_60
REMARK   49  A    between atoms: C_60  and  C_61
REMARK   50  A    between atoms: C_61  and  C_62
REMARK   51  A    between atoms: C_62  and  C_63
REMARK   52  A    between atoms: C_63  and  C_64
REMARK   53  A    between atoms: C_64  and  C_65
REMARK   54  A    between atoms: C_65  and  C_66
REMARK   55  A    between atoms: C_66  and  C_67
REMARK   56  A    between atoms: C_67  and  C_71
REMARK   57  A    between atoms: C_68  and  C_70
REMARK   58  A    between atoms: C_69  and  C_70
REMARK   59  A    between atoms: C_70  and  O_75
REMARK   60  A    between atoms: C_71  and  O_75
REMARK   61  A    between atoms: C_77  and  C_78
REMARK   62  A    between atoms: C_78  and  C_79
REMARK   63  A    between atoms: C_79  and  C_80
REMARK   64  A    between atoms: C_80  and  C_81
REMARK   65  A    between atoms: C_81  and  C_82
REMARK   66  A    between atoms: C_82  and  C_83
REMARK   67  A    between atoms: C_83  and  C_84
REMARK   68  A    between atoms: C_84  and  C_85
REMARK   69  A    between atoms: C_85  and  C_86
REMARK   70  A    between atoms: C_86  and  C_87
REMARK   71  A    between atoms: C_87  and  C_88
REMARK   72  A    between atoms: C_88  and  C_89
REMARK   73  A    between atoms: C_89  and  C_90
REMARK   74  A    between atoms: C_90  and  C_91
REMARK   75  A    between atoms: C_91  and  C_92
REMARK   76  A    between atoms: C_92  and  C_93
REMARK   77  A    between atoms: C_97  and  C_98
REMARK   78  A    between atoms: C_98  and  C_99
REMARK   79  A    between atoms: C_99  and  C_100
REMARK   80  A    between atoms: C_100  and  C_101
REMARK   81  A    between atoms: C_101  and  C_102
REMARK   82  A    between atoms: C_102  and  C_103
REMARK   83  A    between atoms: C_103  and  C_104
REMARK   84  A    between atoms: C_104  and  C_105
REMARK   85  A    between atoms: C_105  and  C_106
REMARK   86  A    between atoms: C_106  and  C_107
REMARK   87  A    between atoms: C_107  and  C_108
REMARK   88  A    between atoms: C_108  and  C_109
REMARK   89  A    between atoms: C_109  and  C_110
REMARK   90  A    between atoms: C_110  and  C_111
REMARK   91  A    between atoms: C_111  and  C_112
REMARK   92  A    between atoms: C_112  and  C_113
REMARK                            x       y       z     vdW  Elec       q    Type
REMARK                         _______ _______ _______ _____ _____    ______ ____
ROOT
ATOM      1  K   UNL     1     -11.320 -10.095   0.000  0.00  0.00    +0.000 K 
ENDROOT
TORSDOF 0
REMARK  Name = 
REMARK  92 active torsions:
REMARK  status: ('A' for Active; 'I' for Inactive)
REMARK    1  A    between atoms: C_2  and  C_3
REMARK    2  A    between atoms: C_3  and  C_4
REMARK    3  A    between atoms: C_4  and  C_5
REMARK    4  A    between atoms: C_5  and  C_6
REMARK    5  A    between atoms: C_6  and  C_7
REMARK    6  A    between atoms: C_7  and  C_8
REMARK    7  A    between atoms: C_8  and  C_9
REMARK    8  A    between atoms: C_9  and  C_10
REMARK    9  A    between atoms: C_10  and  C_11
REMARK   10  A    between atoms: C_11  and  C_12
REMARK   11  A    between atoms: C_12  and  C_13
REMARK   12  A    between atoms: C_13  and  C_14
REMARK   13  A    between atoms: C_14  and  C_15
REMARK   14  A    between atoms: C_15  and  C_16
REMARK   15  A    between atoms: C_16  and  C_17
REMARK   16  A    between atoms: C_17  and  C_21
REMARK   17  A    between atoms: C_18  and  C_20
REMARK   18  A    between atoms: C_19  and  C_20
REMARK   19  A    between atoms: C_19  and  O_25
REMARK   20  A    between atoms: C_21  and  O_25
REMARK   21  A    between atoms: C_27  and  C_28
REMARK   22  A    between atoms: C_28  and  C_29
REMARK   23  A    between atoms: C_29  and  C_30
REMARK   24  A    between atoms: C_30  and  C_31
REMARK   25  A    between atoms: C_31  and  C_32
REMARK   26  A    between atoms: C_32  and  C_33
REMARK   27  A    between atoms: C_33  and  C_34
REMARK   28  A    between atoms: C_34  and  C_35
REMARK   29  A    between atoms: C_35  and  C_36
REMARK   30  A    between atoms: C_36  and  C_37
REMARK   31  A    between atoms: C_37  and  C_38
REMARK   32  A    between atoms: C_38  and  C_39
REMARK   33  A    between atoms: C_39  and  C_40
REMARK   34  A    between atoms: C_40  and  C_41
REMARK   35  A    between atoms: C_41  and  C_42
REMARK   36  A    between atoms: C_42  and  C_46
REMARK   37  A    between atoms: C_43  and  C_45
REMARK   38  A    between atoms: C_44  and  C_45
REMARK   39  A    between atoms: C_44  and  O_50
REMARK   40  A    between atoms: C_46  and  O_50
REMARK   41  A    between atoms: C_52  and  C_53
REMARK   42  A    between atoms: C_53  and  C_54
REMARK   43  A    between atoms: C_54  and  C_55
REMARK   44  A    between atoms: C_55  and  C_56
REMARK   45  A    between atoms: C_56  and  C_57
REMARK   46  A    between atoms: C_57  and  C_58
REMARK   47  A    between atoms: C_58  and  C_59
REMARK   48  A    between atoms: C_59  and  C_60
REMARK   49  A    between atoms: C_60  and  C_61
REMARK   50  A    between atoms: C_61  and  C_62
REMARK   51  A    between atoms: C_62  and  C_63
REMARK   52  A    between atoms: C_63  and  C_64
REMARK   53  A    between atoms: C_64  and  C_65
REMARK   54  A    between atoms: C_65  and  C_66
REMARK   55  A    between atoms: C_66  and  C_67
REMARK   56  A    between atoms: C_67  and  C_71
REMARK   57  A    between atoms: C_68  and  C_70
REMARK   58  A    between atoms: C_69  and  C_70
REMARK   59  A    between atoms: C_70  and  O_75
REMARK   60  A    between atoms: C_71  and  O_75
REMARK   61  A    between atoms: C_77  and  C_78
REMARK   62  A    between atoms: C_78  and  C_79
REMARK   63  A    between atoms: C_79  and  C_80
REMARK   64  A    between atoms: C_80  and  C_81
REMARK   65  A    between atoms: C_81  and  C_82
REMARK   66  A    between atoms: C_82  and  C_83
REMARK   67  A    between atoms: C_83  and  C_84
REMARK   68  A    between atoms: C_84  and  C_85
REMARK   69  A    between atoms: C_85  and  C_86
REMARK   70  A    between atoms: C_86  and  C_87
REMARK   71  A    between atoms: C_87  and  C_88
REMARK   72  A    between atoms: C_88  and  C_89
REMARK   73  A    between atoms: C_89  and  C_90
REMARK   74  A    between atoms: C_90  and  C_91
REMARK   75  A    between atoms: C_91  and  C_92
REMARK   76  A    between atoms: C_92  and  C_93
REMARK   77  A    between atoms: C_97  and  C_98
REMARK   78  A    between atoms: C_98  and  C_99
REMARK   79  A    between atoms: C_99  and  C_100
REMARK   80  A    between atoms: C_100  and  C_101
REMARK   81  A    between atoms: C_101  and  C_102
REMARK   82  A    between atoms: C_102  and  C_103
REMARK   83  A    between atoms: C_103  and  C_104
REMARK   84  A    between atoms: C_104  and  C_105
REMARK   85  A    between atoms: C_105  and  C_106
REMARK   86  A    between atoms: C_106  and  C_107
REMARK   87  A    between atoms: C_107  and  C_108
REMARK   88  A    between atoms: C_108  and  C_109
REMARK   89  A    between atoms: C_109  and  C_110
REMARK   90  A    between atoms: C_110  and  C_111
REMARK   91  A    between atoms: C_111  and  C_112
REMARK   92  A    between atoms: C_112  and  C_113
REMARK                            x       y       z     vdW  Elec       q    Type
REMARK                         _______ _______ _______ _____ _____    ______ ____
ROOT
ATOM      1 NA   UNL     1     -11.216 -13.545   0.000  0.00  0.00    +0.000 Na
ENDROOT
TORSDOF 0
