REMARK  Name = 
REMARK  6 active torsions:
REMARK  status: ('A' for Active; 'I' for Inactive)
REMARK    1  A    between atoms: C_3  and  N_22
REMARK    2  A    between atoms: N_7  and  C_10
REMARK    3  A    between atoms: C_13  and  C_15
REMARK    4  A    between atoms: C_15  and  O_16
REMARK    5  A    between atoms: O_16  and  N_17
REMARK    6  A    between atoms: N_22  and  C_23
REMARK                            x       y       z     vdW  Elec       q    Type
REMARK                         _______ _______ _______ _____ _____    ______ ____
ROOT
ATOM      1  C   UNL     1       3.352   1.935   0.000  0.00  0.00    +0.000 A 
ATOM      2  N   UNL     1       3.352   1.110   0.000  0.00  0.00    +0.000 NA
ATOM      3  C   UNL     1       2.638   0.698   0.000  0.00  0.00    +0.000 A 
ATOM      4  C   UNL     1       1.923   1.110   0.000  0.00  0.00    +0.000 A 
ATOM      5  C   UNL     1       1.923   1.935   0.000  0.00  0.00    +0.000 A 
ATOM      6  N   UNL     1       2.638   2.348   0.000  0.00  0.00    +0.000 NA
ATOM      7  N   UNL     1       1.139   2.190   0.000  0.00  0.00    +0.000 N 
ATOM      8  C   UNL     1       0.654   1.523   0.000  0.00  0.00    +0.000 A 
ATOM      9  N   UNL     1       1.139   0.856   0.000  0.00  0.00    +0.000 NA
ENDROOT
BRANCH   7  10
ATOM     10  C   UNL     1       0.884   2.975   0.000  0.00  0.00    +0.000 C 
ATOM     11  C   UNL     1       0.099   3.230   0.000  0.00  0.00    +0.000 C 
ATOM     12  C   UNL     1       0.099   4.055   0.000  0.00  0.00    +0.000 C 
ATOM     13  C   UNL     1       0.884   4.310   0.000  0.00  0.00    +0.000 C 
ATOM     14  O   UNL     1       1.369   3.642   0.000  0.00  0.00    +0.000 OA
ATOM     15  O   UNL     1      -0.568   4.540   0.000  0.00  0.00    +0.000 OA
ATOM     16  O   UNL     1      -0.568   2.745   0.000  0.00  0.00    +0.000 OA
BRANCH  13  17
ATOM     17  C   UNL     1       1.139   5.095   0.000  0.00  0.00    +0.000 C 
BRANCH  17  18
ATOM     18  O   UNL     1       0.587   5.708   0.000  0.00  0.00    +0.000 OA
BRANCH  18  19
ATOM     19  N   UNL     1       0.842   6.492   0.000  0.00  0.00    +0.000 N 
ATOM     20  O   UNL     1       0.290   7.105   0.000  0.00  0.00    +0.000 OA
ATOM     21  O   UNL     1       1.649   6.664   0.000  0.00  0.00    +0.000 OA
ENDBRANCH  18  19
ENDBRANCH  17  18
ENDBRANCH  13  17
ENDBRANCH   7  10
BRANCH   3  22
ATOM     22  N   UNL     1       2.638  -0.127   0.000  0.00  0.00    +0.000 NA
BRANCH  22  23
ATOM     23  C   UNL     1       1.923  -0.540   0.000  0.00  0.00    +0.000 C 
ATOM     24  C   UNL     1       1.837  -1.360   0.000  0.00  0.00    +0.000 C 
ATOM     25  C   UNL     1       1.030  -1.532   0.000  0.00  0.00    +0.000 C 
ATOM     26  C   UNL     1       0.618  -0.817   0.000  0.00  0.00    +0.000 C 
ATOM     27  C   UNL     1       1.170  -0.204   0.000  0.00  0.00    +0.000 C 
ENDBRANCH  22  23
ENDBRANCH   3  22
TORSDOF 6
