REMARK  Name = 
REMARK  22 active torsions:
REMARK  status: ('A' for Active; 'I' for Inactive)
REMARK    1  A    between atoms: C_2  and  N_8
REMARK    2  A    between atoms: C_6  and  C_11
REMARK    3  A    between atoms: C_11  and  C_13
REMARK    4  A    between atoms: C_12  and  C_13
REMARK    5  A    between atoms: C_12  and  O_25
REMARK    6  A    between atoms: C_13  and  N_14
REMARK    7  A    between atoms: C_15  and  C_16
REMARK    8  A    between atoms: C_20  and  C_21
REMARK    9  A    between atoms: C_20  and  C_24
REMARK   10  A    between atoms: C_21  and  C_22
REMARK   11  A    between atoms: C_22  and  C_29
REMARK   12  A    between atoms: C_24  and  O_25
REMARK   13  A    between atoms: C_26  and  C_27
REMARK   14  A    between atoms: C_26  and  C_32
REMARK   15  A    between atoms: C_27  and  C_28
REMARK   16  A    between atoms: C_29  and  C_30
REMARK   17  A    between atoms: C_30  and  C_33
REMARK   18  A    between atoms: C_31  and  C_32
REMARK   19  A    between atoms: C_31  and  C_36
REMARK   20  A    between atoms: C_33  and  C_34
REMARK   21  A    between atoms: C_34  and  C_35
REMARK   22  A    between atoms: C_35  and  C_36
REMARK                            x       y       z     vdW  Elec       q    Type
REMARK                         _______ _______ _______ _____ _____    ______ ____
ROOT
ATOM      1  C   UNL     1       1.786  -0.412   0.000  0.00  0.00    +0.000 C 
ENDROOT
BRANCH   1   2
ATOM      2  C   UNL     1       2.501  -0.825   0.000  0.00  0.00    +0.000 C 
BRANCH   2   3
ATOM      3  N   UNL     1       2.501  -1.650   0.000  0.00  0.00    +0.000 NA
ATOM      4  C   UNL     1       1.786  -2.062   0.000  0.00  0.00    +0.000 C 
ATOM      5  O   UNL     1       1.072  -1.650   0.000  0.00  0.00    +0.000 OA
BRANCH   4   6
ATOM      6  C   UNL     1       1.786  -2.888   0.000  0.00  0.00    +0.000 C 
ATOM      7 CL   UNL     1       1.072  -3.300   0.000  0.00  0.00    +0.000 Cl
ATOM      8 CL   UNL     1       2.501  -3.300   0.000  0.00  0.00    +0.000 Cl
ENDBRANCH   4   6
ENDBRANCH   2   3
BRANCH   2  10
ATOM      9  O   UNL     1       3.930  -0.825   0.000  0.00  0.00    +0.000 OA
ATOM     10  C   UNL     1       3.215  -0.412   0.000  0.00  0.00    +0.000 C 
BRANCH  10  16
ATOM     11  C   UNL     1       2.501   1.650   0.000  0.00  0.00    +0.000 A 
ATOM     12  C   UNL     1       3.215   2.062   0.000  0.00  0.00    +0.000 A 
ATOM     13  C   UNL     1       2.501   0.825   0.000  0.00  0.00    +0.000 A 
ATOM     14  C   UNL     1       3.930   1.650   0.000  0.00  0.00    +0.000 A 
ATOM     15  C   UNL     1       3.930   0.825   0.000  0.00  0.00    +0.000 A 
ATOM     16  C   UNL     1       3.215   0.412   0.000  0.00  0.00    +0.000 A 
BRANCH  12  18
ATOM     17  O   UNL     1       3.930   3.300   0.000  0.00  0.00    +0.000 OA
ATOM     18  N   UNL     1       3.215   2.887   0.000  0.00  0.00    +0.000 N 
ATOM     19  O   UNL     1       2.501   3.300   0.000  0.00  0.00    +0.000 OA
ENDBRANCH  12  18
ENDBRANCH  10  16
ENDBRANCH   2  10
ENDBRANCH   1   2
BRANCH   1  20
ATOM     20  O   UNL     1       1.786   0.412   0.000  0.00  0.00    +0.000 OA
BRANCH  20  22
ATOM     21  O   UNL     1       1.072   1.650   0.000  0.00  0.00    +0.000 OA
ATOM     22  C   UNL     1       1.072   0.825   0.000  0.00  0.00    +0.000 C 
BRANCH  22  23
ATOM     23  C   UNL     1       0.357   0.412   0.000  0.00  0.00    +0.000 C 
BRANCH  23  24
ATOM     24  C   UNL     1      -0.357   0.825   0.000  0.00  0.00    +0.000 C 
BRANCH  24  25
ATOM     25  C   UNL     1      -1.072   0.412   0.000  0.00  0.00    +0.000 C 
BRANCH  25  26
ATOM     26  C   UNL     1      -1.786   0.825   0.000  0.00  0.00    +0.000 C 
BRANCH  26  27
ATOM     27  C   UNL     1      -2.501   0.412   0.000  0.00  0.00    +0.000 C 
BRANCH  27  28
ATOM     28  C   UNL     1      -3.215   0.825   0.000  0.00  0.00    +0.000 C 
BRANCH  28  29
ATOM     29  C   UNL     1      -3.930   0.412   0.000  0.00  0.00    +0.000 C 
BRANCH  29  30
ATOM     30  C   UNL     1      -3.930  -0.412   0.000  0.00  0.00    +0.000 C 
BRANCH  30  31
ATOM     31  C   UNL     1      -3.215  -0.825   0.000  0.00  0.00    +0.000 C 
BRANCH  31  32
ATOM     32  C   UNL     1      -2.501  -0.412   0.000  0.00  0.00    +0.000 C 
BRANCH  32  33
ATOM     33  C   UNL     1      -1.786  -0.825   0.000  0.00  0.00    +0.000 C 
BRANCH  33  34
ATOM     34  C   UNL     1      -1.072  -0.412   0.000  0.00  0.00    +0.000 C 
BRANCH  34  35
ATOM     35  C   UNL     1      -0.357  -0.825   0.000  0.00  0.00    +0.000 C 
BRANCH  35  36
ATOM     36  C   UNL     1       0.357  -0.412   0.000  0.00  0.00    +0.000 C 
ATOM     37  C   UNL     1       1.072  -0.825   0.000  0.00  0.00    +0.000 C 
ENDBRANCH  35  36
ENDBRANCH  34  35
ENDBRANCH  33  34
ENDBRANCH  32  33
ENDBRANCH  31  32
ENDBRANCH  30  31
ENDBRANCH  29  30
ENDBRANCH  28  29
ENDBRANCH  27  28
ENDBRANCH  26  27
ENDBRANCH  25  26
ENDBRANCH  24  25
ENDBRANCH  23  24
ENDBRANCH  22  23
ENDBRANCH  20  22
ENDBRANCH   1  20
TORSDOF 22
