REMARK  Name = 
REMARK  12 active torsions:
REMARK  status: ('A' for Active; 'I' for Inactive)
REMARK    1  A    between atoms: C_2  and  N_3
REMARK    2  A    between atoms: C_2  and  C_34
REMARK    3  A    between atoms: N_3  and  P_4
REMARK    4  A    between atoms: P_4  and  O_6
REMARK    5  A    between atoms: P_4  and  O_23
REMARK    6  A    between atoms: O_6  and  C_7
REMARK    7  A    between atoms: C_7  and  C_8
REMARK    8  A    between atoms: C_10  and  N_14
REMARK    9  A    between atoms: O_23  and  C_24
REMARK   10  A    between atoms: C_34  and  O_36
REMARK   11  A    between atoms: O_36  and  C_37
REMARK   12  A    between atoms: C_37  and  C_38
REMARK                            x       y       z     vdW  Elec       q    Type
REMARK                         _______ _______ _______ _____ _____    ______ ____
ROOT
ATOM      1  P   UNL     1       0.715   1.238   0.000  0.00  0.00    +0.000 P 
ATOM      2  O   UNL     1       0.000   1.650   0.000  0.00  0.00    +0.000 OA
ENDROOT
BRANCH   1   3
ATOM      3  O   UNL     1       1.429   0.825   0.000  0.00  0.00    +0.000 OA
BRANCH   3   4
ATOM      4  C   UNL     1       1.429   0.000   0.000  0.00  0.00    +0.000 A 
ATOM      5  C   UNL     1       2.143  -0.412   0.000  0.00  0.00    +0.000 A 
ATOM      6  C   UNL     1       2.858   0.000   0.000  0.00  0.00    +0.000 A 
ATOM      7  C   UNL     1       3.572  -0.412   0.000  0.00  0.00    +0.000 A 
ATOM      8  C   UNL     1       3.572  -1.238   0.000  0.00  0.00    +0.000 A 
ATOM      9  C   UNL     1       2.858  -1.650   0.000  0.00  0.00    +0.000 A 
ATOM     10  C   UNL     1       2.143  -1.238   0.000  0.00  0.00    +0.000 A 
ATOM     11  C   UNL     1       1.429  -1.650   0.000  0.00  0.00    +0.000 A 
ATOM     12  C   UNL     1       0.715  -1.238   0.000  0.00  0.00    +0.000 A 
ATOM     13  C   UNL     1       0.715  -0.412   0.000  0.00  0.00    +0.000 A 
ENDBRANCH   3   4
ENDBRANCH   1   3
BRANCH   1  14
ATOM     14  O   UNL     1       0.302   0.523   0.000  0.00  0.00    +0.000 OA
BRANCH  14  15
ATOM     15  C   UNL     1      -0.523   0.523   0.000  0.00  0.00    +0.000 C 
BRANCH  15  16
ATOM     16  C   UNL     1      -0.935  -0.191   0.000  0.00  0.00    +0.000 C 
ATOM     17  O   UNL     1      -0.600  -0.945   0.000  0.00  0.00    +0.000 OA
ATOM     18  C   UNL     1      -1.213  -1.497   0.000  0.00  0.00    +0.000 C 
ATOM     19  C   UNL     1      -1.927  -1.085   0.000  0.00  0.00    +0.000 C 
ATOM     20  C   UNL     1      -1.756  -0.278   0.000  0.00  0.00    +0.000 C 
ATOM     21  O   UNL     1      -2.308   0.335   0.000  0.00  0.00    +0.000 OA
BRANCH  18  22
ATOM     22  N   UNL     1      -1.127  -2.318   0.000  0.00  0.00    +0.000 N 
ATOM     23  C   UNL     1      -0.373  -2.653   0.000  0.00  0.00    +0.000 A 
ATOM     24  C   UNL     1      -0.287  -3.474   0.000  0.00  0.00    +0.000 A 
ATOM     25  F   UNL     1       0.467  -3.809   0.000  0.00  0.00    +0.000 F 
ATOM     26  C   UNL     1      -0.954  -3.959   0.000  0.00  0.00    +0.000 A 
ATOM     27  O   UNL     1      -0.868  -4.779   0.000  0.00  0.00    +0.000 OA
ATOM     28  N   UNL     1      -1.708  -3.623   0.000  0.00  0.00    +0.000 NA
ATOM     29  C   UNL     1      -1.794  -2.803   0.000  0.00  0.00    +0.000 A 
ATOM     30  O   UNL     1      -2.548  -2.467   0.000  0.00  0.00    +0.000 OA
ENDBRANCH  18  22
ENDBRANCH  15  16
ENDBRANCH  14  15
ENDBRANCH   1  14
BRANCH   1  31
ATOM     31  N   UNL     1       1.127   1.952   0.000  0.00  0.00    +0.000 NA
BRANCH  31  33
ATOM     32  C   UNL     1       2.365   1.238   0.000  0.00  0.00    +0.000 C 
ATOM     33  C   UNL     1       1.952   1.952   0.000  0.00  0.00    +0.000 C 
BRANCH  33  34
ATOM     34  C   UNL     1       2.365   2.666   0.000  0.00  0.00    +0.000 C 
ATOM     35  O   UNL     1       1.952   3.381   0.000  0.00  0.00    +0.000 OA
BRANCH  34  36
ATOM     36  O   UNL     1       3.189   2.666   0.000  0.00  0.00    +0.000 OA
BRANCH  36  37
ATOM     37  C   UNL     1       3.602   3.381   0.000  0.00  0.00    +0.000 C 
BRANCH  37  38
ATOM     38  C   UNL     1       4.427   3.381   0.000  0.00  0.00    +0.000 A 
ATOM     39  C   UNL     1       4.840   4.095   0.000  0.00  0.00    +0.000 A 
ATOM     40  C   UNL     1       5.665   4.095   0.000  0.00  0.00    +0.000 A 
ATOM     41  C   UNL     1       6.077   3.381   0.000  0.00  0.00    +0.000 A 
ATOM     42  C   UNL     1       5.665   2.666   0.000  0.00  0.00    +0.000 A 
ATOM     43  C   UNL     1       4.840   2.666   0.000  0.00  0.00    +0.000 A 
ENDBRANCH  37  38
ENDBRANCH  36  37
ENDBRANCH  34  36
ENDBRANCH  33  34
ENDBRANCH  31  33
ENDBRANCH   1  31
TORSDOF 12
