REMARK  Name = 
REMARK  16 active torsions:
REMARK  status: ('A' for Active; 'I' for Inactive)
REMARK    1  A    between atoms: C_2  and  O_4
REMARK    2  A    between atoms: O_4  and  C_5
REMARK    3  A    between atoms: N_7  and  C_8
REMARK    4  A    between atoms: C_8  and  C_9
REMARK    5  A    between atoms: C_8  and  C_59
REMARK    6  A    between atoms: C_9  and  C_11
REMARK    7  A    between atoms: C_11  and  O_13
REMARK    8  A    between atoms: O_13  and  C_14
REMARK    9  A    between atoms: C_18  and  O_19
REMARK   10  A    between atoms: O_19  and  C_20
REMARK   11  A    between atoms: C_20  and  C_22
REMARK   12  A    between atoms: C_29  and  O_55
REMARK   13  A    between atoms: C_40  and  O_41
REMARK   14  A    between atoms: O_41  and  C_42
REMARK   15  A    between atoms: C_42  and  C_44
REMARK   16  A    between atoms: O_55  and  C_56
REMARK                            x       y       z     vdW  Elec       q    Type
REMARK                         _______ _______ _______ _____ _____    ______ ____
ROOT
ATOM      1  C   UNL     1      -0.386   0.916   0.000  0.00  0.00    +0.000 C 
ATOM      2  C   UNL     1       0.378   0.529   0.000  0.00  0.00    +0.000 C 
ATOM      3  C   UNL     1       1.158   0.942   0.000  0.00  0.00    +0.000 C 
ATOM      4  O   UNL     1       1.424   0.161   0.000  0.00  0.00    +0.000 OA
ATOM      5  C   UNL     1       2.023   1.090   0.000  0.00  0.00    +0.000 C 
ATOM      6  C   UNL     1       2.583   1.744   0.000  0.00  0.00    +0.000 C 
ATOM      7  C   UNL     1       3.340   1.416   0.000  0.00  0.00    +0.000 C 
ATOM      8  C   UNL     1       3.831   0.753   0.000  0.00  0.00    +0.000 C 
ATOM      9  O   UNL     1       4.494   1.244   0.000  0.00  0.00    +0.000 OA
ATOM     10  C   UNL     1       4.002   1.907   0.000  0.00  0.00    +0.000 C 
ATOM     11  C   UNL     1       3.908   2.727   0.000  0.00  0.00    +0.000 C 
ATOM     12  C   UNL     1       3.151   3.055   0.000  0.00  0.00    +0.000 C 
ATOM     13  O   UNL     1       3.057   3.875   0.000  0.00  0.00    +0.000 OA
ATOM     14  C   UNL     1       2.489   2.564   0.000  0.00  0.00    +0.000 C 
ATOM     15  C   UNL     1       2.493   3.389   0.000  0.00  0.00    +0.000 C 
ATOM     16  C   UNL     1       1.816   3.072   0.000  0.00  0.00    +0.000 C 
ATOM     17  O   UNL     1       2.006   3.875   0.000  0.00  0.00    +0.000 OA
ATOM     18  C   UNL     1       0.969   2.915   0.000  0.00  0.00    +0.000 C 
ATOM     19  C   UNL     1       0.409   2.240   0.000  0.00  0.00    +0.000 C 
ATOM     20  C   UNL     1      -0.339   1.771   0.000  0.00  0.00    +0.000 C 
ATOM     21  C   UNL     1      -1.050   2.190   0.000  0.00  0.00    +0.000 C 
ATOM     22  C   UNL     1       0.828   1.617   0.000  0.00  0.00    +0.000 C 
ATOM     23  C   UNL     1       1.337   2.266   0.000  0.00  0.00    +0.000 C 
ATOM     24  C   UNL     1       1.645   1.733   0.000  0.00  0.00    +0.000 C 
ENDROOT
BRANCH  18  25
ATOM     25  O   UNL     1       0.552   3.627   0.000  0.00  0.00    +0.000 OA
BRANCH  25  26
ATOM     26  C   UNL     1      -0.273   3.621   0.000  0.00  0.00    +0.000 C 
ATOM     27  O   UNL     1      -0.680   2.904   0.000  0.00  0.00    +0.000 OA
BRANCH  26  28
ATOM     28  C   UNL     1      -0.691   4.332   0.000  0.00  0.00    +0.000 C 
ATOM     29  C   UNL     1      -1.512   4.413   0.000  0.00  0.00    +0.000 C 
ATOM     30  C   UNL     1      -1.689   5.219   0.000  0.00  0.00    +0.000 C 
ATOM     31  C   UNL     1      -0.977   5.636   0.000  0.00  0.00    +0.000 C 
ATOM     32  C   UNL     1      -0.360   5.088   0.000  0.00  0.00    +0.000 C 
ENDBRANCH  26  28
ENDBRANCH  25  26
ENDBRANCH  18  25
BRANCH   7  33
ATOM     33  O   UNL     1       2.827   0.770   0.000  0.00  0.00    +0.000 OA
BRANCH  33  34
ATOM     34  C   UNL     1       3.130   0.003   0.000  0.00  0.00    +0.000 C 
ATOM     35  C   UNL     1       3.946  -0.119   0.000  0.00  0.00    +0.000 C 
ATOM     36  O   UNL     1       2.616  -0.643   0.000  0.00  0.00    +0.000 OA
ENDBRANCH  33  34
ENDBRANCH   7  33
BRANCH   1  37
ATOM     37  O   UNL     1      -1.100   0.503   0.000  0.00  0.00    +0.000 OA
BRANCH  37  38
ATOM     38  C   UNL     1      -1.815   0.916   0.000  0.00  0.00    +0.000 C 
ATOM     39  O   UNL     1      -1.815   1.741   0.000  0.00  0.00    +0.000 OA
BRANCH  38  40
ATOM     40  C   UNL     1      -2.529   0.503   0.000  0.00  0.00    +0.000 C 
ATOM     41  O   UNL     1      -2.529  -0.322   0.000  0.00  0.00    +0.000 OA
BRANCH  40  42
ATOM     42  C   UNL     1      -3.244   0.916   0.000  0.00  0.00    +0.000 C 
BRANCH  42  43
ATOM     43  C   UNL     1      -3.244   1.741   0.000  0.00  0.00    +0.000 A 
ATOM     44  C   UNL     1      -3.911   2.226   0.000  0.00  0.00    +0.000 A 
ATOM     45  C   UNL     1      -3.656   3.010   0.000  0.00  0.00    +0.000 A 
ATOM     46  C   UNL     1      -2.831   3.010   0.000  0.00  0.00    +0.000 A 
ATOM     47  S   UNL     1      -2.576   2.226   0.000  0.00  0.00    +0.000 S 
ENDBRANCH  42  43
BRANCH  42  50
ATOM     48  C   UNL     1      -4.673   0.916   0.000  0.00  0.00    +0.000 C 
ATOM     49  O   UNL     1      -4.673   1.741   0.000  0.00  0.00    +0.000 OA
ATOM     50  N   UNL     1      -3.958   0.503   0.000  0.00  0.00    +0.000 NA
BRANCH  48  51
ATOM     51  O   UNL     1      -5.387   0.503   0.000  0.00  0.00    +0.000 OA
BRANCH  51  53
ATOM     52  C   UNL     1      -6.816   0.503   0.000  0.00  0.00    +0.000 C 
ATOM     53  C   UNL     1      -6.102   0.916   0.000  0.00  0.00    +0.000 C 
ATOM     54  C   UNL     1      -6.102   1.741   0.000  0.00  0.00    +0.000 C 
ENDBRANCH  51  53
ENDBRANCH  48  51
ENDBRANCH  42  50
ENDBRANCH  40  42
ENDBRANCH  38  40
ENDBRANCH  37  38
ENDBRANCH   1  37
BRANCH   5  55
ATOM     55  O   UNL     1       2.431   0.372   0.000  0.00  0.00    +0.000 OA
BRANCH  55  56
ATOM     56  C   UNL     1       2.013  -0.339   0.000  0.00  0.00    +0.000 C 
ATOM     57  O   UNL     1       1.188  -0.333   0.000  0.00  0.00    +0.000 OA
BRANCH  56  58
ATOM     58  C   UNL     1       2.421  -1.056   0.000  0.00  0.00    +0.000 A 
ATOM     59  C   UNL     1       3.246  -1.062   0.000  0.00  0.00    +0.000 A 
ATOM     60  C   UNL     1       3.653  -1.780   0.000  0.00  0.00    +0.000 A 
ATOM     61  C   UNL     1       3.236  -2.491   0.000  0.00  0.00    +0.000 A 
ATOM     62  C   UNL     1       2.411  -2.485   0.000  0.00  0.00    +0.000 A 
ATOM     63  C   UNL     1       2.003  -1.768   0.000  0.00  0.00    +0.000 A 
ENDBRANCH  56  58
ENDBRANCH  55  56
ENDBRANCH   5  55
TORSDOF 16
