REMARK  Name = 
REMARK  1 active torsions:
REMARK  status: ('A' for Active; 'I' for Inactive)
REMARK    1  A    between atoms: C_5  and  C_7
REMARK                            x       y       z     vdW  Elec       q    Type
REMARK                         _______ _______ _______ _____ _____    ______ ____
ROOT
ATOM      1  F   UNL     1       0.825  -0.715   0.000  0.00  0.00    +0.000 F 
ATOM      2  F   UNL     1       0.825   0.715   0.000  0.00  0.00    +0.000 F 
ATOM      3  C   UNL     1       0.412   0.000   0.000  0.00  0.00    +0.000 C 
ATOM      4  F   UNL     1       1.237   0.000   0.000  0.00  0.00    +0.000 F 
ENDROOT
BRANCH   3   7
ATOM      5 BR   UNL     1      -0.825   0.715   0.000  0.00  0.00    +0.000 Br
ATOM      6 CL   UNL     1      -0.825  -0.715   0.000  0.00  0.00    +0.000 Cl
ATOM      7  C   UNL     1      -0.412   0.000   0.000  0.00  0.00    +0.000 C 
ENDBRANCH   3   7
TORSDOF 1
