REMARK  Name = 
REMARK  26 active torsions:
REMARK  status: ('A' for Active; 'I' for Inactive)
REMARK    1  A    between atoms: C_1  and  N_38
REMARK    2  A    between atoms: C_4  and  C_32
REMARK    3  A    between atoms: C_5  and  O_33
REMARK    4  A    between atoms: C_7  and  C_8
REMARK    5  A    between atoms: C_7  and  N_9
REMARK    6  A    between atoms: C_8  and  S_48
REMARK    7  A    between atoms: C_10  and  C_13
REMARK    8  A    between atoms: C_12  and  C_13
REMARK    9  A    between atoms: C_12  and  N_14
REMARK   10  A    between atoms: C_16  and  C_21
REMARK   11  A    between atoms: C_17  and  C_19
REMARK   12  A    between atoms: C_17  and  O_23
REMARK   13  A    between atoms: C_19  and  C_21
REMARK   14  A    between atoms: O_23  and  P_30
REMARK   15  A    between atoms: O_24  and  P_30
REMARK   16  A    between atoms: O_24  and  P_31
REMARK   17  A    between atoms: O_25  and  P_31
REMARK   18  A    between atoms: O_25  and  C_32
REMARK   19  A    between atoms: O_33  and  P_36
REMARK   20  A    between atoms: S_48  and  C_49
REMARK   21  A    between atoms: C_49  and  C_50
REMARK   22  A    between atoms: C_50  and  S_52
REMARK   23  A    between atoms: S_52  and  C_53
REMARK   24  A    between atoms: C_53  and  C_54
REMARK   25  A    between atoms: C_54  and  C_55
REMARK   26  A    between atoms: C_55  and  C_56
REMARK                            x       y       z     vdW  Elec       q    Type
REMARK                         _______ _______ _______ _____ _____    ______ ____
ROOT
ATOM      1  O   UNL     1      -2.504   2.533   0.000  0.00  0.00    +0.000 OA
ATOM      2  O   UNL     1      -2.504   0.883   0.000  0.00  0.00    +0.000 OA
ATOM      3  P   UNL     1      -2.504   1.708   0.000  0.00  0.00    +0.000 P 
ENDROOT
BRANCH   3   4
ATOM      4  O   UNL     1      -1.679   1.708   0.000  0.00  0.00    +0.000 OA
BRANCH   4   7
ATOM      5  O   UNL     1      -0.854   2.533   0.000  0.00  0.00    +0.000 OA
ATOM      6  O   UNL     1      -0.854   0.883   0.000  0.00  0.00    +0.000 OA
ATOM      7  P   UNL     1      -0.854   1.708   0.000  0.00  0.00    +0.000 P 
BRANCH   7   8
ATOM      8  O   UNL     1      -0.029   1.708   0.000  0.00  0.00    +0.000 OA
BRANCH   8   9
ATOM      9  C   UNL     1       0.554   2.291   0.000  0.00  0.00    +0.000 C 
BRANCH   9  13
ATOM     10  C   UNL     1       2.674   2.036   0.000  0.00  0.00    +0.000 C 
ATOM     11  O   UNL     1       2.007   2.521   0.000  0.00  0.00    +0.000 OA
ATOM     12  C   UNL     1       2.419   1.252   0.000  0.00  0.00    +0.000 C 
ATOM     13  C   UNL     1       1.339   2.036   0.000  0.00  0.00    +0.000 C 
ATOM     14  C   UNL     1       1.594   1.252   0.000  0.00  0.00    +0.000 C 
ATOM     15  O   UNL     1       2.904   0.584   0.000  0.00  0.00    +0.000 OA
BRANCH  10  16
ATOM     16  N   UNL     1       3.459   2.291   0.000  0.00  0.00    +0.000 N 
ATOM     17  C   UNL     1       4.072   1.739   0.000  0.00  0.00    +0.000 A 
ATOM     18  C   UNL     1       3.794   3.045   0.000  0.00  0.00    +0.000 A 
ATOM     19  C   UNL     1       4.786   2.151   0.000  0.00  0.00    +0.000 A 
ATOM     20  N   UNL     1       4.072   0.914   0.000  0.00  0.00    +0.000 NA
ATOM     21  N   UNL     1       4.615   2.959   0.000  0.00  0.00    +0.000 NA
ATOM     22  C   UNL     1       5.501   1.739   0.000  0.00  0.00    +0.000 A 
ATOM     23  C   UNL     1       4.786   0.502   0.000  0.00  0.00    +0.000 A 
ATOM     24  N   UNL     1       5.501   0.914   0.000  0.00  0.00    +0.000 NA
ATOM     25  N   UNL     1       6.215   2.152   0.000  0.00  0.00    +0.000 NA
ENDBRANCH  10  16
BRANCH  14  26
ATOM     26  O   UNL     1       1.109   0.584   0.000  0.00  0.00    +0.000 OA
BRANCH  26  29
ATOM     27  O   UNL     1       0.284  -0.241   0.000  0.00  0.00    +0.000 OA
ATOM     28  O   UNL     1       1.934  -0.241   0.000  0.00  0.00    +0.000 OA
ATOM     29  P   UNL     1       1.109  -0.241   0.000  0.00  0.00    +0.000 P 
ATOM     30  O   UNL     1       1.109  -1.066   0.000  0.00  0.00    +0.000 OA
ENDBRANCH  26  29
ENDBRANCH  14  26
ENDBRANCH   9  13
ENDBRANCH   8   9
ENDBRANCH   7   8
ENDBRANCH   4   7
ENDBRANCH   3   4
BRANCH   3  31
ATOM     31  O   UNL     1      -3.329   1.708   0.000  0.00  0.00    +0.000 OA
BRANCH  31  32
ATOM     32  C   UNL     1      -4.043   1.295   0.000  0.00  0.00    +0.000 C 
BRANCH  32  34
ATOM     33  C   UNL     1      -5.170   2.422   0.000  0.00  0.00    +0.000 C 
ATOM     34  C   UNL     1      -4.758   1.708   0.000  0.00  0.00    +0.000 C 
ATOM     35  C   UNL     1      -4.345   2.422   0.000  0.00  0.00    +0.000 C 
BRANCH  34  36
ATOM     36  C   UNL     1      -5.472   1.295   0.000  0.00  0.00    +0.000 C 
ATOM     37  O   UNL     1      -6.187   1.708   0.000  0.00  0.00    +0.000 OA
BRANCH  36  40
ATOM     38  N   UNL     1      -4.758   0.058   0.000  0.00  0.00    +0.000 NA
ATOM     39  O   UNL     1      -6.187   0.058   0.000  0.00  0.00    +0.000 OA
ATOM     40  C   UNL     1      -5.472   0.470   0.000  0.00  0.00    +0.000 C 
BRANCH  38  41
ATOM     41  C   UNL     1      -4.758  -0.767   0.000  0.00  0.00    +0.000 C 
BRANCH  41  42
ATOM     42  C   UNL     1      -5.500  -1.180   0.000  0.00  0.00    +0.000 C 
BRANCH  42  44
ATOM     43  N   UNL     1      -4.786  -2.417   0.000  0.00  0.00    +0.000 NA
ATOM     44  C   UNL     1      -5.500  -2.005   0.000  0.00  0.00    +0.000 C 
ATOM     45  O   UNL     1      -6.215  -2.417   0.000  0.00  0.00    +0.000 OA
BRANCH  43  46
ATOM     46  C   UNL     1      -4.072  -2.005   0.000  0.00  0.00    +0.000 C 
BRANCH  46  47
ATOM     47  C   UNL     1      -3.329  -2.417   0.000  0.00  0.00    +0.000 C 
BRANCH  47  48
ATOM     48  S   UNL     1      -2.614  -2.005   0.000  0.00  0.00    +0.000 S 
BRANCH  48  49
ATOM     49  C   UNL     1      -1.940  -2.458   0.000  0.00  0.00    +0.000 C 
ATOM     50  O   UNL     1      -1.911  -3.045   0.000  0.00  0.00    +0.000 OA
BRANCH  49  51
ATOM     51  C   UNL     1      -1.374  -2.091   0.000  0.00  0.00    +0.000 C 
BRANCH  51  52
ATOM     52  S   UNL     1      -0.811  -2.421   0.000  0.00  0.00    +0.000 S 
BRANCH  52  53
ATOM     53  C   UNL     1      -0.106  -2.018   0.000  0.00  0.00    +0.000 C 
BRANCH  53  54
ATOM     54  C   UNL     1       0.614  -2.421   0.000  0.00  0.00    +0.000 C 
BRANCH  54  55
ATOM     55  C   UNL     1       1.348  -2.018   0.000  0.00  0.00    +0.000 C 
BRANCH  55  56
ATOM     56  C   UNL     1       2.068  -2.421   0.000  0.00  0.00    +0.000 C 
ATOM     57  C   UNL     1       2.773  -2.018   0.000  0.00  0.00    +0.000 C 
ENDBRANCH  55  56
ENDBRANCH  54  55
ENDBRANCH  53  54
ENDBRANCH  52  53
ENDBRANCH  51  52
ENDBRANCH  49  51
ENDBRANCH  48  49
ENDBRANCH  47  48
ENDBRANCH  46  47
ENDBRANCH  43  46
ENDBRANCH  42  44
ENDBRANCH  41  42
ENDBRANCH  38  41
ENDBRANCH  36  40
ENDBRANCH  34  36
ENDBRANCH  32  34
ENDBRANCH  31  32
ENDBRANCH   3  31
TORSDOF 26
