REMARK  Name = 
REMARK  2 active torsions:
REMARK  status: ('A' for Active; 'I' for Inactive)
REMARK    1  A    between atoms: C_1  and  P_2
REMARK    2  A    between atoms: C_1  and  P_5
REMARK                            x       y       z     vdW  Elec       q    Type
REMARK                         _______ _______ _______ _____ _____    ______ ____
ROOT
ATOM      1  C   UNL     1       0.000  -0.412   0.000  0.00  0.00    +0.000 C 
ENDROOT
BRANCH   1   2
ATOM      2  P   UNL     1       0.714   0.000   0.000  0.00  0.00    +0.000 P 
ATOM      3  O   UNL     1       1.429  -0.412   0.000  0.00  0.00    +0.000 OA
ATOM      4  O   UNL     1       0.714   0.825   0.000  0.00  0.00    +0.000 OA
ATOM      5  O   UNL     1       0.714  -0.825   0.000  0.00  0.00    +0.000 OA
ENDBRANCH   1   2
BRANCH   1   6
ATOM      6  P   UNL     1      -0.714   0.000   0.000  0.00  0.00    +0.000 P 
ATOM      7  O   UNL     1      -1.429  -0.412   0.000  0.00  0.00    +0.000 OA
ATOM      8  O   UNL     1      -0.714   0.825   0.000  0.00  0.00    +0.000 OA
ATOM      9  O   UNL     1      -0.714  -0.825   0.000  0.00  0.00    +0.000 OA
ENDBRANCH   1   6
TORSDOF 2
