REMARK  Name = 
REMARK  6 active torsions:
REMARK  status: ('A' for Active; 'I' for Inactive)
REMARK    1  A    between atoms: C_2  and  C_4
REMARK    2  A    between atoms: C_2  and  C_15
REMARK    3  A    between atoms: N_6  and  C_7
REMARK    4  A    between atoms: C_7  and  C_8
REMARK    5  A    between atoms: C_8  and  C_9
REMARK    6  A    between atoms: N_17  and  C_18
REMARK                            x       y       z     vdW  Elec       q    Type
REMARK                         _______ _______ _______ _____ _____    ______ ____
ROOT
ATOM      1  C   UNL     1       3.700   4.847   0.000  0.00  0.00    +0.000 C 
ATOM      2  O   UNL     1       2.932   5.148   0.000  0.00  0.00    +0.000 OA
ATOM      3  N   UNL     1       3.823   4.031   0.000  0.00  0.00    +0.000 NA
ENDROOT
BRANCH   3   4
ATOM      4  C   UNL     1       3.178   3.516   0.000  0.00  0.00    +0.000 C 
ATOM      5  C   UNL     1       3.361   2.712   0.000  0.00  0.00    +0.000 A 
ATOM      6  C   UNL     1       4.177   2.589   0.000  0.00  0.00    +0.000 A 
ATOM      7  C   UNL     1       4.479   1.821   0.000  0.00  0.00    +0.000 A 
ATOM      8  C   UNL     1       3.964   1.176   0.000  0.00  0.00    +0.000 A 
ATOM      9  C   UNL     1       3.148   1.299   0.000  0.00  0.00    +0.000 A 
ATOM     10  C   UNL     1       2.847   2.067   0.000  0.00  0.00    +0.000 A 
ATOM     11  C   UNL     1       2.022   2.067   0.000  0.00  0.00    +0.000 A 
ATOM     12  C   UNL     1       1.720   1.299   0.000  0.00  0.00    +0.000 A 
ATOM     13  C   UNL     1       0.905   1.176   0.000  0.00  0.00    +0.000 A 
ATOM     14  C   UNL     1       0.390   1.821   0.000  0.00  0.00    +0.000 A 
ATOM     15  C   UNL     1       0.692   2.589   0.000  0.00  0.00    +0.000 A 
ATOM     16  C   UNL     1       1.508   2.712   0.000  0.00  0.00    +0.000 A 
ATOM     17  N   UNL     1       1.691   3.516   0.000  0.00  0.00    +0.000 NA
ATOM     18  C   UNL     1       2.434   3.874   0.000  0.00  0.00    +0.000 C 
ATOM     19  O   UNL     1       2.434   4.699   0.000  0.00  0.00    +0.000 OA
ENDBRANCH   3   4
BRANCH   1  21
ATOM     20  C   UNL     1       3.830   6.006   0.000  0.00  0.00    +0.000 C 
ATOM     21  C   UNL     1       4.345   5.361   0.000  0.00  0.00    +0.000 C 
ATOM     22  C   UNL     1       4.859   4.716   0.000  0.00  0.00    +0.000 C 
BRANCH  21  23
ATOM     23  C   UNL     1       4.990   5.875   0.000  0.00  0.00    +0.000 C 
ATOM     24  O   UNL     1       5.758   5.574   0.000  0.00  0.00    +0.000 OA
ATOM     25  N   UNL     1       4.867   6.691   0.000  0.00  0.00    +0.000 NA
BRANCH  25  26
ATOM     26  C   UNL     1       5.512   7.205   0.000  0.00  0.00    +0.000 C 
BRANCH  26  27
ATOM     27  C   UNL     1       5.389   8.021   0.000  0.00  0.00    +0.000 C 
ATOM     28  F   UNL     1       4.573   7.898   0.000  0.00  0.00    +0.000 F 
ATOM     29  F   UNL     1       6.205   8.144   0.000  0.00  0.00    +0.000 F 
BRANCH  27  30
ATOM     30  C   UNL     1       5.266   8.837   0.000  0.00  0.00    +0.000 C 
ATOM     31  F   UNL     1       5.143   9.653   0.000  0.00  0.00    +0.000 F 
ATOM     32  F   UNL     1       4.450   8.714   0.000  0.00  0.00    +0.000 F 
ATOM     33  F   UNL     1       6.082   8.960   0.000  0.00  0.00    +0.000 F 
ENDBRANCH  27  30
ENDBRANCH  26  27
ENDBRANCH  25  26
ENDBRANCH  21  23
ENDBRANCH   1  21
TORSDOF 6
