REMARK  Name = 
REMARK  4 active torsions:
REMARK  status: ('A' for Active; 'I' for Inactive)
REMARK    1  A    between atoms: NE_4  and  CD_5
REMARK    2  A    between atoms: CD_5  and  CG_6
REMARK    3  A    between atoms: CG_6  and  CB_7
REMARK    4  A    between atoms: CB_7  and  CA_8
REMARK                            x       y       z     vdW  Elec       q    Type
REMARK                         _______ _______ _______ _____ _____    ______ ____
ROOT
ATOM      1  CA  ARG A   1       0.282  -0.337   0.000  0.00  0.00    +0.000 C 
ATOM      2  N   ARG A   1       0.282  -1.161   0.000  0.00  0.00    +0.000 NA
ATOM      3  C   PRO A   2       0.997  -1.574   0.000  0.00  0.00    +0.000 C 
ATOM      4  CA  PRO A   2       1.712  -1.161   0.000  0.00  0.00    +0.000 C 
ATOM      5  N   PRO A   2       1.712  -0.337   0.000  0.00  0.00    +0.000 N 
ATOM      6  C   ARG A   1       0.997   0.076   0.000  0.00  0.00    +0.000 C 
ATOM      7  CB  PRO A   2       2.496  -1.416   0.000  0.00  0.00    +0.000 C 
ATOM      8  CG  PRO A   2       2.981  -0.749   0.000  0.00  0.00    +0.000 C 
ATOM      9  CD  PRO A   2       2.496  -0.082   0.000  0.00  0.00    +0.000 C 
ATOM     10  O   PRO A   2       0.997  -2.399   0.000  0.00  0.00    +0.000 OA
ATOM     11  O   ARG A   1       0.997   0.901   0.000  0.00  0.00    +0.000 OA
ENDROOT
BRANCH   1  12
ATOM     12  CB  ARG A   1      -0.432   0.076   0.000  0.00  0.00    +0.000 C 
BRANCH  12  13
ATOM     13  CG  ARG A   1      -1.146  -0.337   0.000  0.00  0.00    +0.000 C 
BRANCH  13  14
ATOM     14  CD  ARG A   1      -1.861   0.076   0.000  0.00  0.00    +0.000 C 
BRANCH  14  18
ATOM     15  NH2 ARG A   1      -4.004  -0.337   0.000  0.00  0.00    +0.000 NA
ATOM     16  CZ  ARG A   1      -3.290   0.076   0.000  0.00  0.00    +0.000 C 
ATOM     17  NH1 ARG A   1      -3.290   0.901   0.000  0.00  0.00    +0.000 NA
ATOM     18  NE  ARG A   1      -2.575  -0.337   0.000  0.00  0.00    +0.000 NA
ENDBRANCH  14  18
ENDBRANCH  13  14
ENDBRANCH  12  13
ENDBRANCH   1  12
TORSDOF 4
