REMARK  Name = 
REMARK  4 active torsions:
REMARK  status: ('A' for Active; 'I' for Inactive)
REMARK    1  A    between atoms: C_1  and  N_4
REMARK    2  A    between atoms: C_8  and  C_11
REMARK    3  A    between atoms: N_12  and  N_13
REMARK    4  A    between atoms: N_13  and  C_14
REMARK                            x       y       z     vdW  Elec       q    Type
REMARK                         _______ _______ _______ _____ _____    ______ ____
ROOT
ATOM      1  C   UNL     1      -1.426   0.419   0.000  0.00  0.00    +0.000 A 
ATOM      2  C   UNL     1      -1.426  -0.408   0.000  0.00  0.00    +0.000 A 
ATOM      3  C   UNL     1      -0.712   0.833   0.000  0.00  0.00    +0.000 A 
ATOM      4  C   UNL     1      -0.712  -0.822   0.000  0.00  0.00    +0.000 A 
ATOM      5  C   UNL     1       0.005   0.419   0.000  0.00  0.00    +0.000 A 
ATOM      6  C   UNL     1       0.002  -0.412   0.000  0.00  0.00    +0.000 A 
ENDROOT
BRANCH   1   7
ATOM      7  N   UNL     1      -2.140   0.826   0.000  0.00  0.00    +0.000 NA
ATOM      8  C   UNL     1      -2.853   0.412   0.000  0.00  0.00    +0.000 C 
ATOM      9  C   UNL     1      -3.563   0.822   0.000  0.00  0.00    +0.000 C 
ATOM     10  O   UNL     1      -2.850  -0.412   0.000  0.00  0.00    +0.000 OA
ENDBRANCH   1   7
BRANCH   6  11
ATOM     11  C   UNL     1       0.715  -0.826   0.000  0.00  0.00    +0.000 C 
ATOM     12  N   UNL     1       1.426  -0.415   0.000  0.00  0.00    +0.000 NA
BRANCH  12  13
ATOM     13  N   UNL     1       2.139  -0.829   0.000  0.00  0.00    +0.000 NA
BRANCH  13  14
ATOM     14  C   UNL     1       2.853  -0.419   0.000  0.00  0.00    +0.000 C 
ATOM     15  N   UNL     1       3.563  -0.833   0.000  0.00  0.00    +0.000 NA
ATOM     16  S   UNL     1       2.853   0.405   0.000  0.00  0.00    +0.000 S 
ENDBRANCH  13  14
ENDBRANCH  12  13
ENDBRANCH   6  11
TORSDOF 4
