REMARK  Name = 
REMARK  3 active torsions:
REMARK  status: ('A' for Active; 'I' for Inactive)
REMARK    1  A    between atoms: C_5  and  C_7
REMARK    2  A    between atoms: N_9  and  C_10
REMARK    3  A    between atoms: C_10  and  C_11
REMARK                            x       y       z     vdW  Elec       q    Type
REMARK                         _______ _______ _______ _____ _____    ______ ____
ROOT
ATOM      1  C   UNL     1       0.715  -0.412   0.000  0.00  0.00    +0.000 A 
ATOM      2  C   UNL     1       0.000   0.000   0.000  0.00  0.00    +0.000 A 
ATOM      3  C   UNL     1       0.000   0.825   0.000  0.00  0.00    +0.000 A 
ATOM      4  C   UNL     1       0.715   1.238   0.000  0.00  0.00    +0.000 A 
ATOM      5  C   UNL     1       1.429   0.825   0.000  0.00  0.00    +0.000 A 
ATOM      6  C   UNL     1       1.429   0.000   0.000  0.00  0.00    +0.000 A 
ATOM      7  I   UNL     1       0.715   2.062   0.000  0.00  0.00    +0.000 I 
ENDROOT
BRANCH   5   8
ATOM      8  C   UNL     1       2.143   1.238   0.000  0.00  0.00    +0.000 C 
ATOM      9  O   UNL     1       2.143   2.062   0.000  0.00  0.00    +0.000 OA
ATOM     10  N   UNL     1       2.858   0.825   0.000  0.00  0.00    +0.000 NA
BRANCH  10  11
ATOM     11  C   UNL     1       3.572   1.238   0.000  0.00  0.00    +0.000 C 
BRANCH  11  12
ATOM     12  C   UNL     1       4.287   0.825   0.000  0.00  0.00    +0.000 C 
ATOM     13  O   UNL     1       4.287   0.000   0.000  0.00  0.00    +0.000 OA
ATOM     14  O   UNL     1       5.001   1.238   0.000  0.00  0.00    +0.000 OA
ENDBRANCH  11  12
ENDBRANCH  10  11
ENDBRANCH   5   8
TORSDOF 3
REMARK  Name = 
REMARK  3 active torsions:
REMARK  status: ('A' for Active; 'I' for Inactive)
REMARK    1  A    between atoms: C_5  and  C_7
REMARK    2  A    between atoms: N_9  and  C_10
REMARK    3  A    between atoms: C_10  and  C_11
REMARK                            x       y       z     vdW  Elec       q    Type
REMARK                         _______ _______ _______ _____ _____    ______ ____
ROOT
ATOM      1 NA   UNL     1       5.716   1.650   0.000  0.00  0.00    +0.000 Na
ENDROOT
TORSDOF 0
