REMARK  Name = 
REMARK  7 active torsions:
REMARK  status: ('A' for Active; 'I' for Inactive)
REMARK    1  A    between atoms: C_5  and  C_6
REMARK    2  A    between atoms: C_6  and  N_7
REMARK    3  A    between atoms: N_7  and  C_8
REMARK    4  A    between atoms: C_10  and  C_11
REMARK    5  A    between atoms: C_14  and  O_15
REMARK    6  A    between atoms: O_15  and  C_16
REMARK    7  A    between atoms: C_16  and  C_17
REMARK                            x       y       z     vdW  Elec       q    Type
REMARK                         _______ _______ _______ _____ _____    ______ ____
ROOT
ATOM      1  C   UNL     1       0.302  -6.077   0.000  0.00  0.00    +0.000 A 
ATOM      2  C   UNL     1       0.302  -6.902   0.000  0.00  0.00    +0.000 A 
ATOM      3  C   UNL     1      -0.412  -7.314   0.000  0.00  0.00    +0.000 A 
ATOM      4  C   UNL     1      -1.127  -6.902   0.000  0.00  0.00    +0.000 A 
ATOM      5  C   UNL     1      -1.127  -6.077   0.000  0.00  0.00    +0.000 A 
ATOM      6  C   UNL     1      -0.412  -5.665   0.000  0.00  0.00    +0.000 A 
ENDROOT
BRANCH   1   9
ATOM      7  C   UNL     1       1.429  -4.950   0.000  0.00  0.00    +0.000 C 
ATOM      8  C   UNL     1       1.841  -5.665   0.000  0.00  0.00    +0.000 C 
ATOM      9  C   UNL     1       1.016  -5.665   0.000  0.00  0.00    +0.000 C 
BRANCH   7  10
ATOM     10  N   UNL     1       1.429  -4.125   0.000  0.00  0.00    +0.000 NA
BRANCH  10  11
ATOM     11  C   UNL     1       2.143  -3.712   0.000  0.00  0.00    +0.000 C 
BRANCH  11  16
ATOM     12  N   UNL     1       1.246  -0.951   0.000  0.00  0.00    +0.000 NA
ATOM     13  C   UNL     1       1.731  -1.618   0.000  0.00  0.00    +0.000 A 
ATOM     14  N   UNL     1       2.556  -1.618   0.000  0.00  0.00    +0.000 NA
ATOM     15  N   UNL     1       2.811  -2.403   0.000  0.00  0.00    +0.000 NA
ATOM     16  C   UNL     1       2.143  -2.888   0.000  0.00  0.00    +0.000 A 
ATOM     17  O   UNL     1       1.476  -2.403   0.000  0.00  0.00    +0.000 OA
ENDBRANCH  11  16
ENDBRANCH  10  11
ENDBRANCH   7  10
ENDBRANCH   1   9
BRANCH   4  18
ATOM     18  O   UNL     1      -1.841  -7.314   0.000  0.00  0.00    +0.000 OA
BRANCH  18  19
ATOM     19  C   UNL     1      -1.841  -8.139   0.000  0.00  0.00    +0.000 C 
BRANCH  19  20
ATOM     20  C   UNL     1      -2.556  -8.552   0.000  0.00  0.00    +0.000 A 
ATOM     21  C   UNL     1      -2.556  -9.377   0.000  0.00  0.00    +0.000 A 
ATOM     22  C   UNL     1      -3.270  -9.790   0.000  0.00  0.00    +0.000 A 
ATOM     23  C   UNL     1      -3.985  -9.377   0.000  0.00  0.00    +0.000 A 
ATOM     24  C   UNL     1      -3.985  -8.552   0.000  0.00  0.00    +0.000 A 
ATOM     25  C   UNL     1      -3.270  -8.139   0.000  0.00  0.00    +0.000 A 
ENDBRANCH  19  20
ENDBRANCH  18  19
ENDBRANCH   4  18
TORSDOF 7
