REMARK  Name = 
REMARK  7 active torsions:
REMARK  status: ('A' for Active; 'I' for Inactive)
REMARK    1  A    between atoms: C_1  and  C_2
REMARK    2  A    between atoms: C_2  and  C_5
REMARK    3  A    between atoms: C_5  and  N_9
REMARK    4  A    between atoms: C_5  and  C_10
REMARK    5  A    between atoms: C_11  and  N_14
REMARK    6  A    between atoms: C_12  and  C_15
REMARK    7  A    between atoms: C_15  and  N_19
REMARK                            x       y       z     vdW  Elec       q    Type
REMARK                         _______ _______ _______ _____ _____    ______ ____
ROOT
ATOM      1  C   UNK A   1      -0.359   0.829   0.000  0.00  0.00    +0.000 C 
ATOM      2  O   UNK A   1      -0.363   1.652   0.000  0.00  0.00    +0.000 OA
ENDROOT
BRANCH   1   3
ATOM      3  C   UNK A   1      -1.071   0.415   0.000  0.00  0.00    +0.000 A 
ATOM      4  C   UNK A   1      -1.071  -0.411   0.000  0.00  0.00    +0.000 A 
ATOM      5  C   UNK A   1      -1.783   0.826   0.000  0.00  0.00    +0.000 A 
ATOM      6  C   UNK A   1      -1.780  -0.822   0.000  0.00  0.00    +0.000 A 
ATOM      7  C   UNK A   1      -2.498   0.415   0.000  0.00  0.00    +0.000 A 
ATOM      8  C   UNK A   1      -2.495  -0.415   0.000  0.00  0.00    +0.000 A 
BRANCH   8   9
ATOM      9  N   UNK A   1      -3.210  -0.826   0.000  0.00  0.00    +0.000 N 
ATOM     10  O   UNK A   1      -3.214  -1.652   0.000  0.00  0.00    +0.000 OA
ATOM     11  O   UNK A   1      -3.926  -0.411   0.000  0.00  0.00    +0.000 OA
ENDBRANCH   8   9
ENDBRANCH   1   3
BRANCH   1  12
ATOM     12  C   UNK A   1       0.356   0.418   0.000  0.00  0.00    +0.000 C 
BRANCH  12  13
ATOM     13  N   UNK A   1       0.356  -0.404   0.000  0.00  0.00    +0.000 NA
ATOM     14  C   UNK A   0       1.071  -0.816   0.000  0.00  0.00    +0.000 C 
ATOM     15  O   UNK A   0       1.071  -1.645   0.000  0.00  0.00    +0.000 OA
BRANCH  14  16
ATOM     16  C   UNK A   0       1.783  -0.404   0.000  0.00  0.00    +0.000 C 
BRANCH  16  17
ATOM     17  N   UNK A   0       2.498  -0.816   0.000  0.00  0.00    +0.000 NA
ATOM     18  N   UNK A   0       3.210  -0.397   0.000  0.00  0.00    +0.000 NA
ATOM     19  N   UNK A   0       3.926   0.017   0.000  0.00  0.00    +0.000 NA
ENDBRANCH  16  17
ENDBRANCH  14  16
ENDBRANCH  12  13
BRANCH  12  20
ATOM     20  C   UNK A   1       1.071   0.833   0.000  0.00  0.00    +0.000 C 
ATOM     21  O   UNK A   1       1.783   0.425   0.000  0.00  0.00    +0.000 OA
ENDBRANCH  12  20
ENDBRANCH   1  12
TORSDOF 7
