REMARK  Name = 
REMARK  2 active torsions:
REMARK  status: ('A' for Active; 'I' for Inactive)
REMARK    1  A    between atoms: C_4  and  C_32
REMARK    2  A    between atoms: C_32  and  O_34
REMARK                            x       y       z     vdW  Elec       q    Type
REMARK                         _______ _______ _______ _____ _____    ______ ____
ROOT
ATOM      1  C   UNL     1       5.826  -2.062   0.000  0.00  0.00    +0.000 C 
ATOM      2  C   UNL     1       5.414  -2.777   0.000  0.00  0.00    +0.000 C 
ATOM      3  C   UNL     1       4.589  -2.777   0.000  0.00  0.00    +0.000 C 
ATOM      4  C   UNL     1       4.732  -3.589   0.000  0.00  0.00    +0.000 C 
ATOM      5  C   UNL     1       4.176  -2.062   0.000  0.00  0.00    +0.000 C 
ATOM      6  C   UNL     1       4.589  -1.348   0.000  0.00  0.00    +0.000 C 
ATOM      7  C   UNL     1       5.414  -1.348   0.000  0.00  0.00    +0.000 C 
ATOM      8  C   UNL     1       5.001  -0.634   0.000  0.00  0.00    +0.000 C 
ATOM      9  C   UNL     1       5.826  -0.634   0.000  0.00  0.00    +0.000 C 
ATOM     10  C   UNL     1       6.651  -0.634   0.000  0.00  0.00    +0.000 C 
ATOM     11  C   UNL     1       7.064  -1.348   0.000  0.00  0.00    +0.000 C 
ATOM     12  C   UNL     1       7.476  -0.634   0.000  0.00  0.00    +0.000 C 
ATOM     13  C   UNL     1       7.889  -1.348   0.000  0.00  0.00    +0.000 C 
ATOM     14  C   UNL     1       8.301  -0.634   0.000  0.00  0.00    +0.000 C 
ATOM     15  C   UNL     1       9.126  -0.634   0.000  0.00  0.00    +0.000 C 
ATOM     16  C   UNL     1       9.539  -1.348   0.000  0.00  0.00    +0.000 C 
ATOM     17  C   UNL     1      10.364  -1.348   0.000  0.00  0.00    +0.000 C 
ATOM     18  C   UNL     1      10.776  -0.634   0.000  0.00  0.00    +0.000 C 
ATOM     19  C   UNL     1      10.776  -2.062   0.000  0.00  0.00    +0.000 C 
ATOM     20  O   UNL     1      11.601  -2.062   0.000  0.00  0.00    +0.000 OA
ATOM     21  C   UNL     1      10.364  -2.777   0.000  0.00  0.00    +0.000 C 
ATOM     22  O   UNL     1      10.776  -3.491   0.000  0.00  0.00    +0.000 OA
ATOM     23  C   UNL     1       9.539  -2.777   0.000  0.00  0.00    +0.000 C 
ATOM     24  C   UNL     1       9.126  -2.062   0.000  0.00  0.00    +0.000 C 
ATOM     25  C   UNL     1       8.301  -2.062   0.000  0.00  0.00    +0.000 C 
ATOM     26  C   UNL     1       8.714  -2.777   0.000  0.00  0.00    +0.000 C 
ATOM     27  C   UNL     1       7.889  -2.777   0.000  0.00  0.00    +0.000 C 
ATOM     28  C   UNL     1       7.064  -2.777   0.000  0.00  0.00    +0.000 C 
ATOM     29  C   UNL     1       6.651  -2.062   0.000  0.00  0.00    +0.000 C 
ATOM     30  C   UNL     1       6.239  -2.777   0.000  0.00  0.00    +0.000 C 
ENDROOT
BRANCH   3  31
ATOM     31  C   UNL     1       3.814  -3.059   0.000  0.00  0.00    +0.000 C 
ATOM     32  O   UNL     1       3.670  -3.872   0.000  0.00  0.00    +0.000 OA
BRANCH  31  33
ATOM     33  O   UNL     1       3.182  -2.529   0.000  0.00  0.00    +0.000 OA
ATOM     34  C   UNL     1       2.406  -2.811   0.000  0.00  0.00    +0.000 C 
ENDBRANCH  31  33
ENDBRANCH   3  31
TORSDOF 2
