REMARK  Name = 
REMARK  3 active torsions:
REMARK  status: ('A' for Active; 'I' for Inactive)
REMARK    1  A    between atoms: C_4  and  C_5
REMARK    2  A    between atoms: C_14  and  N_22
REMARK    3  A    between atoms: C_16  and  N_26
REMARK                            x       y       z     vdW  Elec       q    Type
REMARK                         _______ _______ _______ _____ _____    ______ ____
ROOT
ATOM      1  C   UNL     1      -1.833   0.120   0.000  0.00  0.00    +0.000 A 
ATOM      2  C   UNL     1      -1.831   0.947   0.000  0.00  0.00    +0.000 A 
ATOM      3  C   UNL     1      -1.118  -0.292   0.000  0.00  0.00    +0.000 A 
ATOM      4  C   UNL     1      -0.402   0.120   0.000  0.00  0.00    +0.000 A 
ATOM      5  C   UNL     1      -0.405   0.950   0.000  0.00  0.00    +0.000 A 
ATOM      6  C   UNL     1      -1.120   1.359   0.000  0.00  0.00    +0.000 A 
ENDROOT
BRANCH   1  10
ATOM      7  C   UNL     1      -3.973  -1.125   0.000  0.00  0.00    +0.000 A 
ATOM      8  C   UNL     1      -3.259  -1.538   0.000  0.00  0.00    +0.000 A 
ATOM      9  C   UNL     1      -2.542  -1.125   0.000  0.00  0.00    +0.000 A 
ATOM     10  C   UNL     1      -2.542  -0.297   0.000  0.00  0.00    +0.000 A 
ATOM     11  N   UNL     1      -4.585   0.250   0.000  0.00  0.00    +0.000 NA
ATOM     12  C   UNL     1      -3.972  -0.298   0.000  0.00  0.00    +0.000 A 
ATOM     13  C   UNL     1      -3.260   0.117   0.000  0.00  0.00    +0.000 A 
ATOM     14  C   UNL     1      -3.437   0.921   0.000  0.00  0.00    +0.000 A 
ATOM     15  N   UNL     1      -4.256   1.001   0.000  0.00  0.00    +0.000 NA
ATOM     16  N   UNL     1      -2.889   1.538   0.000  0.00  0.00    +0.000 NA
ENDBRANCH   1  10
BRANCH   5  17
ATOM     17  N   UNL     1       0.302   1.358   0.000  0.00  0.00    +0.000 NA
ATOM     18  C   UNL     1       1.013   0.950   0.000  0.00  0.00    +0.000 C 
ATOM     19  O   UNL     1       1.014   0.122   0.000  0.00  0.00    +0.000 OA
ATOM     20  N   UNL     1       1.727   1.367   0.000  0.00  0.00    +0.000 NA
BRANCH  20  21
ATOM     21  C   UNL     1       2.445   0.955   0.000  0.00  0.00    +0.000 A 
ATOM     22  C   UNL     1       2.440   0.128   0.000  0.00  0.00    +0.000 A 
ATOM     23  C   UNL     1       3.152  -0.287   0.000  0.00  0.00    +0.000 A 
ATOM     24  C   UNL     1       3.870   0.122   0.000  0.00  0.00    +0.000 A 
ATOM     25  C   UNL     1       3.870   0.952   0.000  0.00  0.00    +0.000 A 
ATOM     26  C   UNL     1       3.158   1.364   0.000  0.00  0.00    +0.000 A 
ATOM     27  F   UNL     1       1.727  -0.289   0.000  0.00  0.00    +0.000 F 
ATOM     28  C   UNL     1       4.585   1.364   0.000  0.00  0.00    +0.000 C 
ENDBRANCH  20  21
ENDBRANCH   5  17
TORSDOF 3
