REMARK  Name = 
REMARK  9 active torsions:
REMARK  status: ('A' for Active; 'I' for Inactive)
REMARK    1  A    between atoms: C_2  and  C_27
REMARK    2  A    between atoms: C_3  and  O_4
REMARK    3  A    between atoms: C_6  and  O_12
REMARK    4  A    between atoms: O_12  and  C_13
REMARK    5  A    between atoms: C_17  and  C_18
REMARK    6  A    between atoms: C_18  and  C_19
REMARK    7  A    between atoms: C_19  and  N_20
REMARK    8  A    between atoms: C_30  and  C_31
REMARK    9  A    between atoms: C_31  and  C_32
REMARK                            x       y       z     vdW  Elec       q    Type
REMARK                         _______ _______ _______ _____ _____    ______ ____
ROOT
ATOM      1  C   UNL     1       1.127   1.127   0.000  0.00  0.00    +0.000 C 
ATOM      2  C   UNL     1       1.952   1.127   0.000  0.00  0.00    +0.000 C 
ATOM      3  C   UNL     1       2.365   0.412   0.000  0.00  0.00    +0.000 C 
ATOM      4  C   UNL     1       1.952  -0.302   0.000  0.00  0.00    +0.000 C 
ATOM      5  C   UNL     1       1.127  -0.302   0.000  0.00  0.00    +0.000 C 
ATOM      6  C   UNL     1       0.715   0.412   0.000  0.00  0.00    +0.000 C 
ATOM      7  C   UNL     1       0.000   0.000   0.000  0.00  0.00    +0.000 C 
ATOM      8  O   UNL     1       0.000   0.825   0.000  0.00  0.00    +0.000 OA
ENDROOT
BRANCH   1   9
ATOM      9  C   UNL     1       0.715   1.841   0.000  0.00  0.00    +0.000 C 
ATOM     10  C   UNL     1       1.347   2.372   0.000  0.00  0.00    +0.000 C 
ATOM     11  O   UNL     1      -0.061   1.559   0.000  0.00  0.00    +0.000 OA
ATOM     12  C   UNL     1       0.083   2.372   0.000  0.00  0.00    +0.000 C 
BRANCH  12  13
ATOM     13  C   UNL     1      -0.200   3.147   0.000  0.00  0.00    +0.000 C 
BRANCH  13  14
ATOM     14  C   UNL     1      -1.012   3.290   0.000  0.00  0.00    +0.000 C 
ATOM     15  C   UNL     1      -1.294   4.066   0.000  0.00  0.00    +0.000 C 
ATOM     16  C   UNL     1      -2.107   4.209   0.000  0.00  0.00    +0.000 C 
ATOM     17  C   UNL     1      -0.764   4.697   0.000  0.00  0.00    +0.000 C 
ENDBRANCH  13  14
ENDBRANCH  12  13
ENDBRANCH   1   9
BRANCH   2  18
ATOM     18  O   UNL     1       2.365   1.841   0.000  0.00  0.00    +0.000 OA
ATOM     19  C   UNL     1       3.189   1.841   0.000  0.00  0.00    +0.000 C 
ENDBRANCH   2  18
BRANCH   3  20
ATOM     20  O   UNL     1       3.189   0.412   0.000  0.00  0.00    +0.000 OA
BRANCH  20  21
ATOM     21  C   UNL     1       3.602  -0.302   0.000  0.00  0.00    +0.000 C 
ATOM     22  O   UNL     1       3.189  -1.016   0.000  0.00  0.00    +0.000 OA
ATOM     23  N   UNL     1       4.427  -0.302   0.000  0.00  0.00    +0.000 N 
ATOM     24  C   UNL     1       5.010   0.281   0.000  0.00  0.00    +0.000 C 
ATOM     25  C   UNL     1       5.594  -0.302   0.000  0.00  0.00    +0.000 C 
ATOM     26  C   UNL     1       5.010  -0.885   0.000  0.00  0.00    +0.000 C 
BRANCH  25  27
ATOM     27  C   UNL     1       6.419  -0.302   0.000  0.00  0.00    +0.000 C 
BRANCH  27  28
ATOM     28  C   UNL     1       6.831  -1.016   0.000  0.00  0.00    +0.000 C 
BRANCH  28  29
ATOM     29  N   UNL     1       7.656  -1.016   0.000  0.00  0.00    +0.000 NA
ATOM     30  C   UNL     1       8.069  -0.302   0.000  0.00  0.00    +0.000 C 
ATOM     31  C   UNL     1       8.894  -0.302   0.000  0.00  0.00    +0.000 C 
ATOM     32  O   UNL     1       9.306  -1.016   0.000  0.00  0.00    +0.000 OA
ATOM     33  C   UNL     1       8.894  -1.731   0.000  0.00  0.00    +0.000 C 
ATOM     34  C   UNL     1       8.069  -1.731   0.000  0.00  0.00    +0.000 C 
ENDBRANCH  28  29
ENDBRANCH  27  28
ENDBRANCH  25  27
ENDBRANCH  20  21
ENDBRANCH   3  20
TORSDOF 9
