REMARK  Name = 
REMARK  2 active torsions:
REMARK  status: ('A' for Active; 'I' for Inactive)
REMARK    1  A    between atoms: N_1  and  C_3
REMARK    2  A    between atoms: C_3  and  C_4
REMARK                            x       y       z     vdW  Elec       q    Type
REMARK                         _______ _______ _______ _____ _____    ______ ____
ROOT
ATOM      1  N   UNL     1      -0.725  -0.195   0.000  0.00  0.00    +0.000 N 
ATOM      2  C   UNL     1      -1.417  -0.645   0.000  0.00  0.00    +0.000 C 
ATOM      3  C   UNL     1      -0.769   0.629   0.000  0.00  0.00    +0.000 C 
ATOM      4  C   UNL     1      -1.440   0.217   0.000  0.00  0.00    +0.000 C 
ENDROOT
BRANCH   1   5
ATOM      5  C   UNL     1       0.010  -0.569   0.000  0.00  0.00    +0.000 C 
BRANCH   5   7
ATOM      6  O   UNL     1       1.440  -0.494   0.000  0.00  0.00    +0.000 OA
ATOM      7  C   UNL     1       0.708  -0.120   0.000  0.00  0.00    +0.000 C 
ENDBRANCH   5   7
ENDBRANCH   1   5
TORSDOF 2
REMARK  Name = 
REMARK  2 active torsions:
REMARK  status: ('A' for Active; 'I' for Inactive)
REMARK    1  A    between atoms: N_1  and  C_3
REMARK    2  A    between atoms: C_3  and  C_4
REMARK                            x       y       z     vdW  Elec       q    Type
REMARK                         _______ _______ _______ _____ _____    ______ ____
ROOT
ATOM      1 CL   UNL     1       0.613   0.645   0.000  0.00  0.00    +0.000 Cl
ENDROOT
TORSDOF 0
