REMARK  Name = 
REMARK  4 active torsions:
REMARK  status: ('A' for Active; 'I' for Inactive)
REMARK    1  A    between atoms: C_10  and  C_31
REMARK    2  A    between atoms: C_11  and  C_12
REMARK    3  A    between atoms: N_33  and  C_34
REMARK    4  A    between atoms: C_37  and  C_40
REMARK                            x       y       z     vdW  Elec       q    Type
REMARK                         _______ _______ _______ _____ _____    ______ ____
ROOT
ATOM      1  C   UNL     1       0.882   2.745   0.000  0.00  0.00    +0.000 C 
ATOM      2  C   UNL     1       1.032   1.857   0.000  0.00  0.00    +0.000 C 
ATOM      3  C   UNL     1       0.048   1.673   0.000  0.00  0.00    +0.000 C 
ATOM      4  C   UNL     1       1.796   2.167   0.000  0.00  0.00    +0.000 C 
ATOM      5  C   UNL     1       2.448   1.661   0.000  0.00  0.00    +0.000 C 
ATOM      6  C   UNL     1       2.335   0.843   0.000  0.00  0.00    +0.000 C 
ATOM      7  C   UNL     1       1.616   0.640   0.000  0.00  0.00    +0.000 C 
ATOM      8  C   UNL     1       0.919   1.039   0.000  0.00  0.00    +0.000 C 
ATOM      9  N   UNL     1       3.127   1.073   0.000  0.00  0.00    +0.000 NA
ATOM     10  C   UNL     1       3.590   0.390   0.000  0.00  0.00    +0.000 C 
ATOM     11  C   UNL     1       3.083  -0.262   0.000  0.00  0.00    +0.000 C 
ATOM     12  C   UNL     1       2.308   0.019   0.000  0.00  0.00    +0.000 C 
ATOM     13  C   UNL     1       2.280  -0.806   0.000  0.00  0.00    +0.000 C 
ATOM     14  O   UNL     1       2.230  -1.731   0.000  0.00  0.00    +0.000 OA
ATOM     15  N   UNL     1       1.488  -1.035   0.000  0.00  0.00    +0.000 NA
ATOM     16  C   UNL     1       1.025  -0.352   0.000  0.00  0.00    +0.000 A 
ATOM     17  C   UNL     1       0.208  -0.239   0.000  0.00  0.00    +0.000 A 
ATOM     18  C   UNL     1      -0.103   0.526   0.000  0.00  0.00    +0.000 A 
ATOM     19 CL   UNL     1      -0.981   0.445   0.000  0.00  0.00    +0.000 Cl
ATOM     20  C   UNL     1       0.404   1.177   0.000  0.00  0.00    +0.000 A 
ATOM     21  C   UNL     1       1.221   1.064   0.000  0.00  0.00    +0.000 A 
ATOM     22  C   UNL     1       1.532   0.299   0.000  0.00  0.00    +0.000 A 
ENDROOT
BRANCH  11  23
ATOM     23  C   UNL     1       3.312  -1.054   0.000  0.00  0.00    +0.000 A 
ATOM     24  C   UNL     1       2.741  -1.649   0.000  0.00  0.00    +0.000 A 
ATOM     25  F   UNL     1       1.718  -1.650   0.000  0.00  0.00    +0.000 F 
ATOM     26  C   UNL     1       2.970  -2.442   0.000  0.00  0.00    +0.000 A 
ATOM     27 CL   UNL     1       2.708  -3.292   0.000  0.00  0.00    +0.000 Cl
ATOM     28  N   UNL     1       3.771  -2.639   0.000  0.00  0.00    +0.000 NA
ATOM     29  C   UNL     1       4.342  -2.045   0.000  0.00  0.00    +0.000 A 
ATOM     30  C   UNL     1       4.113  -1.252   0.000  0.00  0.00    +0.000 A 
ENDBRANCH  11  23
BRANCH  10  31
ATOM     31  C   UNL     1       4.455   0.501   0.000  0.00  0.00    +0.000 C 
ATOM     32  O   UNL     1       5.108  -0.031   0.000  0.00  0.00    +0.000 OA
ATOM     33  N   UNL     1       4.862   1.252   0.000  0.00  0.00    +0.000 NA
BRANCH  33  34
ATOM     34  C   UNL     1       5.675   1.036   0.000  0.00  0.00    +0.000 C 
ATOM     35  C   UNL     1       6.111   1.736   0.000  0.00  0.00    +0.000 C 
ATOM     36  C   UNL     1       6.935   1.709   0.000  0.00  0.00    +0.000 C 
ATOM     37  C   UNL     1       7.324   0.982   0.000  0.00  0.00    +0.000 C 
ATOM     38  O   UNL     1       6.888   0.281   0.000  0.00  0.00    +0.000 OA
ATOM     39  C   UNL     1       6.064   0.308   0.000  0.00  0.00    +0.000 C 
BRANCH  37  40
ATOM     40  C   UNL     1       8.148   0.955   0.000  0.00  0.00    +0.000 C 
ATOM     41  N   UNL     1       8.584   1.655   0.000  0.00  0.00    +0.000 NA
ATOM     42  O   UNL     1       8.537   0.227   0.000  0.00  0.00    +0.000 OA
ENDBRANCH  37  40
ENDBRANCH  33  34
ENDBRANCH  10  31
TORSDOF 4
