REMARK  Name = 
REMARK  8 active torsions:
REMARK  status: ('A' for Active; 'I' for Inactive)
REMARK    1  A    between atoms: N_5  and  C_8
REMARK    2  A    between atoms: N_16  and  C_17
REMARK    3  A    between atoms: C_19  and  O_23
REMARK    4  A    between atoms: O_23  and  C_24
REMARK    5  A    between atoms: C_27  and  N_31
REMARK    6  A    between atoms: C_32  and  C_34
REMARK    7  A    between atoms: C_34  and  C_37
REMARK    8  A    between atoms: N_39  and  C_40
REMARK                            x       y       z     vdW  Elec       q    Type
REMARK                         _______ _______ _______ _____ _____    ______ ____
ROOT
ATOM      1  O   UNL     1      -1.709   2.077   0.000  0.00  0.00    +0.000 OA
ENDROOT
BRANCH   1   2
ATOM      2  C   UNL     1      -1.077   1.547   0.000  0.00  0.00    +0.000 A 
ATOM      3  C   UNL     1      -0.302   1.829   0.000  0.00  0.00    +0.000 A 
ATOM      4  C   UNL     1       0.330   1.299   0.000  0.00  0.00    +0.000 A 
ATOM      5  C   UNL     1       0.187   0.486   0.000  0.00  0.00    +0.000 A 
ATOM      6  C   UNL     1      -0.588   0.204   0.000  0.00  0.00    +0.000 A 
ATOM      7  C   UNL     1      -1.220   0.735   0.000  0.00  0.00    +0.000 A 
ATOM      8  F   UNL     1      -0.732  -0.608   0.000  0.00  0.00    +0.000 F 
BRANCH   5   9
ATOM      9  N   UNL     1       0.819  -0.044   0.000  0.00  0.00    +0.000 NA
ATOM     10  C   UNL     1       1.594   0.238   0.000  0.00  0.00    +0.000 C 
ATOM     11  O   UNL     1       1.737   1.051   0.000  0.00  0.00    +0.000 OA
BRANCH  10  12
ATOM     12  C   UNL     1       2.226  -0.292   0.000  0.00  0.00    +0.000 C 
ATOM     13  C   UNL     1       2.639  -1.007   0.000  0.00  0.00    +0.000 C 
ATOM     14  C   UNL     1       1.814  -1.007   0.000  0.00  0.00    +0.000 C 
BRANCH  12  15
ATOM     15  C   UNL     1       2.858   0.238   0.000  0.00  0.00    +0.000 C 
ATOM     16  O   UNL     1       2.715   1.051   0.000  0.00  0.00    +0.000 OA
ATOM     17  N   UNL     1       3.633  -0.044   0.000  0.00  0.00    +0.000 NA
BRANCH  17  18
ATOM     18  C   UNL     1       3.777  -0.856   0.000  0.00  0.00    +0.000 A 
ATOM     19  C   UNL     1       4.552  -1.139   0.000  0.00  0.00    +0.000 A 
ATOM     20  C   UNL     1       4.695  -1.951   0.000  0.00  0.00    +0.000 A 
ATOM     21  C   UNL     1       4.063  -2.481   0.000  0.00  0.00    +0.000 A 
ATOM     22  C   UNL     1       3.288  -2.199   0.000  0.00  0.00    +0.000 A 
ATOM     23  C   UNL     1       3.145  -1.387   0.000  0.00  0.00    +0.000 A 
ATOM     24  F   UNL     1       4.206  -3.294   0.000  0.00  0.00    +0.000 F 
ENDBRANCH  17  18
ENDBRANCH  12  15
ENDBRANCH  10  12
ENDBRANCH   5   9
ENDBRANCH   1   2
BRANCH   1  27
ATOM     25  C   UNL     1      -3.892   2.043   0.000  0.00  0.00    +0.000 A 
ATOM     26  C   UNL     1      -3.116   2.325   0.000  0.00  0.00    +0.000 A 
ATOM     27  C   UNL     1      -2.484   1.795   0.000  0.00  0.00    +0.000 A 
ATOM     28  C   UNL     1      -2.628   0.983   0.000  0.00  0.00    +0.000 A 
ATOM     29  C   UNL     1      -3.403   0.700   0.000  0.00  0.00    +0.000 A 
ATOM     30  N   UNL     1      -4.035   1.231   0.000  0.00  0.00    +0.000 NA
BRANCH  25  39
ATOM     31  C   UNL     1      -7.195   3.882   0.000  0.00  0.00    +0.000 C 
ATOM     32  C   UNL     1      -6.420   4.164   0.000  0.00  0.00    +0.000 C 
ATOM     33  C   UNL     1      -5.787   3.634   0.000  0.00  0.00    +0.000 C 
ATOM     34  N   UNL     1      -5.931   2.822   0.000  0.00  0.00    +0.000 N 
ATOM     35  C   UNL     1      -6.706   2.539   0.000  0.00  0.00    +0.000 C 
ATOM     36  C   UNL     1      -7.338   3.070   0.000  0.00  0.00    +0.000 C 
ATOM     37  C   UNL     1      -5.299   2.291   0.000  0.00  0.00    +0.000 C 
ATOM     38  O   UNL     1      -5.442   1.479   0.000  0.00  0.00    +0.000 OA
ATOM     39  N   UNL     1      -4.524   2.574   0.000  0.00  0.00    +0.000 NA
BRANCH  31  44
ATOM     40  C   UNL     1      -9.723   6.003   0.000  0.00  0.00    +0.000 C 
ATOM     41  N   UNL     1      -9.091   5.473   0.000  0.00  0.00    +0.000 NA
ATOM     42  C   UNL     1      -8.315   5.755   0.000  0.00  0.00    +0.000 C 
ATOM     43  C   UNL     1      -7.684   5.225   0.000  0.00  0.00    +0.000 C 
ATOM     44  N   UNL     1      -7.827   4.412   0.000  0.00  0.00    +0.000 NA
ATOM     45  C   UNL     1      -8.602   4.130   0.000  0.00  0.00    +0.000 C 
ATOM     46  C   UNL     1      -9.234   4.661   0.000  0.00  0.00    +0.000 C 
ENDBRANCH  31  44
ENDBRANCH  25  39
ENDBRANCH   1  27
TORSDOF 8
