REMARK  Name = 
REMARK  5 active torsions:
REMARK  status: ('A' for Active; 'I' for Inactive)
REMARK    1  A    between atoms: C_1  and  C_6
REMARK    2  A    between atoms: N_3  and  C_4
REMARK    3  A    between atoms: N_3  and  C_6
REMARK    4  A    between atoms: C_4  and  C_5
REMARK    5  A    between atoms: C_5  and  C_7
REMARK                            x       y       z     vdW  Elec       q    Type
REMARK                         _______ _______ _______ _____ _____    ______ ____
ROOT
ATOM      1  C   UNL     1       0.000  -0.002   0.000  0.00  0.00    +0.000 C 
ATOM      2  C   UNL     1       0.000  -0.831   0.000  0.00  0.00    +0.000 C 
ENDROOT
BRANCH   1   3
ATOM      3  N   UNL     1      -0.722   0.390   0.000  0.00  0.00    +0.000 NA
ATOM      4  C   UNL     1      -0.722   1.210   0.000  0.00  0.00    +0.000 C 
BRANCH   3   5
ATOM      5  C   UNL     1      -1.425  -0.032   0.000  0.00  0.00    +0.000 C 
BRANCH   5   6
ATOM      6  C   UNL     1      -2.147   0.366   0.000  0.00  0.00    +0.000 C 
ATOM      7  C   UNL     1      -2.865   0.768   0.000  0.00  0.00    +0.000 C 
ENDBRANCH   5   6
ENDBRANCH   3   5
ENDBRANCH   1   3
BRANCH   1   8
ATOM      8  C   UNL     1       0.698   0.419   0.000  0.00  0.00    +0.000 C 
BRANCH   8   9
ATOM      9  C   UNL     1       1.416   0.012   0.000  0.00  0.00    +0.000 A 
ATOM     10  C   UNL     1       2.128   0.419   0.000  0.00  0.00    +0.000 A 
ATOM     11  C   UNL     1       1.411  -0.817   0.000  0.00  0.00    +0.000 A 
ATOM     12  C   UNL     1       2.143  -1.210   0.000  0.00  0.00    +0.000 A 
ATOM     13  C   UNL     1       2.841   0.041   0.000  0.00  0.00    +0.000 A 
ATOM     14  C   UNL     1       2.865  -0.788   0.000  0.00  0.00    +0.000 A 
ENDBRANCH   8   9
ENDBRANCH   1   8
TORSDOF 5
