REMARK  Name = 
REMARK  2 active torsions:
REMARK  status: ('A' for Active; 'I' for Inactive)
REMARK    1  A    between atoms: C_4  and  C_7
REMARK    2  A    between atoms: C_12  and  S_18
REMARK                            x       y       z     vdW  Elec       q    Type
REMARK                         _______ _______ _______ _____ _____    ______ ____
ROOT
ATOM      1  C   UNL     1       0.715  -0.412   0.000  0.00  0.00    +0.000 C 
ATOM      2  N   UNL     1       1.429   0.000   0.000  0.00  0.00    +0.000 NA
ATOM      3  C   UNL     1       2.143  -0.412   0.000  0.00  0.00    +0.000 A 
ATOM      4  C   UNL     1       2.858   0.000   0.000  0.00  0.00    +0.000 A 
ATOM      5  C   UNL     1       3.572  -0.412   0.000  0.00  0.00    +0.000 A 
ATOM      6  C   UNL     1       3.572  -1.238   0.000  0.00  0.00    +0.000 A 
ATOM      7  C   UNL     1       2.858  -1.650   0.000  0.00  0.00    +0.000 A 
ATOM      8  C   UNL     1       2.143  -1.238   0.000  0.00  0.00    +0.000 A 
ATOM      9  C   UNL     1       1.429  -1.650   0.000  0.00  0.00    +0.000 C 
ATOM     10  O   UNL     1       1.429  -2.475   0.000  0.00  0.00    +0.000 OA
ATOM     11  N   UNL     1       0.715  -1.238   0.000  0.00  0.00    +0.000 NA
ATOM     12 CL   UNL     1       4.287   0.000   0.000  0.00  0.00    +0.000 Cl
ENDROOT
BRANCH   1  16
ATOM     13  C   UNL     1      -1.429   0.825   0.000  0.00  0.00    +0.000 A 
ATOM     14  C   UNL     1      -0.715   1.238   0.000  0.00  0.00    +0.000 A 
ATOM     15  C   UNL     1       0.000   0.825   0.000  0.00  0.00    +0.000 A 
ATOM     16  C   UNL     1       0.000   0.000   0.000  0.00  0.00    +0.000 A 
ATOM     17  C   UNL     1      -0.715  -0.412   0.000  0.00  0.00    +0.000 A 
ATOM     18  C   UNL     1      -1.429   0.000   0.000  0.00  0.00    +0.000 A 
ENDBRANCH   1  16
BRANCH   6  19
ATOM     19  S   UNL     1       4.287  -1.650   0.000  0.00  0.00    +0.000 S 
ATOM     20  O   UNL     1       5.001  -2.062   0.000  0.00  0.00    +0.000 OA
ATOM     21  O   UNL     1       3.874  -2.365   0.000  0.00  0.00    +0.000 OA
ATOM     22  N   UNL     1       4.699  -0.935   0.000  0.00  0.00    +0.000 NA
ENDBRANCH   6  19
TORSDOF 2
