REMARK  Name = 
REMARK  7 active torsions:
REMARK  status: ('A' for Active; 'I' for Inactive)
REMARK    1  A    between atoms: C_23  and  C_24
REMARK    2  A    between atoms: C_23  and  O_27
REMARK    3  A    between atoms: O_27  and  C_28
REMARK    4  A    between atoms: C_28  and  C_29
REMARK    5  A    between atoms: C_29  and  C_31
REMARK    6  A    between atoms: C_31  and  C_32
REMARK    7  A    between atoms: C_32  and  C_33
REMARK                            x       y       z     vdW  Elec       q    Type
REMARK                         _______ _______ _______ _____ _____    ______ ____
ROOT
ATOM      1  C   UNL     1      -4.225  -0.858   0.000  0.00  0.00    +0.000 C 
ATOM      2  C   UNL     1      -4.225  -1.652   0.000  0.00  0.00    +0.000 C 
ATOM      3  C   UNL     1      -3.514  -2.029   0.000  0.00  0.00    +0.000 C 
ATOM      4  C   UNL     1      -2.803  -1.652   0.000  0.00  0.00    +0.000 C 
ATOM      5  C   UNL     1      -2.803  -0.858   0.000  0.00  0.00    +0.000 C 
ATOM      6  C   UNL     1      -3.514  -0.439   0.000  0.00  0.00    +0.000 C 
ATOM      7  C   UNL     1      -2.133  -2.029   0.000  0.00  0.00    +0.000 C 
ATOM      8  C   UNL     1      -1.380  -1.652   0.000  0.00  0.00    +0.000 C 
ATOM      9  C   UNL     1      -1.380  -0.858   0.000  0.00  0.00    +0.000 C 
ATOM     10  C   UNL     1      -2.133  -0.439   0.000  0.00  0.00    +0.000 C 
ATOM     11  C   UNL     1      -0.669  -0.439   0.000  0.00  0.00    +0.000 C 
ATOM     12  C   UNL     1      -0.669   0.397   0.000  0.00  0.00    +0.000 C 
ATOM     13  C   UNL     1      -1.380   0.816   0.000  0.00  0.00    +0.000 C 
ATOM     14  C   UNL     1      -2.133   0.397   0.000  0.00  0.00    +0.000 C 
ATOM     15  O   UNL     1      -4.936  -2.029   0.000  0.00  0.00    +0.000 OA
ATOM     16  C   UNL     1      -2.803  -0.021   0.000  0.00  0.00    +0.000 C 
ATOM     17  C   UNL     1      -0.669   1.234   0.000  0.00  0.00    +0.000 C 
ATOM     18  C   UNL     1       0.753  -0.439   0.000  0.00  0.00    +0.000 C 
ATOM     19  C   UNL     1       0.753   0.397   0.000  0.00  0.00    +0.000 C 
ATOM     20  C   UNL     1       0.042   0.816   0.000  0.00  0.00    +0.000 C 
ENDROOT
BRANCH  20  21
ATOM     21  C   UNL     1       0.042   1.652   0.000  0.00  0.00    +0.000 C 
ATOM     22  O   UNL     1      -0.669   2.029   0.000  0.00  0.00    +0.000 OA
ATOM     23  C   UNL     1       0.711   2.029   0.000  0.00  0.00    +0.000 C 
ENDBRANCH  20  21
BRANCH  20  24
ATOM     24  O   UNL     1       0.711   1.234   0.000  0.00  0.00    +0.000 OA
BRANCH  24  25
ATOM     25  C   UNL     1       1.422   0.816   0.000  0.00  0.00    +0.000 C 
ATOM     26  O   UNL     1       1.422  -0.021   0.000  0.00  0.00    +0.000 OA
BRANCH  25  27
ATOM     27  C   UNL     1       2.133   1.234   0.000  0.00  0.00    +0.000 C 
BRANCH  27  28
ATOM     28  C   UNL     1       2.845   0.816   0.000  0.00  0.00    +0.000 C 
BRANCH  28  29
ATOM     29  C   UNL     1       3.556   1.234   0.000  0.00  0.00    +0.000 C 
BRANCH  29  30
ATOM     30  C   UNL     1       4.225   0.816   0.000  0.00  0.00    +0.000 C 
ATOM     31  C   UNL     1       4.936   1.234   0.000  0.00  0.00    +0.000 C 
ENDBRANCH  29  30
ENDBRANCH  28  29
ENDBRANCH  27  28
ENDBRANCH  25  27
ENDBRANCH  24  25
ENDBRANCH  20  24
TORSDOF 7
