REMARK  Name = 
REMARK  38 active torsions:
REMARK  status: ('A' for Active; 'I' for Inactive)
REMARK    1  A    between atoms: C_10  and  C_11
REMARK    2  A    between atoms: C_10  and  C_67
REMARK    3  A    between atoms: C_11  and  C_12
REMARK    4  A    between atoms: C_12  and  C_13
REMARK    5  A    between atoms: C_14  and  C_43
REMARK    6  A    between atoms: C_14  and  C_48
REMARK    7  A    between atoms: C_15  and  C_44
REMARK    8  A    between atoms: C_15  and  N_80
REMARK    9  A    between atoms: C_16  and  C_17
REMARK   10  A    between atoms: C_16  and  C_49
REMARK   11  A    between atoms: C_17  and  C_45
REMARK   12  A    between atoms: C_18  and  C_20
REMARK   13  A    between atoms: C_18  and  C_51
REMARK   14  A    between atoms: C_19  and  C_21
REMARK   15  A    between atoms: C_19  and  C_52
REMARK   16  A    between atoms: C_40  and  C_46
REMARK   17  A    between atoms: C_41  and  C_47
REMARK   18  A    between atoms: C_42  and  C_67
REMARK   19  A    between atoms: C_67  and  N_79
REMARK   20  A    between atoms: C_68  and  C_69
REMARK   21  A    between atoms: C_68  and  C_119
REMARK   22  A    between atoms: C_69  and  C_70
REMARK   23  A    between atoms: C_70  and  N_135
REMARK   24  A    between atoms: C_71  and  C_103
REMARK   25  A    between atoms: C_71  and  C_127
REMARK   26  A    between atoms: C_72  and  C_104
REMARK   27  A    between atoms: C_72  and  N_137
REMARK   28  A    between atoms: C_73  and  C_74
REMARK   29  A    between atoms: C_73  and  C_128
REMARK   30  A    between atoms: C_74  and  C_106
REMARK   31  A    between atoms: C_75  and  C_81
REMARK   32  A    between atoms: C_75  and  C_130
REMARK   33  A    between atoms: C_76  and  C_82
REMARK   34  A    between atoms: C_76  and  C_131
REMARK   35  A    between atoms: C_100  and  C_125
REMARK   36  A    between atoms: C_101  and  C_126
REMARK   37  A    between atoms: C_102  and  C_119
REMARK   38  A    between atoms: C_119  and  N_136
REMARK                            x       y       z     vdW  Elec       q    Type
REMARK                         _______ _______ _______ _____ _____    ______ ____
ROOT
ATOM      1  O   UNL     1      -3.306  -8.252   0.000  0.00  0.00    +0.000 OA
ATOM      2  O   UNL     1      -2.592 -11.140   0.000  0.00  0.00    +0.000 OA
ATOM      3  O   UNL     1       1.977  -7.890   0.000  0.00  0.00    +0.000 OA
ATOM      4  O   UNL     1       0.266 -11.965   0.000  0.00  0.00    +0.000 OA
ATOM      5  O   UNL     1       3.124 -11.140   0.000  0.00  0.00    +0.000 OA
ATOM      6  C   UNL     1      -1.163  -7.015   0.000  0.00  0.00    +0.000 C 
ATOM      7  C   UNL     1       0.980  -7.427   0.000  0.00  0.00    +0.000 C 
ATOM      8  C   UNL     1      -1.877  -7.427   0.000  0.00  0.00    +0.000 C 
ATOM      9  C   UNL     1      -2.592  -9.490   0.000  0.00  0.00    +0.000 C 
ATOM     10  C   UNL     1      -1.163 -11.140   0.000  0.00  0.00    +0.000 C 
ATOM     11  C   UNL     1       0.980  -8.252   0.000  0.00  0.00    +0.000 C 
ATOM     12  C   UNL     1       0.980 -10.727   0.000  0.00  0.00    +0.000 C 
ATOM     13  C   UNL     1       2.409  -9.902   0.000  0.00  0.00    +0.000 C 
ATOM     14  C   UNL     1      -2.592  -8.665   0.000  0.00  0.00    +0.000 C 
ATOM     15  C   UNL     1      -1.877 -10.727   0.000  0.00  0.00    +0.000 C 
ATOM     16  C   UNL     1       1.695  -8.665   0.000  0.00  0.00    +0.000 C 
ATOM     17  C   UNL     1       0.266 -11.140   0.000  0.00  0.00    +0.000 C 
ATOM     18  C   UNL     1       2.409 -10.727   0.000  0.00  0.00    +0.000 C 
ATOM     19  N   UNL     1       0.266  -8.665   0.000  0.00  0.00    +0.000 NA
ATOM     20  N   UNL     1      -1.877  -8.252   0.000  0.00  0.00    +0.000 NA
ATOM     21  N   UNL     1      -1.877  -9.902   0.000  0.00  0.00    +0.000 NA
ATOM     22  N   UNL     1      -0.449 -10.727   0.000  0.00  0.00    +0.000 NA
ATOM     23  N   UNL     1       1.695  -9.490   0.000  0.00  0.00    +0.000 NA
ATOM     24  N   UNL     1       1.695 -11.140   0.000  0.00  0.00    +0.000 NA
ATOM     25  S   UNL     1      -0.449  -7.427   0.000  0.00  0.00    +0.000 S 
ATOM     26  S   UNL     1       0.266  -7.015   0.000  0.00  0.00    +0.000 S 
ENDROOT
BRANCH   8  31
ATOM     27  O   UNL     1      -3.306  -7.427   0.000  0.00  0.00    +0.000 OA
ATOM     28  C   UNL     1      -3.004  -4.920   0.000  0.00  0.00    +0.000 C 
ATOM     29  C   UNL     1      -2.179  -4.920   0.000  0.00  0.00    +0.000 C 
ATOM     30  C   UNL     1      -1.924  -5.705   0.000  0.00  0.00    +0.000 C 
ATOM     31  C   UNL     1      -2.592  -7.015   0.000  0.00  0.00    +0.000 C 
ATOM     32  C   UNL     1      -3.259  -5.705   0.000  0.00  0.00    +0.000 C 
ATOM     33  N   UNL     1      -2.592  -6.190   0.000  0.00  0.00    +0.000 N 
BRANCH  32  35
ATOM     34  O   UNL     1      -4.215  -6.767   0.000  0.00  0.00    +0.000 OA
ATOM     35  C   UNL     1      -4.044  -5.960   0.000  0.00  0.00    +0.000 C 
ATOM     36  N   UNL     1      -4.657  -5.408   0.000  0.00  0.00    +0.000 NA
BRANCH  36  37
ATOM     37  C   UNL     1      -4.486  -4.601   0.000  0.00  0.00    +0.000 C 
BRANCH  37  39
ATOM     38  O   UNL     1      -5.883  -4.304   0.000  0.00  0.00    +0.000 OA
ATOM     39  C   UNL     1      -5.099  -4.049   0.000  0.00  0.00    +0.000 C 
ATOM     40  N   UNL     1      -4.927  -3.242   0.000  0.00  0.00    +0.000 NA
BRANCH  40  41
ATOM     41  C   UNL     1      -5.540  -2.690   0.000  0.00  0.00    +0.000 C 
BRANCH  41  43
ATOM     42  O   UNL     1      -4.584  -1.628   0.000  0.00  0.00    +0.000 OA
ATOM     43  C   UNL     1      -5.369  -1.883   0.000  0.00  0.00    +0.000 C 
ATOM     44  N   UNL     1      -5.982  -1.331   0.000  0.00  0.00    +0.000 NA
ENDBRANCH  41  43
ENDBRANCH  40  41
ENDBRANCH  37  39
BRANCH  37  45
ATOM     45  C   UNL     1      -3.701  -4.346   0.000  0.00  0.00    +0.000 C 
BRANCH  45  46
ATOM     46  C   UNL     1      -3.529  -3.539   0.000  0.00  0.00    +0.000 C 
BRANCH  46  47
ATOM     47  C   UNL     1      -2.745  -3.284   0.000  0.00  0.00    +0.000 C 
BRANCH  47  48
ATOM     48  C   UNL     1      -2.573  -2.477   0.000  0.00  0.00    +0.000 C 
ATOM     49  N   UNL     1      -1.788  -2.222   0.000  0.00  0.00    +0.000 NA
ENDBRANCH  47  48
ENDBRANCH  46  47
ENDBRANCH  45  46
ENDBRANCH  37  45
ENDBRANCH  36  37
ENDBRANCH  32  35
ENDBRANCH   8  31
BRANCH  12  50
ATOM     50  C   UNL     1       0.698  -9.952   0.000  0.00  0.00    +0.000 C 
BRANCH  50  56
ATOM     51  C   UNL     1       2.041  -9.463   0.000  0.00  0.00    +0.000 A 
ATOM     52  C   UNL     1       0.946  -8.545   0.000  0.00  0.00    +0.000 A 
ATOM     53  C   UNL     1       2.571  -8.832   0.000  0.00  0.00    +0.000 A 
ATOM     54  C   UNL     1       1.477  -7.913   0.000  0.00  0.00    +0.000 A 
ATOM     55  C   UNL     1       2.289  -8.056   0.000  0.00  0.00    +0.000 A 
ATOM     56  C   UNL     1       1.228  -9.320   0.000  0.00  0.00    +0.000 A 
ENDBRANCH  50  56
ENDBRANCH  12  50
BRANCH  13  57
ATOM     57  C   UNL     1       3.124  -9.490   0.000  0.00  0.00    +0.000 C 
BRANCH  57  62
ATOM     58  C   UNL     1       3.838 -10.727   0.000  0.00  0.00    +0.000 A 
ATOM     59  C   UNL     1       4.553  -9.490   0.000  0.00  0.00    +0.000 A 
ATOM     60  C   UNL     1       4.553 -11.140   0.000  0.00  0.00    +0.000 A 
ATOM     61  C   UNL     1       5.267  -9.902   0.000  0.00  0.00    +0.000 A 
ATOM     62  C   UNL     1       3.838  -9.902   0.000  0.00  0.00    +0.000 A 
ATOM     63  C   UNL     1       5.267 -10.727   0.000  0.00  0.00    +0.000 A 
ATOM     64  O   UNL     1       5.982 -11.140   0.000  0.00  0.00    +0.000 OA
ENDBRANCH  57  62
ENDBRANCH  13  57
BRANCH  10  65
ATOM     65  C   UNL     1      -1.163 -11.965   0.000  0.00  0.00    +0.000 C 
BRANCH  65  66
ATOM     66  C   UNL     1      -1.877 -12.377   0.000  0.00  0.00    +0.000 C 
BRANCH  66  68
ATOM     67  O   UNL     1      -1.163 -13.615   0.000  0.00  0.00    +0.000 OA
ATOM     68  C   UNL     1      -1.877 -13.203   0.000  0.00  0.00    +0.000 C 
ATOM     69  N   UNL     1      -2.592 -13.615   0.000  0.00  0.00    +0.000 NA
ENDBRANCH  66  68
ENDBRANCH  65  66
ENDBRANCH  10  65
BRANCH   9  70
ATOM     70  C   UNL     1      -3.306  -9.902   0.000  0.00  0.00    +0.000 C 
BRANCH  70  72
ATOM     71  O   UNL     1      -4.021  -8.665   0.000  0.00  0.00    +0.000 OA
ATOM     72  C   UNL     1      -4.021  -9.490   0.000  0.00  0.00    +0.000 C 
ATOM     73  N   UNL     1      -4.735  -9.902   0.000  0.00  0.00    +0.000 NA
ENDBRANCH  70  72
ENDBRANCH   9  70
TORSDOF 19
REMARK  Name = 
REMARK  38 active torsions:
REMARK  status: ('A' for Active; 'I' for Inactive)
REMARK    1  A    between atoms: C_10  and  C_11
REMARK    2  A    between atoms: C_10  and  C_67
REMARK    3  A    between atoms: C_11  and  C_12
REMARK    4  A    between atoms: C_12  and  C_13
REMARK    5  A    between atoms: C_14  and  C_43
REMARK    6  A    between atoms: C_14  and  C_48
REMARK    7  A    between atoms: C_15  and  C_44
REMARK    8  A    between atoms: C_15  and  N_80
REMARK    9  A    between atoms: C_16  and  C_17
REMARK   10  A    between atoms: C_16  and  C_49
REMARK   11  A    between atoms: C_17  and  C_45
REMARK   12  A    between atoms: C_18  and  C_20
REMARK   13  A    between atoms: C_18  and  C_51
REMARK   14  A    between atoms: C_19  and  C_21
REMARK   15  A    between atoms: C_19  and  C_52
REMARK   16  A    between atoms: C_40  and  C_46
REMARK   17  A    between atoms: C_41  and  C_47
REMARK   18  A    between atoms: C_42  and  C_67
REMARK   19  A    between atoms: C_67  and  N_79
REMARK   20  A    between atoms: C_68  and  C_69
REMARK   21  A    between atoms: C_68  and  C_119
REMARK   22  A    between atoms: C_69  and  C_70
REMARK   23  A    between atoms: C_70  and  N_135
REMARK   24  A    between atoms: C_71  and  C_103
REMARK   25  A    between atoms: C_71  and  C_127
REMARK   26  A    between atoms: C_72  and  C_104
REMARK   27  A    between atoms: C_72  and  N_137
REMARK   28  A    between atoms: C_73  and  C_74
REMARK   29  A    between atoms: C_73  and  C_128
REMARK   30  A    between atoms: C_74  and  C_106
REMARK   31  A    between atoms: C_75  and  C_81
REMARK   32  A    between atoms: C_75  and  C_130
REMARK   33  A    between atoms: C_76  and  C_82
REMARK   34  A    between atoms: C_76  and  C_131
REMARK   35  A    between atoms: C_100  and  C_125
REMARK   36  A    between atoms: C_101  and  C_126
REMARK   37  A    between atoms: C_102  and  C_119
REMARK   38  A    between atoms: C_119  and  N_136
REMARK                            x       y       z     vdW  Elec       q    Type
REMARK                         _______ _______ _______ _____ _____    ______ ____
ROOT
ATOM      1  C   UNL     1      -1.163   7.931   0.000  0.00  0.00    +0.000 C 
ATOM      2  C   UNL     1       0.980   7.518   0.000  0.00  0.00    +0.000 C 
ATOM      3  O   UNL     1      -3.306   6.693   0.000  0.00  0.00    +0.000 OA
ATOM      4  O   UNL     1      -2.592   3.806   0.000  0.00  0.00    +0.000 OA
ATOM      5  O   UNL     1       0.266   2.981   0.000  0.00  0.00    +0.000 OA
ATOM      6  O   UNL     1       1.977   7.056   0.000  0.00  0.00    +0.000 OA
ATOM      7  O   UNL     1       3.124   3.806   0.000  0.00  0.00    +0.000 OA
ATOM      8  C   UNL     1      -2.592   6.281   0.000  0.00  0.00    +0.000 C 
ATOM      9  C   UNL     1      -1.877   4.218   0.000  0.00  0.00    +0.000 C 
ATOM     10  C   UNL     1       0.266   3.806   0.000  0.00  0.00    +0.000 C 
ATOM     11  C   UNL     1       1.695   6.281   0.000  0.00  0.00    +0.000 C 
ATOM     12  C   UNL     1       2.409   4.218   0.000  0.00  0.00    +0.000 C 
ATOM     13  C   UNL     1      -1.877   7.518   0.000  0.00  0.00    +0.000 C 
ATOM     14  C   UNL     1      -2.592   5.456   0.000  0.00  0.00    +0.000 C 
ATOM     15  C   UNL     1      -1.163   3.806   0.000  0.00  0.00    +0.000 C 
ATOM     16  C   UNL     1       0.980   6.693   0.000  0.00  0.00    +0.000 C 
ATOM     17  C   UNL     1       0.980   4.218   0.000  0.00  0.00    +0.000 C 
ATOM     18  C   UNL     1       2.409   5.043   0.000  0.00  0.00    +0.000 C 
ATOM     19  N   UNL     1       0.266   6.281   0.000  0.00  0.00    +0.000 NA
ATOM     20  S   UNL     1      -0.449   7.518   0.000  0.00  0.00    +0.000 S 
ATOM     21  S   UNL     1       0.266   7.931   0.000  0.00  0.00    +0.000 S 
ATOM     22  N   UNL     1      -1.877   6.693   0.000  0.00  0.00    +0.000 NA
ATOM     23  N   UNL     1      -1.877   5.043   0.000  0.00  0.00    +0.000 NA
ATOM     24  N   UNL     1      -0.449   4.218   0.000  0.00  0.00    +0.000 NA
ATOM     25  N   UNL     1       1.695   5.456   0.000  0.00  0.00    +0.000 NA
ATOM     26  N   UNL     1       1.695   3.806   0.000  0.00  0.00    +0.000 NA
ENDROOT
BRANCH  13  31
ATOM     27  C   UNL     1      -3.004  10.025   0.000  0.00  0.00    +0.000 C 
ATOM     28  C   UNL     1      -2.179  10.025   0.000  0.00  0.00    +0.000 C 
ATOM     29  C   UNL     1      -1.924   9.241   0.000  0.00  0.00    +0.000 C 
ATOM     30  O   UNL     1      -3.306   7.518   0.000  0.00  0.00    +0.000 OA
ATOM     31  C   UNL     1      -2.592   7.931   0.000  0.00  0.00    +0.000 C 
ATOM     32  C   UNL     1      -3.259   9.241   0.000  0.00  0.00    +0.000 C 
ATOM     33  N   UNL     1      -2.592   8.756   0.000  0.00  0.00    +0.000 N 
BRANCH  32  35
ATOM     34  O   UNL     1      -4.215   8.179   0.000  0.00  0.00    +0.000 OA
ATOM     35  C   UNL     1      -4.044   8.986   0.000  0.00  0.00    +0.000 C 
ATOM     36  N   UNL     1      -4.657   9.538   0.000  0.00  0.00    +0.000 NA
BRANCH  36  37
ATOM     37  C   UNL     1      -4.486  10.345   0.000  0.00  0.00    +0.000 C 
BRANCH  37  39
ATOM     38  O   UNL     1      -5.883  10.642   0.000  0.00  0.00    +0.000 OA
ATOM     39  C   UNL     1      -5.099  10.897   0.000  0.00  0.00    +0.000 C 
ATOM     40  N   UNL     1      -4.927  11.704   0.000  0.00  0.00    +0.000 NA
BRANCH  40  41
ATOM     41  C   UNL     1      -5.540  12.256   0.000  0.00  0.00    +0.000 C 
BRANCH  41  43
ATOM     42  O   UNL     1      -4.584  13.318   0.000  0.00  0.00    +0.000 OA
ATOM     43  C   UNL     1      -5.369  13.063   0.000  0.00  0.00    +0.000 C 
ATOM     44  N   UNL     1      -5.982  13.615   0.000  0.00  0.00    +0.000 NA
ENDBRANCH  41  43
ENDBRANCH  40  41
ENDBRANCH  37  39
BRANCH  37  45
ATOM     45  C   UNL     1      -3.701  10.600   0.000  0.00  0.00    +0.000 C 
BRANCH  45  46
ATOM     46  C   UNL     1      -3.529  11.407   0.000  0.00  0.00    +0.000 C 
BRANCH  46  47
ATOM     47  C   UNL     1      -2.745  11.662   0.000  0.00  0.00    +0.000 C 
BRANCH  47  51
ATOM     48  C   UNL     1      -1.788  12.724   0.000  0.00  0.00    +0.000 C 
ATOM     49  N   UNL     1      -1.617  13.531   0.000  0.00  0.00    +0.000 NA
ATOM     50  N   UNL     1      -1.175  12.172   0.000  0.00  0.00    +0.000 NA
ATOM     51  N   UNL     1      -2.573  12.469   0.000  0.00  0.00    +0.000 NA
ENDBRANCH  47  51
ENDBRANCH  46  47
ENDBRANCH  45  46
ENDBRANCH  37  45
ENDBRANCH  36  37
ENDBRANCH  32  35
ENDBRANCH  13  31
BRANCH  18  52
ATOM     52  C   UNL     1       3.124   5.456   0.000  0.00  0.00    +0.000 C 
BRANCH  52  57
ATOM     53  C   UNL     1       3.838   4.218   0.000  0.00  0.00    +0.000 A 
ATOM     54  C   UNL     1       4.553   5.456   0.000  0.00  0.00    +0.000 A 
ATOM     55  C   UNL     1       4.553   3.806   0.000  0.00  0.00    +0.000 A 
ATOM     56  C   UNL     1       5.267   5.043   0.000  0.00  0.00    +0.000 A 
ATOM     57  C   UNL     1       3.838   5.043   0.000  0.00  0.00    +0.000 A 
ATOM     58  C   UNL     1       5.267   4.218   0.000  0.00  0.00    +0.000 A 
ATOM     59  O   UNL     1       5.982   3.806   0.000  0.00  0.00    +0.000 OA
ENDBRANCH  52  57
ENDBRANCH  18  52
BRANCH  17  60
ATOM     60  C   UNL     1       0.698   4.994   0.000  0.00  0.00    +0.000 C 
BRANCH  60  66
ATOM     61  C   UNL     1       0.946   6.401   0.000  0.00  0.00    +0.000 A 
ATOM     62  C   UNL     1       2.041   5.482   0.000  0.00  0.00    +0.000 A 
ATOM     63  C   UNL     1       1.477   7.033   0.000  0.00  0.00    +0.000 A 
ATOM     64  C   UNL     1       2.571   6.114   0.000  0.00  0.00    +0.000 A 
ATOM     65  C   UNL     1       2.289   6.889   0.000  0.00  0.00    +0.000 A 
ATOM     66  C   UNL     1       1.228   5.626   0.000  0.00  0.00    +0.000 A 
ENDBRANCH  60  66
ENDBRANCH  17  60
BRANCH  15  67
ATOM     67  C   UNL     1      -1.163   2.981   0.000  0.00  0.00    +0.000 C 
BRANCH  67  68
ATOM     68  C   UNL     1      -1.877   2.568   0.000  0.00  0.00    +0.000 C 
BRANCH  68  70
ATOM     69  O   UNL     1      -1.163   1.331   0.000  0.00  0.00    +0.000 OA
ATOM     70  C   UNL     1      -1.877   1.743   0.000  0.00  0.00    +0.000 C 
ATOM     71  N   UNL     1      -2.592   1.331   0.000  0.00  0.00    +0.000 NA
ENDBRANCH  68  70
ENDBRANCH  67  68
ENDBRANCH  15  67
BRANCH  14  72
ATOM     72  C   UNL     1      -3.306   5.043   0.000  0.00  0.00    +0.000 C 
BRANCH  72  74
ATOM     73  O   UNL     1      -4.021   6.281   0.000  0.00  0.00    +0.000 OA
ATOM     74  C   UNL     1      -4.021   5.456   0.000  0.00  0.00    +0.000 C 
ATOM     75  N   UNL     1      -4.735   5.043   0.000  0.00  0.00    +0.000 NA
ENDBRANCH  72  74
ENDBRANCH  14  72
TORSDOF 19
