REMARK  Name = 
REMARK  3 active torsions:
REMARK  status: ('A' for Active; 'I' for Inactive)
REMARK    1  A    between atoms: C_3  and  C_5
REMARK    2  A    between atoms: C_5  and  C_6
REMARK    3  A    between atoms: C_17  and  C_19
REMARK                            x       y       z     vdW  Elec       q    Type
REMARK                         _______ _______ _______ _____ _____    ______ ____
ROOT
ATOM      1  C   UNL     1      -2.143  -0.412   0.000  0.00  0.00    +0.000 C 
ATOM      2  C   UNL     1      -2.858   0.000   0.000  0.00  0.00    +0.000 C 
ATOM      3  O   UNL     1      -3.572  -0.412   0.000  0.00  0.00    +0.000 OA
ATOM      4  C   UNL     1      -3.572  -1.238   0.000  0.00  0.00    +0.000 A 
ATOM      5  C   UNL     1      -2.858  -1.650   0.000  0.00  0.00    +0.000 A 
ATOM      6  C   UNL     1      -2.858  -2.475   0.000  0.00  0.00    +0.000 A 
ATOM      7  C   UNL     1      -3.572  -2.888   0.000  0.00  0.00    +0.000 A 
ATOM      8  C   UNL     1      -4.287  -2.475   0.000  0.00  0.00    +0.000 A 
ATOM      9  F   UNL     1      -5.001  -2.888   0.000  0.00  0.00    +0.000 F 
ATOM     10  C   UNL     1      -4.287  -1.650   0.000  0.00  0.00    +0.000 A 
ATOM     11  N   UNL     1      -2.143  -1.238   0.000  0.00  0.00    +0.000 N 
ATOM     12  C   UNL     1      -1.429  -1.650   0.000  0.00  0.00    +0.000 C 
ATOM     13  O   UNL     1      -1.429  -2.475   0.000  0.00  0.00    +0.000 OA
ENDROOT
BRANCH  12  14
ATOM     14  C   UNL     1      -0.715  -1.238   0.000  0.00  0.00    +0.000 A 
ATOM     15  C   UNL     1       0.000  -1.650   0.000  0.00  0.00    +0.000 A 
ATOM     16  C   UNL     1       0.715  -1.238   0.000  0.00  0.00    +0.000 A 
ATOM     17  C   UNL     1       0.715  -0.412   0.000  0.00  0.00    +0.000 A 
ATOM     18  O   UNL     1       1.429   0.000   0.000  0.00  0.00    +0.000 OA
ATOM     19  C   UNL     1       2.143  -0.412   0.000  0.00  0.00    +0.000 C 
ATOM     20  C   UNL     1       2.143  -1.238   0.000  0.00  0.00    +0.000 C 
ATOM     21  O   UNL     1       2.858  -1.650   0.000  0.00  0.00    +0.000 OA
ATOM     22  N   UNL     1       1.429  -1.650   0.000  0.00  0.00    +0.000 NA
ATOM     23  C   UNL     1       0.000   0.000   0.000  0.00  0.00    +0.000 A 
ATOM     24  C   UNL     1      -0.715  -0.412   0.000  0.00  0.00    +0.000 A 
ENDBRANCH  12  14
BRANCH   1  25
ATOM     25  C   UNL     1      -1.429   0.000   0.000  0.00  0.00    +0.000 C 
BRANCH  25  28
ATOM     26  C   UNL     1      -0.715   2.062   0.000  0.00  0.00    +0.000 C 
ATOM     27  N   UNL     1      -0.715   1.238   0.000  0.00  0.00    +0.000 NA
ATOM     28  C   UNL     1      -1.429   0.825   0.000  0.00  0.00    +0.000 C 
ATOM     29  O   UNL     1      -2.143   1.238   0.000  0.00  0.00    +0.000 OA
ENDBRANCH  25  28
ENDBRANCH   1  25
TORSDOF 3
