REMARK  Name = 
REMARK  32 active torsions:
REMARK  status: ('A' for Active; 'I' for Inactive)
REMARK    1  A    between atoms: C_6  and  O_7
REMARK    2  A    between atoms: O_7  and  C_8
REMARK    3  A    between atoms: C_8  and  C_10
REMARK    4  A    between atoms: C_10  and  C_11
REMARK    5  A    between atoms: C_11  and  C_12
REMARK    6  A    between atoms: C_12  and  C_13
REMARK    7  A    between atoms: C_13  and  C_14
REMARK    8  A    between atoms: C_14  and  C_15
REMARK    9  A    between atoms: C_15  and  C_16
REMARK   10  A    between atoms: C_16  and  C_17
REMARK   11  A    between atoms: C_17  and  C_18
REMARK   12  A    between atoms: C_18  and  C_19
REMARK   13  A    between atoms: C_19  and  C_20
REMARK   14  A    between atoms: C_20  and  C_21
REMARK   15  A    between atoms: C_21  and  C_22
REMARK   16  A    between atoms: C_22  and  C_23
REMARK   17  A    between atoms: C_25  and  O_26
REMARK   18  A    between atoms: O_26  and  C_27
REMARK   19  A    between atoms: C_27  and  C_29
REMARK   20  A    between atoms: C_29  and  C_30
REMARK   21  A    between atoms: C_30  and  C_31
REMARK   22  A    between atoms: C_31  and  C_32
REMARK   23  A    between atoms: C_32  and  C_33
REMARK   24  A    between atoms: C_33  and  C_34
REMARK   25  A    between atoms: C_34  and  C_35
REMARK   26  A    between atoms: C_35  and  C_36
REMARK   27  A    between atoms: C_36  and  C_37
REMARK   28  A    between atoms: C_37  and  C_38
REMARK   29  A    between atoms: C_38  and  C_39
REMARK   30  A    between atoms: C_39  and  C_40
REMARK   31  A    between atoms: C_40  and  C_41
REMARK   32  A    between atoms: C_41  and  C_42
REMARK                            x       y       z     vdW  Elec       q    Type
REMARK                         _______ _______ _______ _____ _____    ______ ____
ROOT
ATOM      1  C   UNL     1      -3.572   0.412   0.000  0.00  0.00    +0.000 C 
ATOM      2  C   UNL     1      -2.858   0.000   0.000  0.00  0.00    +0.000 C 
ATOM      3  C   UNL     1      -2.858  -0.825   0.000  0.00  0.00    +0.000 A 
ATOM      4  C   UNL     1      -3.572  -1.238   0.000  0.00  0.00    +0.000 A 
ATOM      5  C   UNL     1      -3.572  -2.062   0.000  0.00  0.00    +0.000 A 
ATOM      6  C   UNL     1      -2.858  -2.475   0.000  0.00  0.00    +0.000 A 
ATOM      7  C   UNL     1      -2.143  -2.062   0.000  0.00  0.00    +0.000 A 
ATOM      8  C   UNL     1      -2.143  -1.238   0.000  0.00  0.00    +0.000 A 
ATOM      9  C   UNL     1      -4.287  -0.825   0.000  0.00  0.00    +0.000 A 
ATOM     10  C   UNL     1      -4.287   0.000   0.000  0.00  0.00    +0.000 A 
ATOM     11  C   UNL     1      -5.001   0.412   0.000  0.00  0.00    +0.000 A 
ATOM     12  C   UNL     1      -5.001   1.238   0.000  0.00  0.00    +0.000 C 
ATOM     13  C   UNL     1      -4.287   1.650   0.000  0.00  0.00    +0.000 C 
ATOM     14  N   UNL     1      -3.572   1.238   0.000  0.00  0.00    +0.000 NA
ATOM     15  C   UNL     1      -2.858   1.650   0.000  0.00  0.00    +0.000 C 
ATOM     16  C   UNL     1      -5.716   0.000   0.000  0.00  0.00    +0.000 A 
ATOM     17  C   UNL     1      -5.716  -0.825   0.000  0.00  0.00    +0.000 A 
ATOM     18  C   UNL     1      -5.001  -1.238   0.000  0.00  0.00    +0.000 A 
ENDROOT
BRANCH   5  19
ATOM     19  O   UNL     1      -4.287  -2.475   0.000  0.00  0.00    +0.000 OA
BRANCH  19  20
ATOM     20  C   UNL     1      -4.287  -3.300   0.000  0.00  0.00    +0.000 C 
ATOM     21  O   UNL     1      -5.001  -3.712   0.000  0.00  0.00    +0.000 OA
BRANCH  20  22
ATOM     22  C   UNL     1      -3.572  -3.712   0.000  0.00  0.00    +0.000 C 
BRANCH  22  23
ATOM     23  C   UNL     1      -3.572  -4.537   0.000  0.00  0.00    +0.000 C 
BRANCH  23  24
ATOM     24  C   UNL     1      -2.858  -4.950   0.000  0.00  0.00    +0.000 C 
BRANCH  24  25
ATOM     25  C   UNL     1      -2.858  -5.775   0.000  0.00  0.00    +0.000 C 
BRANCH  25  26
ATOM     26  C   UNL     1      -2.143  -6.188   0.000  0.00  0.00    +0.000 C 
BRANCH  26  27
ATOM     27  C   UNL     1      -2.143  -7.013   0.000  0.00  0.00    +0.000 C 
BRANCH  27  28
ATOM     28  C   UNL     1      -1.429  -7.425   0.000  0.00  0.00    +0.000 C 
BRANCH  28  29
ATOM     29  C   UNL     1      -1.429  -8.250   0.000  0.00  0.00    +0.000 C 
BRANCH  29  30
ATOM     30  C   UNL     1      -0.715  -8.662   0.000  0.00  0.00    +0.000 C 
BRANCH  30  31
ATOM     31  C   UNL     1      -0.715  -9.488   0.000  0.00  0.00    +0.000 C 
BRANCH  31  32
ATOM     32  C   UNL     1       0.000  -9.900   0.000  0.00  0.00    +0.000 C 
BRANCH  32  33
ATOM     33  C   UNL     1       0.000 -10.725   0.000  0.00  0.00    +0.000 C 
BRANCH  33  34
ATOM     34  C   UNL     1       0.715 -11.137   0.000  0.00  0.00    +0.000 C 
BRANCH  34  35
ATOM     35  C   UNL     1       0.715 -11.963   0.000  0.00  0.00    +0.000 C 
ATOM     36  C   UNL     1       1.429 -12.375   0.000  0.00  0.00    +0.000 C 
ENDBRANCH  34  35
ENDBRANCH  33  34
ENDBRANCH  32  33
ENDBRANCH  31  32
ENDBRANCH  30  31
ENDBRANCH  29  30
ENDBRANCH  28  29
ENDBRANCH  27  28
ENDBRANCH  26  27
ENDBRANCH  25  26
ENDBRANCH  24  25
ENDBRANCH  23  24
ENDBRANCH  22  23
ENDBRANCH  20  22
ENDBRANCH  19  20
ENDBRANCH   5  19
BRANCH   6  37
ATOM     37  O   UNL     1      -2.858  -3.300   0.000  0.00  0.00    +0.000 OA
BRANCH  37  38
ATOM     38  C   UNL     1      -2.143  -3.712   0.000  0.00  0.00    +0.000 C 
ATOM     39  O   UNL     1      -2.143  -4.537   0.000  0.00  0.00    +0.000 OA
BRANCH  38  40
ATOM     40  C   UNL     1      -1.429  -3.300   0.000  0.00  0.00    +0.000 C 
BRANCH  40  41
ATOM     41  C   UNL     1      -0.715  -3.712   0.000  0.00  0.00    +0.000 C 
BRANCH  41  42
ATOM     42  C   UNL     1       0.000  -3.300   0.000  0.00  0.00    +0.000 C 
BRANCH  42  43
ATOM     43  C   UNL     1       0.715  -3.712   0.000  0.00  0.00    +0.000 C 
BRANCH  43  44
ATOM     44  C   UNL     1       1.429  -3.300   0.000  0.00  0.00    +0.000 C 
BRANCH  44  45
ATOM     45  C   UNL     1       2.143  -3.712   0.000  0.00  0.00    +0.000 C 
BRANCH  45  46
ATOM     46  C   UNL     1       2.858  -3.300   0.000  0.00  0.00    +0.000 C 
BRANCH  46  47
ATOM     47  C   UNL     1       3.572  -3.712   0.000  0.00  0.00    +0.000 C 
BRANCH  47  48
ATOM     48  C   UNL     1       4.287  -3.300   0.000  0.00  0.00    +0.000 C 
BRANCH  48  49
ATOM     49  C   UNL     1       5.001  -3.712   0.000  0.00  0.00    +0.000 C 
BRANCH  49  50
ATOM     50  C   UNL     1       5.716  -3.300   0.000  0.00  0.00    +0.000 C 
BRANCH  50  51
ATOM     51  C   UNL     1       6.430  -3.712   0.000  0.00  0.00    +0.000 C 
BRANCH  51  52
ATOM     52  C   UNL     1       7.145  -3.300   0.000  0.00  0.00    +0.000 C 
BRANCH  52  53
ATOM     53  C   UNL     1       7.859  -3.712   0.000  0.00  0.00    +0.000 C 
ATOM     54  C   UNL     1       7.859  -4.537   0.000  0.00  0.00    +0.000 C 
ENDBRANCH  52  53
ENDBRANCH  51  52
ENDBRANCH  50  51
ENDBRANCH  49  50
ENDBRANCH  48  49
ENDBRANCH  47  48
ENDBRANCH  46  47
ENDBRANCH  45  46
ENDBRANCH  44  45
ENDBRANCH  43  44
ENDBRANCH  42  43
ENDBRANCH  41  42
ENDBRANCH  40  41
ENDBRANCH  38  40
ENDBRANCH  37  38
ENDBRANCH   6  37
TORSDOF 32
