REMARK  Name = 
REMARK  4 active torsions:
REMARK  status: ('A' for Active; 'I' for Inactive)
REMARK    1  A    between atoms: N_8  and  C_12
REMARK    2  A    between atoms: C_16  and  C_18
REMARK    3  A    between atoms: N_20  and  C_21
REMARK    4  A    between atoms: C_21  and  C_22
REMARK                            x       y       z     vdW  Elec       q    Type
REMARK                         _______ _______ _______ _____ _____    ______ ____
ROOT
ATOM      1  C   UNL     1      -0.881  -2.033   0.000  0.00  0.00    +0.000 A 
ATOM      2  C   UNL     1      -1.294  -2.747   0.000  0.00  0.00    +0.000 A 
ATOM      3  C   UNL     1      -2.119  -2.747   0.000  0.00  0.00    +0.000 A 
ATOM      4  C   UNL     1      -2.531  -2.033   0.000  0.00  0.00    +0.000 A 
ATOM      5  C   UNL     1      -2.119  -1.318   0.000  0.00  0.00    +0.000 A 
ATOM      6  C   UNL     1      -1.294  -1.318   0.000  0.00  0.00    +0.000 A 
ENDROOT
BRANCH   1  14
ATOM      7  N   UNL     1       3.357  -1.208   0.000  0.00  0.00    +0.000 NA
ATOM      8  C   UNL     1       2.642  -1.620   0.000  0.00  0.00    +0.000 A 
ATOM      9  N   UNL     1       2.642  -2.445   0.000  0.00  0.00    +0.000 NA
ATOM     10  C   UNL     1       1.927  -2.858   0.000  0.00  0.00    +0.000 A 
ATOM     11  O   UNL     1       1.927  -3.683   0.000  0.00  0.00    +0.000 OA
ATOM     12  C   UNL     1       1.213  -2.445   0.000  0.00  0.00    +0.000 A 
ATOM     13  N   UNL     1       0.428  -2.700   0.000  0.00  0.00    +0.000 NA
ATOM     14  N   UNL     1      -0.057  -2.033   0.000  0.00  0.00    +0.000 N 
ATOM     15  N   UNL     1       0.428  -1.365   0.000  0.00  0.00    +0.000 NA
ATOM     16  C   UNL     1       1.213  -1.620   0.000  0.00  0.00    +0.000 A 
ATOM     17  N   UNL     1       1.927  -1.208   0.000  0.00  0.00    +0.000 NA
ENDBRANCH   1  14
BRANCH   5  18
ATOM     18  C   UNL     1      -2.531  -0.604   0.000  0.00  0.00    +0.000 C 
ATOM     19  O   UNL     1      -3.357  -0.604   0.000  0.00  0.00    +0.000 OA
ATOM     20  N   UNL     1      -2.119   0.111   0.000  0.00  0.00    +0.000 NA
BRANCH  20  21
ATOM     21  C   UNL     1      -2.531   0.825   0.000  0.00  0.00    +0.000 C 
BRANCH  21  22
ATOM     22  C   UNL     1      -2.119   1.539   0.000  0.00  0.00    +0.000 A 
ATOM     23  C   UNL     1      -2.531   2.254   0.000  0.00  0.00    +0.000 A 
ATOM     24  C   UNL     1      -2.119   2.968   0.000  0.00  0.00    +0.000 A 
ATOM     25 CL   UNL     1      -2.531   3.683   0.000  0.00  0.00    +0.000 Cl
ATOM     26  C   UNL     1      -1.294   2.968   0.000  0.00  0.00    +0.000 A 
ATOM     27  C   UNL     1      -0.881   2.254   0.000  0.00  0.00    +0.000 A 
ATOM     28 CL   UNL     1      -0.057   2.254   0.000  0.00  0.00    +0.000 Cl
ATOM     29  C   UNL     1      -1.294   1.539   0.000  0.00  0.00    +0.000 A 
ENDBRANCH  21  22
ENDBRANCH  20  21
ENDBRANCH   5  18
TORSDOF 4
