REMARK  Name = 
REMARK  7 active torsions:
REMARK  status: ('A' for Active; 'I' for Inactive)
REMARK    1  A    between atoms: C_1  and  C_3
REMARK    2  A    between atoms: N_2  and  C_3
REMARK    3  A    between atoms: C_6  and  C_8
REMARK    4  A    between atoms: N_7  and  C_8
REMARK    5  A    between atoms: C_10  and  C_12
REMARK    6  A    between atoms: N_11  and  C_12
REMARK    7  A    between atoms: C_14  and  C_16
REMARK                            x       y       z     vdW  Elec       q    Type
REMARK                         _______ _______ _______ _____ _____    ______ ____
ROOT
ATOM      1  N   UNL     1       0.357   0.206   0.000  0.00  0.00    +0.000 NA
ATOM      2  C   UNL     1       1.072  -0.206   0.000  0.00  0.00    +0.000 C 
ATOM      3  O   UNL     1       1.072  -1.031   0.000  0.00  0.00    +0.000 OA
ENDROOT
BRANCH   2   4
ATOM      4  C   UNL     1       1.786   0.206   0.000  0.00  0.00    +0.000 C 
BRANCH   4   5
ATOM      5  N   UNL     1       2.501  -0.206   0.000  0.00  0.00    +0.000 NA
ATOM      6  C   UNL     1       3.215   0.206   0.000  0.00  0.00    +0.000 C 
ATOM      7  O   UNL     1       3.215   1.031   0.000  0.00  0.00    +0.000 OA
BRANCH   6   8
ATOM      8  C   UNL     1       3.930  -0.206   0.000  0.00  0.00    +0.000 C 
ATOM      9  S   UNL     1       3.930  -1.031   0.000  0.00  0.00    +0.000 S 
ENDBRANCH   6   8
ENDBRANCH   4   5
ENDBRANCH   2   4
BRANCH   1  10
ATOM     10  C   UNL     1      -0.357  -0.206   0.000  0.00  0.00    +0.000 C 
BRANCH  10  12
ATOM     11  N   UNL     1      -1.786  -0.206   0.000  0.00  0.00    +0.000 NA
ATOM     12  C   UNL     1      -1.072   0.206   0.000  0.00  0.00    +0.000 C 
ATOM     13  O   UNL     1      -1.072   1.031   0.000  0.00  0.00    +0.000 OA
BRANCH  11  14
ATOM     14  C   UNL     1      -2.501   0.206   0.000  0.00  0.00    +0.000 C 
BRANCH  14  15
ATOM     15  C   UNL     1      -3.215  -0.206   0.000  0.00  0.00    +0.000 C 
ATOM     16  O   UNL     1      -3.215  -1.031   0.000  0.00  0.00    +0.000 OA
ATOM     17  O   UNL     1      -3.930   0.206   0.000  0.00  0.00    +0.000 OA
ENDBRANCH  14  15
ENDBRANCH  11  14
ENDBRANCH  10  12
ENDBRANCH   1  10
TORSDOF 7
