REMARK  Name = 
REMARK  5 active torsions:
REMARK  status: ('A' for Active; 'I' for Inactive)
REMARK    1  A    between atoms: N_3  and  C_4
REMARK    2  A    between atoms: C_4  and  C_5
REMARK    3  A    between atoms: C_5  and  C_6
REMARK    4  A    between atoms: C_6  and  CA_7
REMARK    5  A    between atoms: CA_7  and  C_8
REMARK                            x       y       z     vdW  Elec       q    Type
REMARK                         _______ _______ _______ _____ _____    ______ ____
ROOT
ATOM      1  C   UNL     1       0.000  -0.211   0.000  0.00  0.00    +0.000 C 
ENDROOT
BRANCH   1   2
ATOM      2  C   UNL     1      -0.714   0.198   0.000  0.00  0.00    +0.000 C 
BRANCH   2   5
ATOM      3  C   UNL     1      -2.856  -0.219   0.000  0.00  0.00    +0.000 C 
ATOM      4  C   UNL     1      -2.142   0.194   0.000  0.00  0.00    +0.000 C 
ATOM      5  N   UNL     1      -1.428  -0.215   0.000  0.00  0.00    +0.000 NA
ATOM      6  N   UNL     1      -2.144   1.021   0.000  0.00  0.00    +0.000 NA
ENDBRANCH   2   5
ENDBRANCH   1   2
BRANCH   1   7
ATOM      7  C   UNL     1       0.714   0.203   0.000  0.00  0.00    +0.000 C 
BRANCH   7   8
ATOM      8  CA  UNL     1       1.428  -0.207   0.000  0.00  0.00    +0.000 C 
ATOM      9  N   UNL     1       1.430  -1.034   0.000  0.00  0.00    +0.000 NA
BRANCH   8  10
ATOM     10  C   UNL     1       2.142   0.207   0.000  0.00  0.00    +0.000 C 
ATOM     11  O   UNL     1       2.856  -0.202   0.000  0.00  0.00    +0.000 OA
ATOM     12  OXT UNL     1       2.140   1.034   0.000  0.00  0.00    +0.000 OA
ENDBRANCH   8  10
ENDBRANCH   7   8
ENDBRANCH   1   7
TORSDOF 5
