REMARK  Name = 
REMARK  8 active torsions:
REMARK  status: ('A' for Active; 'I' for Inactive)
REMARK    1  A    between atoms: C_15  and  C_17
REMARK    2  A    between atoms: C_15  and  O_39
REMARK    3  A    between atoms: C_16  and  C_24
REMARK    4  A    between atoms: C_16  and  O_38
REMARK    5  A    between atoms: C_18  and  C_26
REMARK    6  A    between atoms: C_24  and  C_29
REMARK    7  A    between atoms: C_26  and  O_38
REMARK    8  A    between atoms: N_30  and  O_39
REMARK                            x       y       z     vdW  Elec       q    Type
REMARK                         _______ _______ _______ _____ _____    ______ ____
ROOT
ATOM      1  C   UNL     1       2.597   1.586   0.000  0.00  0.00    +0.000 C 
ATOM      2  C   UNL     1       0.081   1.184   0.000  0.00  0.00    +0.000 C 
ATOM      3  C   UNL     1       2.626   3.769   0.000  0.00  0.00    +0.000 C 
ATOM      4  C   UNL     1       1.814   3.623   0.000  0.00  0.00    +0.000 C 
ATOM      5  C   UNL     1       4.221   1.877   0.000  0.00  0.00    +0.000 C 
ATOM      6  C   UNL     1       0.070   3.209   0.000  0.00  0.00    +0.000 C 
ATOM      7  C   UNL     1       3.409   1.731   0.000  0.00  0.00    +0.000 C 
ATOM      8  C   UNL     1      -0.613   2.746   0.000  0.00  0.00    +0.000 C 
ATOM      9  C   UNL     1       3.970   3.283   0.000  0.00  0.00    +0.000 C 
ATOM     10  C   UNL     1       0.973   1.296   0.000  0.00  0.00    +0.000 C 
ATOM     11  C   UNL     1       3.158   3.138   0.000  0.00  0.00    +0.000 C 
ATOM     12  C   UNL     1       4.502   2.652   0.000  0.00  0.00    +0.000 C 
ATOM     13  C   UNL     1       1.533   2.848   0.000  0.00  0.00    +0.000 C 
ATOM     14  C   UNL     1       0.721   2.702   0.000  0.00  0.00    +0.000 C 
ATOM     15  C   UNL     1       1.785   1.441   0.000  0.00  0.00    +0.000 C 
ATOM     16  C   UNL     1       2.065   2.217   0.000  0.00  0.00    +0.000 C 
ATOM     17  C   UNL     1       2.877   2.362   0.000  0.00  0.00    +0.000 C 
ATOM     18  C   UNL     1       0.441   1.926   0.000  0.00  0.00    +0.000 C 
ATOM     19  C   UNL     1      -0.384   1.953   0.000  0.00  0.00    +0.000 C 
ATOM     20  O   UNL     1       5.314   2.798   0.000  0.00  0.00    +0.000 OA
ATOM     21  O   UNL     1       2.317   0.810   0.000  0.00  0.00    +0.000 OA
ATOM     22  O   UNL     1      -0.324   1.130   0.000  0.00  0.00    +0.000 OA
ENDROOT
BRANCH  19  23
ATOM     23  C   UNL     1      -1.196   1.808   0.000  0.00  0.00    +0.000 C 
ATOM     24  O   UNL     1      -1.727   2.439   0.000  0.00  0.00    +0.000 OA
BRANCH  23  25
ATOM     25  C   UNL     1      -1.476   1.032   0.000  0.00  0.00    +0.000 C 
BRANCH  25  26
ATOM     26  O   UNL     1      -2.288   0.887   0.000  0.00  0.00    +0.000 OA
BRANCH  26  27
ATOM     27  C   UNL     1      -2.568   0.111   0.000  0.00  0.00    +0.000 C 
ATOM     28  O   UNL     1      -2.037  -0.520   0.000  0.00  0.00    +0.000 OA
BRANCH  27  34
ATOM     29  C   UNL     1      -4.724   0.451   0.000  0.00  0.00    +0.000 A 
ATOM     30  C   UNL     1      -5.005  -0.325   0.000  0.00  0.00    +0.000 A 
ATOM     31  C   UNL     1      -3.912   0.596   0.000  0.00  0.00    +0.000 A 
ATOM     32  C   UNL     1      -3.661  -0.810   0.000  0.00  0.00    +0.000 A 
ATOM     33  C   UNL     1      -4.473  -0.955   0.000  0.00  0.00    +0.000 A 
ATOM     34  C   UNL     1      -3.380  -0.034   0.000  0.00  0.00    +0.000 A 
BRANCH  33  35
ATOM     35  C   UNL     1      -4.753  -1.731   0.000  0.00  0.00    +0.000 C 
BRANCH  35  36
ATOM     36  O   UNL     1      -4.221  -2.362   0.000  0.00  0.00    +0.000 OA
BRANCH  36  37
ATOM     37  N   UNL     1      -4.502  -3.138   0.000  0.00  0.00    +0.000 N 
ATOM     38  O   UNL     1      -5.314  -3.283   0.000  0.00  0.00    +0.000 OA
ATOM     39  O   UNL     1      -3.970  -3.769   0.000  0.00  0.00    +0.000 OA
ENDBRANCH  36  37
ENDBRANCH  35  36
ENDBRANCH  33  35
ENDBRANCH  27  34
ENDBRANCH  26  27
ENDBRANCH  25  26
ENDBRANCH  23  25
ENDBRANCH  19  23
TORSDOF 8
