REMARK  Name = 
REMARK  3 active torsions:
REMARK  status: ('A' for Active; 'I' for Inactive)
REMARK    1  A    between atoms: C_9  and  C_10
REMARK    2  A    between atoms: C_9  and  C_13
REMARK    3  A    between atoms: C_12  and  N_15
REMARK                            x       y       z     vdW  Elec       q    Type
REMARK                         _______ _______ _______ _____ _____    ______ ____
ROOT
ATOM      1  C   UNL     1       2.037   2.001   0.000  0.00  0.00    +0.000 A 
ATOM      2  C   UNL     1       2.037   1.176   0.000  0.00  0.00    +0.000 A 
ATOM      3  C   UNL     1       3.466   2.001   0.000  0.00  0.00    +0.000 A 
ATOM      4  C   UNL     1       2.751   2.413   0.000  0.00  0.00    +0.000 A 
ATOM      5  C   UNL     1       3.466   1.176   0.000  0.00  0.00    +0.000 A 
ATOM      6  C   UNL     1       2.751   0.763   0.000  0.00  0.00    +0.000 A 
ATOM      7 CL   UNL     1       4.180   0.763   0.000  0.00  0.00    +0.000 Cl
ENDROOT
BRANCH   6  12
ATOM      8  C   UNL     1       2.339  -1.331   0.000  0.00  0.00    +0.000 C 
ATOM      9  C   UNL     1       3.164  -1.331   0.000  0.00  0.00    +0.000 C 
ATOM     10  C   UNL     1       2.084  -0.546   0.000  0.00  0.00    +0.000 C 
ATOM     11  C   UNL     1       3.419  -0.546   0.000  0.00  0.00    +0.000 C 
ATOM     12  N   UNL     1       2.751  -0.062   0.000  0.00  0.00    +0.000 N 
ENDBRANCH   6  12
BRANCH   4  14
ATOM     13  C   UNL     1       2.037   3.651   0.000  0.00  0.00    +0.000 C 
ATOM     14  C   UNL     1       2.751   3.238   0.000  0.00  0.00    +0.000 C 
BRANCH  14  15
ATOM     15  C   UNL     1       3.466   3.651   0.000  0.00  0.00    +0.000 C 
ATOM     16  O   UNL     1       3.466   4.476   0.000  0.00  0.00    +0.000 OA
ATOM     17  O   UNL     1       4.180   3.238   0.000  0.00  0.00    +0.000 OA
ENDBRANCH  14  15
ENDBRANCH   4  14
TORSDOF 3
