REMARK  Name = 
REMARK  8 active torsions:
REMARK  status: ('A' for Active; 'I' for Inactive)
REMARK    1  A    between atoms: C_2  and  C_4
REMARK    2  A    between atoms: C_2  and  C_6
REMARK    3  A    between atoms: C_10  and  N_21
REMARK    4  A    between atoms: N_14  and  C_15
REMARK    5  A    between atoms: C_15  and  C_16
REMARK    6  A    between atoms: C_16  and  C_17
REMARK    7  A    between atoms: C_22  and  C_24
REMARK    8  A    between atoms: C_24  and  C_27
REMARK                            x       y       z     vdW  Elec       q    Type
REMARK                         _______ _______ _______ _____ _____    ______ ____
ROOT
ATOM      1  C   UNL     1       5.720  -2.277   0.000  0.00  0.00    +0.000 A 
ATOM      2  C   UNL     1       4.979  -1.915   0.000  0.00  0.00    +0.000 A 
ATOM      3  C   UNL     1       5.093  -1.099   0.000  0.00  0.00    +0.000 A 
ATOM      4  C   UNL     1       4.563  -0.467   0.000  0.00  0.00    +0.000 A 
ATOM      5  C   UNL     1       4.845   0.309   0.000  0.00  0.00    +0.000 A 
ATOM      6  C   UNL     1       5.658   0.452   0.000  0.00  0.00    +0.000 A 
ATOM      7  C   UNL     1       6.188  -0.180   0.000  0.00  0.00    +0.000 A 
ATOM      8  C   UNL     1       5.906  -0.955   0.000  0.00  0.00    +0.000 A 
ATOM      9  N   UNL     1       6.293  -1.684   0.000  0.00  0.00    +0.000 N 
ATOM     10  F   UNL     1       5.940   1.227   0.000  0.00  0.00    +0.000 F 
ENDROOT
BRANCH   1  12
ATOM     11  C   UNL     1       6.006  -3.902   0.000  0.00  0.00    +0.000 C 
ATOM     12  C   UNL     1       5.863  -3.090   0.000  0.00  0.00    +0.000 C 
ATOM     13  C   UNL     1       5.051  -3.233   0.000  0.00  0.00    +0.000 C 
BRANCH  12  14
ATOM     14  C   UNL     1       6.676  -2.946   0.000  0.00  0.00    +0.000 C 
ATOM     15  O   UNL     1       7.206  -3.578   0.000  0.00  0.00    +0.000 OA
ENDBRANCH  12  14
ENDBRANCH   1  12
BRANCH   5  16
ATOM     16  N   UNL     1       4.315   0.941   0.000  0.00  0.00    +0.000 NA
ATOM     17  C   UNL     1       4.597   1.716   0.000  0.00  0.00    +0.000 C 
ATOM     18  O   UNL     1       5.410   1.859   0.000  0.00  0.00    +0.000 OA
BRANCH  17  19
ATOM     19  C   UNL     1       4.067   2.348   0.000  0.00  0.00    +0.000 C 
ATOM     20  C   UNL     1       3.785   3.123   0.000  0.00  0.00    +0.000 C 
ATOM     21  C   UNL     1       4.597   2.980   0.000  0.00  0.00    +0.000 C 
BRANCH  19  22
ATOM     22  C   UNL     1       3.352   1.935   0.000  0.00  0.00    +0.000 A 
ATOM     23  C   UNL     1       3.352   1.110   0.000  0.00  0.00    +0.000 A 
ATOM     24  C   UNL     1       2.638   0.698   0.000  0.00  0.00    +0.000 A 
ATOM     25  C   UNL     1       1.923   1.110   0.000  0.00  0.00    +0.000 A 
ATOM     26  C   UNL     1       1.923   1.935   0.000  0.00  0.00    +0.000 A 
ATOM     27  C   UNL     1       2.638   2.348   0.000  0.00  0.00    +0.000 A 
ATOM     28  O   UNL     1       1.139   2.190   0.000  0.00  0.00    +0.000 OA
ATOM     29  C   UNL     1       0.654   1.523   0.000  0.00  0.00    +0.000 C 
ATOM     30  O   UNL     1       1.139   0.856   0.000  0.00  0.00    +0.000 OA
ATOM     31  F   UNL     1      -0.065   1.928   0.000  0.00  0.00    +0.000 F 
ATOM     32  F   UNL     1      -0.065   1.118   0.000  0.00  0.00    +0.000 F 
ENDBRANCH  19  22
ENDBRANCH  17  19
ENDBRANCH   5  16
BRANCH   9  33
ATOM     33  C   UNL     1       7.110  -1.798   0.000  0.00  0.00    +0.000 C 
BRANCH  33  34
ATOM     34  C   UNL     1       7.618  -1.148   0.000  0.00  0.00    +0.000 C 
ATOM     35  O   UNL     1       7.309  -0.384   0.000  0.00  0.00    +0.000 OA
BRANCH  34  36
ATOM     36  C   UNL     1       8.435  -1.263   0.000  0.00  0.00    +0.000 C 
ATOM     37  O   UNL     1       8.744  -2.028   0.000  0.00  0.00    +0.000 OA
ENDBRANCH  34  36
ENDBRANCH  33  34
ENDBRANCH   9  33
TORSDOF 8
