REMARK  Name = 
REMARK  5 active torsions:
REMARK  status: ('A' for Active; 'I' for Inactive)
REMARK    1  A    between atoms: C_15  and  C_17
REMARK    2  A    between atoms: N_18  and  C_22
REMARK    3  A    between atoms: C_22  and  C_40
REMARK    4  A    between atoms: C_27  and  C_38
REMARK    5  A    between atoms: C_38  and  C_39
REMARK                            x       y       z     vdW  Elec       q    Type
REMARK                         _______ _______ _______ _____ _____    ______ ____
ROOT
ATOM      1  C   UNL     1      -0.762   0.422   0.000  0.00  0.00    +0.000 C 
ATOM      2  C   UNL     1      -1.257   1.089   0.000  0.00  0.00    +0.000 C 
ATOM      3  O   UNL     1      -1.245  -0.250   0.000  0.00  0.00    +0.000 OA
ATOM      4  C   UNL     1      -2.034  -0.002   0.000  0.00  0.00    +0.000 C 
ATOM      5  N   UNL     1      -2.037   0.821   0.000  0.00  0.00    +0.000 N 
ATOM      6  C   UNL     1      -2.747   1.227   0.000  0.00  0.00    +0.000 C 
ATOM      7  C   UNL     1      -3.459   0.815   0.000  0.00  0.00    +0.000 C 
ATOM      8  C   UNL     1      -2.740  -0.418   0.000  0.00  0.00    +0.000 C 
ATOM      9  N   UNL     1      -3.457  -0.009   0.000  0.00  0.00    +0.000 N 
ATOM     10  C   UNL     1      -4.067  -0.565   0.000  0.00  0.00    +0.000 C 
ATOM     11  C   UNL     1      -3.728  -1.316   0.000  0.00  0.00    +0.000 C 
ATOM     12  C   UNL     1      -2.908  -1.226   0.000  0.00  0.00    +0.000 C 
ATOM     13  O   UNL     1      -2.029  -0.833   0.000  0.00  0.00    +0.000 OA
ATOM     14  O   UNL     1      -1.012   1.879   0.000  0.00  0.00    +0.000 OA
ATOM     15  O   UNL     1      -4.176   1.227   0.000  0.00  0.00    +0.000 OA
ENDROOT
BRANCH   1  17
ATOM     16  C   UNL     1       0.777   0.831   0.000  0.00  0.00    +0.000 C 
ATOM     17  N   UNL     1       0.059   0.419   0.000  0.00  0.00    +0.000 NA
ATOM     18  O   UNL     1       0.779   1.658   0.000  0.00  0.00    +0.000 OA
BRANCH  16  33
ATOM     19  C   UNL     1       1.488  -2.052   0.000  0.00  0.00    +0.000 A 
ATOM     20  C   UNL     1       1.485  -2.877   0.000  0.00  0.00    +0.000 A 
ATOM     21  C   UNL     1       2.203  -3.291   0.000  0.00  0.00    +0.000 A 
ATOM     22  C   UNL     1       2.916  -2.880   0.000  0.00  0.00    +0.000 A 
ATOM     23  N   UNL     1       3.745  -3.042   0.000  0.00  0.00    +0.000 NA
ATOM     24  C   UNL     1       4.182  -2.282   0.000  0.00  0.00    +0.000 A 
ATOM     25  C   UNL     1       3.626  -1.653   0.000  0.00  0.00    +0.000 A 
ATOM     26  C   UNL     1       2.203  -1.643   0.000  0.00  0.00    +0.000 A 
ATOM     27  C   UNL     1       2.916  -2.059   0.000  0.00  0.00    +0.000 A 
ATOM     28  C   UNL     1       3.635  -0.827   0.000  0.00  0.00    +0.000 C 
ATOM     29  C   UNL     1       2.203  -0.820   0.000  0.00  0.00    +0.000 C 
ATOM     30  C   UNL     1       2.918  -0.408   0.000  0.00  0.00    +0.000 C 
ATOM     31  N   UNL     1       2.919   0.412   0.000  0.00  0.00    +0.000 NA
ATOM     32  C   UNL     1       2.207   0.827   0.000  0.00  0.00    +0.000 C 
ATOM     33  C   UNL     1       1.492   0.415   0.000  0.00  0.00    +0.000 C 
ATOM     34  C   UNL     1       1.489  -0.411   0.000  0.00  0.00    +0.000 C 
ATOM     35  C   UNL     1       3.636   0.824   0.000  0.00  0.00    +0.000 C 
ENDBRANCH  16  33
ENDBRANCH   1  17
BRANCH   1  36
ATOM     36  C   UNL     1      -0.344  -0.293   0.000  0.00  0.00    +0.000 C 
ATOM     37  C   UNL     1      -0.753  -1.010   0.000  0.00  0.00    +0.000 C 
ATOM     38  C   UNL     1       0.481  -0.290   0.000  0.00  0.00    +0.000 C 
ENDBRANCH   1  36
BRANCH   6  39
ATOM     39  C   UNL     1      -2.750   2.054   0.000  0.00  0.00    +0.000 C 
BRANCH  39  40
ATOM     40  C   UNL     1      -3.467   2.466   0.000  0.00  0.00    +0.000 C 
ATOM     41  C   UNL     1      -3.467   3.291   0.000  0.00  0.00    +0.000 C 
ATOM     42  C   UNL     1      -4.182   2.053   0.000  0.00  0.00    +0.000 C 
ENDBRANCH  39  40
ENDBRANCH   6  39
TORSDOF 5
