REMARK  Name = 
REMARK  2 active torsions:
REMARK  status: ('A' for Active; 'I' for Inactive)
REMARK    1  A    between atoms: C_2  and  C_3
REMARK    2  A    between atoms: C_8  and  C_9
REMARK                            x       y       z     vdW  Elec       q    Type
REMARK                         _______ _______ _______ _____ _____    ______ ____
ROOT
ATOM      1  C   UNL     1       1.296  -0.408   0.000  0.00  0.00    +0.000 C 
ATOM      2  C   UNL     1       0.471  -0.408   0.000  0.00  0.00    +0.000 C 
ATOM      3  O   UNL     1       0.059  -1.123   0.000  0.00  0.00    +0.000 OA
ENDROOT
BRANCH   2   4
ATOM      4  C   UNL     1       0.059   0.306   0.000  0.00  0.00    +0.000 C 
ATOM      5  O   UNL     1       0.471   1.021   0.000  0.00  0.00    +0.000 OA
ATOM      6  O   UNL     1      -0.766   0.306   0.000  0.00  0.00    +0.000 OA
ENDBRANCH   2   4
TORSDOF 1
REMARK  Name = 
REMARK  2 active torsions:
REMARK  status: ('A' for Active; 'I' for Inactive)
REMARK    1  A    between atoms: C_2  and  C_3
REMARK    2  A    between atoms: C_8  and  C_9
REMARK                            x       y       z     vdW  Elec       q    Type
REMARK                         _______ _______ _______ _____ _____    ______ ____
ROOT
ATOM      1  C   UNL     1       4.361   1.072   0.000  0.00  0.00    +0.000 C 
ATOM      2  C   UNL     1       4.773   0.357   0.000  0.00  0.00    +0.000 C 
ATOM      3  O   UNL     1       5.598   0.357   0.000  0.00  0.00    +0.000 OA
ENDROOT
BRANCH   2   4
ATOM      4  C   UNL     1       4.361  -0.357   0.000  0.00  0.00    +0.000 C 
ATOM      5  O   UNL     1       4.773  -1.072   0.000  0.00  0.00    +0.000 OA
ATOM      6  O   UNL     1       3.536  -0.357   0.000  0.00  0.00    +0.000 OA
ENDBRANCH   2   4
TORSDOF 1
REMARK  Name = 
REMARK  2 active torsions:
REMARK  status: ('A' for Active; 'I' for Inactive)
REMARK    1  A    between atoms: C_2  and  C_3
REMARK    2  A    between atoms: C_8  and  C_9
REMARK                            x       y       z     vdW  Elec       q    Type
REMARK                         _______ _______ _______ _____ _____    ______ ____
ROOT
ATOM      1 CA   UNL     1      -1.591   0.306   0.000  0.00  0.00    +0.000 Ca
ENDROOT
TORSDOF 0
