REMARK  Name = 
REMARK  3 active torsions:
REMARK  status: ('A' for Active; 'I' for Inactive)
REMARK    1  A    between atoms: N_4  and  C_10
REMARK    2  A    between atoms: C_13  and  C_15
REMARK    3  A    between atoms: C_13  and  C_17
REMARK                            x       y       z     vdW  Elec       q    Type
REMARK                         _______ _______ _______ _____ _____    ______ ____
ROOT
ATOM      1  C   UNL     1      -0.611  -1.822   0.000  0.00  0.00    +0.000 C 
ATOM      2  C   UNL     1      -0.275  -1.068   0.000  0.00  0.00    +0.000 A 
ATOM      3  C   UNL     1      -0.760  -0.401   0.000  0.00  0.00    +0.000 A 
ATOM      4  N   UNL     1      -0.425   0.353   0.000  0.00  0.00    +0.000 N 
ATOM      5  C   UNL     1       0.396   0.439   0.000  0.00  0.00    +0.000 A 
ATOM      6  O   UNL     1       0.731   1.193   0.000  0.00  0.00    +0.000 OA
ATOM      7  N   UNL     1       0.881  -0.228   0.000  0.00  0.00    +0.000 NA
ATOM      8  C   UNL     1       0.545  -0.982   0.000  0.00  0.00    +0.000 A 
ATOM      9  O   UNL     1       1.030  -1.649   0.000  0.00  0.00    +0.000 OA
ENDROOT
BRANCH   4  10
ATOM     10  C   UNL     1      -0.910   1.021   0.000  0.00  0.00    +0.000 C 
ATOM     11  C   UNL     1      -1.735   1.021   0.000  0.00  0.00    +0.000 C 
ATOM     12  C   UNL     1      -1.990   1.805   0.000  0.00  0.00    +0.000 C 
ATOM     13  C   UNL     1      -1.322   2.290   0.000  0.00  0.00    +0.000 C 
ATOM     14  O   UNL     1      -0.655   1.805   0.000  0.00  0.00    +0.000 OA
BRANCH  13  15
ATOM     15  C   UNL     1      -1.727   3.009   0.000  0.00  0.00    +0.000 C 
ATOM     16  O   UNL     1      -2.552   3.018   0.000  0.00  0.00    +0.000 OA
ENDBRANCH  13  15
BRANCH  13  17
ATOM     17  C   UNL     1      -0.917   3.009   0.000  0.00  0.00    +0.000 C 
ATOM     18  C   UNL     1      -0.512   3.728   0.000  0.00  0.00    +0.000 C 
ENDBRANCH  13  17
ENDBRANCH   4  10
TORSDOF 3
