REMARK  Name = 
REMARK  7 active torsions:
REMARK  status: ('A' for Active; 'I' for Inactive)
REMARK    1  A    between atoms: C_2  and  C_5
REMARK    2  A    between atoms: C_2  and  C_12
REMARK    3  A    between atoms: C_5  and  C_20
REMARK    4  A    between atoms: C_12  and  N_27
REMARK    5  A    between atoms: C_16  and  C_20
REMARK    6  A    between atoms: C_17  and  C_21
REMARK    7  A    between atoms: C_18  and  C_22
REMARK                            x       y       z     vdW  Elec       q    Type
REMARK                         _______ _______ _______ _____ _____    ______ ____
ROOT
ATOM      1  C   UNL     1       7.145  -0.825   0.000  0.00  0.00    +0.000 C 
ATOM      2  C   UNL     1       6.430  -2.062   0.000  0.00  0.00    +0.000 C 
ATOM      3  C   UNL     1       6.430  -0.412   0.000  0.00  0.00    +0.000 C 
ATOM      4  C   UNL     1       5.716  -1.650   0.000  0.00  0.00    +0.000 C 
ATOM      5  C   UNL     1       7.145  -1.650   0.000  0.00  0.00    +0.000 C 
ATOM      6  N   UNL     1       5.716  -0.825   0.000  0.00  0.00    +0.000 NA
ATOM      7  O   UNL     1       7.582  -2.350   0.000  0.00  0.00    +0.000 OA
ENDROOT
BRANCH   5  12
ATOM      8  C   UNL     1       9.231  -1.008   0.000  0.00  0.00    +0.000 A 
ATOM      9  C   UNL     1       8.406  -0.979   0.000  0.00  0.00    +0.000 A 
ATOM     10  C   UNL     1       9.618  -1.736   0.000  0.00  0.00    +0.000 A 
ATOM     11  C   UNL     1       8.357  -2.407   0.000  0.00  0.00    +0.000 A 
ATOM     12  C   UNL     1       7.969  -1.679   0.000  0.00  0.00    +0.000 A 
ATOM     13  C   UNL     1       9.181  -2.436   0.000  0.00  0.00    +0.000 A 
BRANCH  13  14
ATOM     14  C   UNL     1       9.568  -3.164   0.000  0.00  0.00    +0.000 C 
ATOM     15  F   UNL     1       9.956  -3.893   0.000  0.00  0.00    +0.000 F 
ATOM     16  F   UNL     1       8.840  -3.552   0.000  0.00  0.00    +0.000 F 
ATOM     17  F   UNL     1      10.297  -2.777   0.000  0.00  0.00    +0.000 F 
ENDBRANCH  13  14
ENDBRANCH   5  12
BRANCH   6  18
ATOM     18  C   UNL     1       5.001  -0.412   0.000  0.00  0.00    +0.000 C 
BRANCH  18  19
ATOM     19  C   UNL     1       4.287  -0.825   0.000  0.00  0.00    +0.000 C 
BRANCH  19  20
ATOM     20  C   UNL     1       3.572  -0.412   0.000  0.00  0.00    +0.000 C 
BRANCH  20  21
ATOM     21  C   UNL     1       2.858  -0.825   0.000  0.00  0.00    +0.000 C 
ATOM     22  O   UNL     1       2.858  -1.650   0.000  0.00  0.00    +0.000 OA
BRANCH  21  27
ATOM     23  C   UNL     1       2.143   0.412   0.000  0.00  0.00    +0.000 A 
ATOM     24  C   UNL     1       1.429  -0.825   0.000  0.00  0.00    +0.000 A 
ATOM     25  C   UNL     1       1.429   0.825   0.000  0.00  0.00    +0.000 A 
ATOM     26  C   UNL     1       0.715  -0.412   0.000  0.00  0.00    +0.000 A 
ATOM     27  C   UNL     1       2.143  -0.412   0.000  0.00  0.00    +0.000 A 
ATOM     28  C   UNL     1       0.715   0.412   0.000  0.00  0.00    +0.000 A 
ATOM     29  F   UNL     1       0.000   0.825   0.000  0.00  0.00    +0.000 F 
ENDBRANCH  21  27
ENDBRANCH  20  21
ENDBRANCH  19  20
ENDBRANCH  18  19
ENDBRANCH   6  18
TORSDOF 7
