REMARK  Name = 
REMARK  6 active torsions:
REMARK  status: ('A' for Active; 'I' for Inactive)
REMARK    1  A    between atoms: C_8  and  C_21
REMARK    2  A    between atoms: C_9  and  N_12
REMARK    3  A    between atoms: N_12  and  C_13
REMARK    4  A    between atoms: N_23  and  O_24
REMARK    5  A    between atoms: O_24  and  C_25
REMARK    6  A    between atoms: C_25  and  C_26
REMARK                            x       y       z     vdW  Elec       q    Type
REMARK                         _______ _______ _______ _____ _____    ______ ____
ROOT
ATOM      1  C   UNL     1      -0.334   5.133   0.000  0.00  0.00    +0.000 C 
ATOM      2  N   UNL     1      -0.886   4.519   0.000  0.00  0.00    +0.000 N 
ATOM      3  C   UNL     1      -1.706   4.606   0.000  0.00  0.00    +0.000 A 
ATOM      4  N   UNL     1      -2.042   3.852   0.000  0.00  0.00    +0.000 NA
ATOM      5  C   UNL     1      -1.429   3.300   0.000  0.00  0.00    +0.000 A 
ATOM      6  C   UNL     1      -0.715   3.712   0.000  0.00  0.00    +0.000 A 
ATOM      7  C   UNL     1       0.000   3.300   0.000  0.00  0.00    +0.000 A 
ATOM      8  C   UNL     1       0.000   2.475   0.000  0.00  0.00    +0.000 A 
ATOM      9  C   UNL     1      -0.715   2.062   0.000  0.00  0.00    +0.000 A 
ATOM     10  C   UNL     1      -1.429   2.475   0.000  0.00  0.00    +0.000 A 
ATOM     11  F   UNL     1      -2.143   2.062   0.000  0.00  0.00    +0.000 F 
ENDROOT
BRANCH   8  12
ATOM     12  C   UNL     1       0.715   2.062   0.000  0.00  0.00    +0.000 C 
ATOM     13  O   UNL     1       0.715   1.238   0.000  0.00  0.00    +0.000 OA
ATOM     14  N   UNL     1       1.429   2.475   0.000  0.00  0.00    +0.000 NA
BRANCH  14  15
ATOM     15  O   UNL     1       2.143   2.062   0.000  0.00  0.00    +0.000 OA
BRANCH  15  16
ATOM     16  C   UNL     1       2.858   2.475   0.000  0.00  0.00    +0.000 C 
BRANCH  16  17
ATOM     17  C   UNL     1       3.572   2.062   0.000  0.00  0.00    +0.000 C 
ATOM     18  O   UNL     1       4.287   2.475   0.000  0.00  0.00    +0.000 OA
ENDBRANCH  16  17
ENDBRANCH  15  16
ENDBRANCH  14  15
ENDBRANCH   8  12
BRANCH   9  19
ATOM     19  N   UNL     1      -0.715   1.238   0.000  0.00  0.00    +0.000 NA
BRANCH  19  20
ATOM     20  C   UNL     1      -1.429   0.825   0.000  0.00  0.00    +0.000 A 
ATOM     21  C   UNL     1      -2.143   1.238   0.000  0.00  0.00    +0.000 A 
ATOM     22  C   UNL     1      -2.858   0.825   0.000  0.00  0.00    +0.000 A 
ATOM     23  C   UNL     1      -2.858   0.000   0.000  0.00  0.00    +0.000 A 
ATOM     24  C   UNL     1      -2.143  -0.412   0.000  0.00  0.00    +0.000 A 
ATOM     25  C   UNL     1      -1.429   0.000   0.000  0.00  0.00    +0.000 A 
ATOM     26  F   UNL     1      -0.715  -0.412   0.000  0.00  0.00    +0.000 F 
ATOM     27 BR   UNL     1      -3.572  -0.412   0.000  0.00  0.00    +0.000 Br
ENDBRANCH  19  20
ENDBRANCH   9  19
TORSDOF 6
