REMARK  Name = 
REMARK  5 active torsions:
REMARK  status: ('A' for Active; 'I' for Inactive)
REMARK    1  A    between atoms: C_7  and  N_12
REMARK    2  A    between atoms: C_7  and  S_19
REMARK    3  A    between atoms: O_15  and  P_17
REMARK    4  A    between atoms: O_16  and  P_17
REMARK    5  A    between atoms: P_17  and  S_19
REMARK                            x       y       z     vdW  Elec       q    Type
REMARK                         _______ _______ _______ _____ _____    ______ ____
ROOT
ATOM      1  C   UNL     1       3.352   1.110   0.000  0.00  0.00    +0.000 A 
ATOM      2  C   UNL     1       3.352   1.935   0.000  0.00  0.00    +0.000 A 
ATOM      3  C   UNL     1       2.638   0.698   0.000  0.00  0.00    +0.000 A 
ATOM      4  C   UNL     1       2.638   2.348   0.000  0.00  0.00    +0.000 A 
ATOM      5  C   UNL     1       1.923   1.110   0.000  0.00  0.00    +0.000 A 
ATOM      6  C   UNL     1       1.923   1.935   0.000  0.00  0.00    +0.000 A 
ATOM      7  C   UNL     1       1.139   0.856   0.000  0.00  0.00    +0.000 C 
ATOM      8  C   UNL     1       1.139   2.190   0.000  0.00  0.00    +0.000 C 
ATOM      9  N   UNL     1       0.654   1.523   0.000  0.00  0.00    +0.000 N 
ATOM     10  O   UNL     1       0.884   0.071   0.000  0.00  0.00    +0.000 OA
ATOM     11  O   UNL     1       0.884   2.975   0.000  0.00  0.00    +0.000 OA
ENDROOT
BRANCH   9  12
ATOM     12  C   UNL     1      -0.171   1.523   0.000  0.00  0.00    +0.000 C 
BRANCH  12  13
ATOM     13  S   UNL     1      -0.584   2.237   0.000  0.00  0.00    +0.000 S 
BRANCH  13  14
ATOM     14  P   UNL     1      -1.409   2.237   0.000  0.00  0.00    +0.000 P 
ATOM     15  S   UNL     1      -2.234   2.237   0.000  0.00  0.00    +0.000 S 
BRANCH  14  17
ATOM     16  C   UNL     1      -2.123   1.000   0.000  0.00  0.00    +0.000 C 
ATOM     17  O   UNL     1      -1.409   1.412   0.000  0.00  0.00    +0.000 OA
ENDBRANCH  14  17
BRANCH  14  19
ATOM     18  C   UNL     1      -0.694   3.475   0.000  0.00  0.00    +0.000 C 
ATOM     19  O   UNL     1      -1.409   3.062   0.000  0.00  0.00    +0.000 OA
ENDBRANCH  14  19
ENDBRANCH  13  14
ENDBRANCH  12  13
ENDBRANCH   9  12
TORSDOF 5
