REMARK  Name = 
REMARK  7 active torsions:
REMARK  status: ('A' for Active; 'I' for Inactive)
REMARK    1  A    between atoms: O_2  and  C_3
REMARK    2  A    between atoms: C_4  and  O_5
REMARK    3  A    between atoms: C_9  and  O_10
REMARK    4  A    between atoms: O_10  and  C_11
REMARK    5  A    between atoms: C_15  and  N_16
REMARK    6  A    between atoms: C_23  and  C_25
REMARK    7  A    between atoms: C_25  and  C_28
REMARK                            x       y       z     vdW  Elec       q    Type
REMARK                         _______ _______ _______ _____ _____    ______ ____
ROOT
ATOM      1  C   UNL     1       3.572   1.238   0.000  0.00  0.00    +0.000 A 
ATOM      2  C   UNL     1       3.572   2.062   0.000  0.00  0.00    +0.000 A 
ATOM      3  C   UNL     1       4.287   2.475   0.000  0.00  0.00    +0.000 A 
ATOM      4  C   UNL     1       5.001   2.062   0.000  0.00  0.00    +0.000 A 
ATOM      5  C   UNL     1       5.001   1.238   0.000  0.00  0.00    +0.000 A 
ATOM      6  C   UNL     1       4.287   0.825   0.000  0.00  0.00    +0.000 A 
ENDROOT
BRANCH   5   7
ATOM      7  N   UNL     1       5.716   0.825   0.000  0.00  0.00    +0.000 NA
ATOM      8  C   UNL     1       6.430   1.238   0.000  0.00  0.00    +0.000 C 
ATOM      9  O   UNL     1       6.430   2.062   0.000  0.00  0.00    +0.000 OA
ATOM     10  N   UNL     1       7.145   0.825   0.000  0.00  0.00    +0.000 NA
ATOM     11  C   UNL     1       7.859   1.238   0.000  0.00  0.00    +0.000 A 
ATOM     12  N   UNL     1       7.945   2.058   0.000  0.00  0.00    +0.000 NA
ATOM     13  O   UNL     1       8.752   2.229   0.000  0.00  0.00    +0.000 OA
ATOM     14  C   UNL     1       9.165   1.515   0.000  0.00  0.00    +0.000 A 
ATOM     15  C   UNL     1       8.613   0.902   0.000  0.00  0.00    +0.000 A 
BRANCH  14  16
ATOM     16  C   UNL     1       9.985   1.429   0.000  0.00  0.00    +0.000 C 
ATOM     17  C   UNL     1       9.899   0.608   0.000  0.00  0.00    +0.000 C 
ATOM     18  C   UNL     1      10.072   2.249   0.000  0.00  0.00    +0.000 C 
BRANCH  16  19
ATOM     19  C   UNL     1      10.806   1.343   0.000  0.00  0.00    +0.000 C 
ATOM     20  F   UNL     1      11.626   1.256   0.000  0.00  0.00    +0.000 F 
ATOM     21  F   UNL     1      10.720   0.522   0.000  0.00  0.00    +0.000 F 
ATOM     22  F   UNL     1      10.892   2.163   0.000  0.00  0.00    +0.000 F 
ENDBRANCH  16  19
ENDBRANCH  14  16
ENDBRANCH   5   7
BRANCH   1  23
ATOM     23  O   UNL     1       2.858   0.825   0.000  0.00  0.00    +0.000 OA
BRANCH  23  28
ATOM     24  C   UNL     1       0.715  -1.238   0.000  0.00  0.00    +0.000 A 
ATOM     25  C   UNL     1       0.715  -0.412   0.000  0.00  0.00    +0.000 A 
ATOM     26  C   UNL     1       1.429   0.000   0.000  0.00  0.00    +0.000 A 
ATOM     27  C   UNL     1       2.143  -0.412   0.000  0.00  0.00    +0.000 A 
ATOM     28  C   UNL     1       2.858   0.000   0.000  0.00  0.00    +0.000 A 
ATOM     29  N   UNL     1       3.572  -0.412   0.000  0.00  0.00    +0.000 NA
ATOM     30  C   UNL     1       3.572  -1.238   0.000  0.00  0.00    +0.000 A 
ATOM     31  N   UNL     1       2.858  -1.650   0.000  0.00  0.00    +0.000 NA
ATOM     32  C   UNL     1       2.143  -1.238   0.000  0.00  0.00    +0.000 A 
ATOM     33  C   UNL     1       1.429  -1.650   0.000  0.00  0.00    +0.000 A 
BRANCH  25  34
ATOM     34  O   UNL     1       0.000   0.000   0.000  0.00  0.00    +0.000 OA
ATOM     35  C   UNL     1       0.000   0.825   0.000  0.00  0.00    +0.000 C 
ENDBRANCH  25  34
BRANCH  24  37
ATOM     36  C   UNL     1       0.000  -2.475   0.000  0.00  0.00    +0.000 C 
ATOM     37  O   UNL     1       0.000  -1.650   0.000  0.00  0.00    +0.000 OA
ENDBRANCH  24  37
ENDBRANCH  23  28
ENDBRANCH   1  23
TORSDOF 7
