REMARK  Name = 
REMARK  9 active torsions:
REMARK  status: ('A' for Active; 'I' for Inactive)
REMARK    1  A    between atoms: CB_5  and  CG_6
REMARK    2  A    between atoms: CB_5  and  CA_12
REMARK    3  A    between atoms: CG_6  and  CD_13
REMARK    4  A    between atoms: C_7  and  C_11
REMARK    5  A    between atoms: C_7  and  N_21
REMARK    6  A    between atoms: C_9  and  C_16
REMARK    7  A    between atoms: C_10  and  N_21
REMARK    8  A    between atoms: CA_12  and  C_18
REMARK    9  A    between atoms: CA_12  and  N_24
REMARK                            x       y       z     vdW  Elec       q    Type
REMARK                         _______ _______ _______ _____ _____    ______ ____
ROOT
ATOM      1  C   UNK A   0       0.357  -2.062   0.000  0.00  0.00    +0.000 A 
ATOM      2  C   UNK A   0      -0.357  -0.825   0.000  0.00  0.00    +0.000 A 
ATOM      3  C   UNK A   0       1.072  -1.650   0.000  0.00  0.00    +0.000 A 
ATOM      4  C   UNK A   0       0.357  -0.412   0.000  0.00  0.00    +0.000 A 
ATOM      5  C   UNK A   0      -0.357  -1.650   0.000  0.00  0.00    +0.000 A 
ATOM      6  C   UNK A   0       1.072  -0.825   0.000  0.00  0.00    +0.000 A 
ENDROOT
BRANCH   5   7
ATOM      7  C   UNK A   0      -1.072  -2.062   0.000  0.00  0.00    +0.000 C 
ATOM      8  N   GLU A   1      -1.786  -1.650   0.000  0.00  0.00    +0.000 NA
ATOM      9  O   UNK A   0      -1.072  -2.888   0.000  0.00  0.00    +0.000 OA
BRANCH   8  10
ATOM     10  CA  GLU A   1      -2.501  -2.062   0.000  0.00  0.00    +0.000 C 
BRANCH  10  11
ATOM     11  C   GLU A   1      -2.501  -2.888   0.000  0.00  0.00    +0.000 C 
ATOM     12  O   GLU A   1      -1.786  -3.300   0.000  0.00  0.00    +0.000 OA
ATOM     13  OXT GLU A   1      -3.215  -3.300   0.000  0.00  0.00    +0.000 OA
ENDBRANCH  10  11
BRANCH  10  14
ATOM     14  CB  GLU A   1      -3.215  -1.650   0.000  0.00  0.00    +0.000 C 
BRANCH  14  15
ATOM     15  CG  GLU A   1      -3.929  -2.062   0.000  0.00  0.00    +0.000 C 
BRANCH  15  16
ATOM     16  CD  GLU A   1      -4.644  -1.650   0.000  0.00  0.00    +0.000 C 
ATOM     17  OE1 GLU A   1      -5.359  -2.062   0.000  0.00  0.00    +0.000 OA
ATOM     18  OE2 GLU A   1      -4.644  -0.825   0.000  0.00  0.00    +0.000 OA
ENDBRANCH  15  16
ENDBRANCH  14  15
ENDBRANCH  10  14
ENDBRANCH   8  10
ENDBRANCH   5   7
BRANCH   6  19
ATOM     19  N   UNK A   0       1.786  -0.412   0.000  0.00  0.00    +0.000 NA
BRANCH  19  20
ATOM     20  C   UNK A   0       1.786   0.412   0.000  0.00  0.00    +0.000 C 
BRANCH  20  22
ATOM     21  C   UNK A   0       3.215   0.412   0.000  0.00  0.00    +0.000 C 
ATOM     22  C   UNK A   0       2.501   0.825   0.000  0.00  0.00    +0.000 C 
ATOM     23  C   UNK A   0       3.215   2.062   0.000  0.00  0.00    +0.000 A 
ATOM     24  C   UNK A   0       3.929   1.650   0.000  0.00  0.00    +0.000 A 
ATOM     25  C   UNK A   0       3.215   2.888   0.000  0.00  0.00    +0.000 A 
ATOM     26  C   UNK A   0       4.644   2.888   0.000  0.00  0.00    +0.000 A 
ATOM     27  N   UNK A   0       5.359   3.300   0.000  0.00  0.00    +0.000 NA
ATOM     28  N   UNK A   0       3.929   0.825   0.000  0.00  0.00    +0.000 NA
ATOM     29  N   UNK A   0       2.501   1.650   0.000  0.00  0.00    +0.000 NA
ATOM     30  N   UNK A   0       4.644   2.062   0.000  0.00  0.00    +0.000 NA
ATOM     31  N   UNK A   0       3.929   3.300   0.000  0.00  0.00    +0.000 NA
ATOM     32  O   UNK A   0       2.501   3.300   0.000  0.00  0.00    +0.000 OA
ENDBRANCH  20  22
ENDBRANCH  19  20
ENDBRANCH   6  19
TORSDOF 9
