REMARK  Name = 
REMARK  6 active torsions:
REMARK  status: ('A' for Active; 'I' for Inactive)
REMARK    1  A    between atoms: C_3  and  C_7
REMARK    2  A    between atoms: C_13  and  O_14
REMARK    3  A    between atoms: O_14  and  C_15
REMARK    4  A    between atoms: C_19  and  S_23
REMARK    5  A    between atoms: S_23  and  N_26
REMARK    6  A    between atoms: N_26  and  C_27
REMARK                            x       y       z     vdW  Elec       q    Type
REMARK                         _______ _______ _______ _____ _____    ______ ____
ROOT
ATOM      1  C   UNL     1       1.289  -0.601   0.000  0.00  0.00    +0.000 A 
ATOM      2  C   UNL     1       0.676  -0.049   0.000  0.00  0.00    +0.000 A 
ATOM      3  C   UNL     1       0.847   0.758   0.000  0.00  0.00    +0.000 A 
ATOM      4  F   UNL     1       0.234   1.310   0.000  0.00  0.00    +0.000 F 
ATOM      5  C   UNL     1       1.632   1.013   0.000  0.00  0.00    +0.000 A 
ATOM      6  C   UNL     1       2.245   0.461   0.000  0.00  0.00    +0.000 A 
ATOM      7  C   UNL     1       2.073  -0.346   0.000  0.00  0.00    +0.000 A 
ATOM      8 CL   UNL     1       2.686  -0.898   0.000  0.00  0.00    +0.000 Cl
ENDROOT
BRANCH   5   9
ATOM      9  S   UNL     1       1.803   1.820   0.000  0.00  0.00    +0.000 S 
ATOM     10  O   UNL     1       2.610   1.649   0.000  0.00  0.00    +0.000 OA
ATOM     11  O   UNL     1       0.996   1.992   0.000  0.00  0.00    +0.000 OA
BRANCH   9  12
ATOM     12  N   UNL     1       1.975   2.627   0.000  0.00  0.00    +0.000 NA
BRANCH  12  13
ATOM     13  C   UNL     1       2.760   2.882   0.000  0.00  0.00    +0.000 A 
ATOM     14  C   UNL     1       3.014   3.667   0.000  0.00  0.00    +0.000 A 
ATOM     15  S   UNL     1       3.839   3.667   0.000  0.00  0.00    +0.000 S 
ATOM     16  C   UNL     1       4.094   2.882   0.000  0.00  0.00    +0.000 A 
ATOM     17  N   UNL     1       3.427   2.397   0.000  0.00  0.00    +0.000 NA
ENDBRANCH  12  13
ENDBRANCH   9  12
ENDBRANCH   5   9
BRANCH   1  18
ATOM     18  O   UNL     1       1.117  -1.408   0.000  0.00  0.00    +0.000 OA
BRANCH  18  25
ATOM     19  C   UNL     1       1.559  -2.767   0.000  0.00  0.00    +0.000 A 
ATOM     20  C   UNL     1       2.172  -3.319   0.000  0.00  0.00    +0.000 A 
ATOM     21  C   UNL     1       2.957  -3.064   0.000  0.00  0.00    +0.000 A 
ATOM     22 CL   UNL     1       3.570  -3.616   0.000  0.00  0.00    +0.000 Cl
ATOM     23  C   UNL     1       3.128  -2.257   0.000  0.00  0.00    +0.000 A 
ATOM     24  C   UNL     1       2.515  -1.705   0.000  0.00  0.00    +0.000 A 
ATOM     25  C   UNL     1       1.730  -1.960   0.000  0.00  0.00    +0.000 A 
BRANCH  19  28
ATOM     26  N   UNL     1       0.107  -1.712   0.000  0.00  0.00    +0.000 NA
ATOM     27  C   UNL     1       0.107  -2.537   0.000  0.00  0.00    +0.000 A 
ATOM     28  C   UNL     1       0.774  -3.022   0.000  0.00  0.00    +0.000 A 
ATOM     29  C   UNL     1       0.519  -3.806   0.000  0.00  0.00    +0.000 A 
ATOM     30  N   UNL     1      -0.306  -3.806   0.000  0.00  0.00    +0.000 NA
ATOM     31  N   UNL     1      -0.561  -3.022   0.000  0.00  0.00    +0.000 NA
ENDBRANCH  19  28
ENDBRANCH  18  25
ENDBRANCH   1  18
TORSDOF 6
