REMARK  Name = 
REMARK  3 active torsions:
REMARK  status: ('A' for Active; 'I' for Inactive)
REMARK    1  A    between atoms: C_5  and  C_8
REMARK    2  A    between atoms: C_8  and  C_10
REMARK    3  A    between atoms: C_17  and  C_19
REMARK                            x       y       z     vdW  Elec       q    Type
REMARK                         _______ _______ _______ _____ _____    ______ ____
ROOT
ATOM      1  C   UNL     1       5.537  -8.766   0.000  0.00  0.00    +0.000 A 
ATOM      2  C   UNL     1       5.537  -9.591   0.000  0.00  0.00    +0.000 A 
ATOM      3  C   UNL     1       4.823 -10.003   0.000  0.00  0.00    +0.000 A 
ATOM      4  C   UNL     1       4.108  -9.591   0.000  0.00  0.00    +0.000 A 
ATOM      5  C   UNL     1       4.108  -8.766   0.000  0.00  0.00    +0.000 A 
ATOM      6  N   UNL     1       4.823  -8.353   0.000  0.00  0.00    +0.000 NA
ATOM      7  N   UNL     1       3.394  -8.353   0.000  0.00  0.00    +0.000 NA
ATOM      8  C   UNL     1       2.679  -8.766   0.000  0.00  0.00    +0.000 C 
ATOM      9  O   UNL     1       2.679  -9.591   0.000  0.00  0.00    +0.000 OA
ENDROOT
BRANCH   8  10
ATOM     10  C   UNL     1       1.965  -8.353   0.000  0.00  0.00    +0.000 A 
ATOM     11  C   UNL     1       1.250  -8.766   0.000  0.00  0.00    +0.000 A 
ATOM     12  C   UNL     1       0.536  -8.353   0.000  0.00  0.00    +0.000 A 
ATOM     13  C   UNL     1       0.536  -7.528   0.000  0.00  0.00    +0.000 A 
ATOM     14  C   UNL     1       1.250  -7.116   0.000  0.00  0.00    +0.000 A 
ATOM     15  C   UNL     1       1.965  -7.528   0.000  0.00  0.00    +0.000 A 
ATOM     16  F   UNL     1       2.679  -7.116   0.000  0.00  0.00    +0.000 F 
ATOM     17  F   UNL     1      -0.179  -7.116   0.000  0.00  0.00    +0.000 F 
ATOM     18  F   UNL     1       1.250  -9.591   0.000  0.00  0.00    +0.000 F 
ENDBRANCH   8  10
BRANCH   1  19
ATOM     19  C   UNL     1       6.252  -8.353   0.000  0.00  0.00    +0.000 C 
ATOM     20  O   UNL     1       6.252  -7.528   0.000  0.00  0.00    +0.000 OA
BRANCH  19  25
ATOM     21  C   UNL     1       9.109 -10.003   0.000  0.00  0.00    +0.000 C 
ATOM     22  N   UNL     1       8.395  -9.591   0.000  0.00  0.00    +0.000 NA
ATOM     23  C   UNL     1       7.681 -10.003   0.000  0.00  0.00    +0.000 C 
ATOM     24  C   UNL     1       6.966  -9.591   0.000  0.00  0.00    +0.000 C 
ATOM     25  C   UNL     1       6.966  -8.766   0.000  0.00  0.00    +0.000 C 
ATOM     26  C   UNL     1       7.681  -8.353   0.000  0.00  0.00    +0.000 C 
ATOM     27  C   UNL     1       8.395  -8.766   0.000  0.00  0.00    +0.000 C 
ENDBRANCH  19  25
ENDBRANCH   1  19
TORSDOF 3
