REMARK  Name = 
REMARK  8 active torsions:
REMARK  status: ('A' for Active; 'I' for Inactive)
REMARK    1  A    between atoms: N_5  and  CA_9
REMARK    2  A    between atoms: CB_7  and  CG_8
REMARK    3  A    between atoms: CB_7  and  CA_9
REMARK    4  A    between atoms: CA_9  and  C_17
REMARK    5  A    between atoms: C_10  and  C_11
REMARK    6  A    between atoms: C_10  and  C_12
REMARK    7  A    between atoms: C_11  and  C_13
REMARK    8  A    between atoms: C_12  and  C_16
REMARK                            x       y       z     vdW  Elec       q    Type
REMARK                         _______ _______ _______ _____ _____    ______ ____
ROOT
ATOM      1  O   UNL     1      -0.353   1.242   0.000  0.00  0.00    +0.000 OA
ATOM      2  C   UNL     1      -0.353   0.416   0.000  0.00  0.00    +0.000 C 
ENDROOT
BRANCH   2   5
ATOM      3  O   UNL     1       0.361  -0.825   0.000  0.00  0.00    +0.000 OA
ATOM      4  N   UNL     1       1.077   0.408   0.000  0.00  0.00    +0.000 NA
ATOM      5  C   ACE A   0       0.361   0.000   0.000  0.00  0.00    +0.000 C 
BRANCH   4   6
ATOM      6  CA  UNL     1       1.784   0.000   0.000  0.00  0.00    +0.000 C 
BRANCH   6   9
ATOM      7  O   UNL     1       1.069  -1.234   0.000  0.00  0.00    +0.000 OA
ATOM      8  OXT UNL     1       2.499  -1.242   0.000  0.00  0.00    +0.000 OA
ATOM      9  C   UNL     1       1.784  -0.825   0.000  0.00  0.00    +0.000 C 
ENDBRANCH   6   9
BRANCH   6  10
ATOM     10  CB  UNL     1       2.499   0.408   0.000  0.00  0.00    +0.000 C 
BRANCH  10  11
ATOM     11  CG  UNL     1       3.214  -0.008   0.000  0.00  0.00    +0.000 C 
ATOM     12  CD1 UNL     1       3.929   0.401   0.000  0.00  0.00    +0.000 C 
ATOM     13  CD2 UNL     1       3.214  -0.833   0.000  0.00  0.00    +0.000 C 
ENDBRANCH  10  11
ENDBRANCH   6  10
ENDBRANCH   4   6
ENDBRANCH   2   5
BRANCH   2  15
ATOM     14  N   UNL     1      -1.069  -0.817   0.000  0.00  0.00    +0.000 NA
ATOM     15  C   UNL     1      -1.069   0.008   0.000  0.00  0.00    +0.000 C 
BRANCH  15  16
ATOM     16  C   UNL     1      -1.784   0.416   0.000  0.00  0.00    +0.000 C 
BRANCH  16  17
ATOM     17  C   UNL     1      -2.499   0.008   0.000  0.00  0.00    +0.000 A 
ATOM     18  C   UNL     1      -2.499  -0.817   0.000  0.00  0.00    +0.000 A 
ATOM     19  C   UNL     1      -3.214   0.432   0.000  0.00  0.00    +0.000 A 
ATOM     20  C   UNL     1      -3.214  -1.226   0.000  0.00  0.00    +0.000 A 
ATOM     21  C   UNL     1      -3.929   0.008   0.000  0.00  0.00    +0.000 A 
ATOM     22  C   UNL     1      -3.929  -0.817   0.000  0.00  0.00    +0.000 A 
ENDBRANCH  16  17
ENDBRANCH  15  16
ENDBRANCH   2  15
TORSDOF 8
