REMARK  Name = 
REMARK  2 active torsions:
REMARK  status: ('A' for Active; 'I' for Inactive)
REMARK    1  A    between atoms: C_21  and  C_23
REMARK    2  A    between atoms: C_23  and  C_25
REMARK                            x       y       z     vdW  Elec       q    Type
REMARK                         _______ _______ _______ _____ _____    ______ ____
ROOT
ATOM      1  C   UNL     1      -2.906  -2.086   0.000  0.00  0.00    +0.000 C 
ATOM      2  C   UNL     1      -2.742  -1.279   0.000  0.00  0.00    +0.000 C 
ATOM      3  O   UNL     1      -2.752  -0.455   0.000  0.00  0.00    +0.000 OA
ATOM      4  C   UNL     1      -1.968  -0.196   0.000  0.00  0.00    +0.000 C 
ATOM      5  C   UNL     1      -1.488   0.480   0.000  0.00  0.00    +0.000 C 
ATOM      6  C   UNL     1      -0.705   0.235   0.000  0.00  0.00    +0.000 C 
ATOM      7  C   UNL     1       0.007   0.651   0.000  0.00  0.00    +0.000 C 
ATOM      8  C   UNL     1      -0.003   1.475   0.000  0.00  0.00    +0.000 C 
ATOM      9  C   UNL     1       0.704   1.896   0.000  0.00  0.00    +0.000 C 
ATOM     10  C   UNL     1       1.426   1.489   0.000  0.00  0.00    +0.000 C 
ATOM     11  C   UNL     1       2.133   1.911   0.000  0.00  0.00    +0.000 C 
ATOM     12  C   UNL     1       2.855   1.504   0.000  0.00  0.00    +0.000 C 
ATOM     13  O   UNL     1       3.567   1.925   0.000  0.00  0.00    +0.000 OA
ATOM     14  C   UNL     1       2.861   0.682   0.000  0.00  0.00    +0.000 C 
ATOM     15  C   UNL     1       2.154   0.261   0.000  0.00  0.00    +0.000 C 
ATOM     16  C   UNL     1       1.432   0.664   0.000  0.00  0.00    +0.000 C 
ATOM     17  C   UNL     1       0.720   0.247   0.000  0.00  0.00    +0.000 C 
ATOM     18  C   UNL     1       0.735  -0.577   0.000  0.00  0.00    +0.000 C 
ATOM     19  C   UNL     1       0.023  -0.994   0.000  0.00  0.00    +0.000 C 
ATOM     20  C   UNL     1      -0.699  -0.591   0.000  0.00  0.00    +0.000 C 
ATOM     21  C   UNL     1      -1.479  -0.855   0.000  0.00  0.00    +0.000 C 
ATOM     22  O   UNL     1      -1.955  -1.524   0.000  0.00  0.00    +0.000 OA
ATOM     23  C   UNL     1      -0.627  -1.415   0.000  0.00  0.00    +0.000 C 
ATOM     24 CL   UNL     1       1.265  -1.205   0.000  0.00  0.00    +0.000 Cl
ATOM     25 CL   UNL     1       1.877  -0.401   0.000  0.00  0.00    +0.000 Cl
ATOM     26  F   UNL     1       0.698   2.722   0.000  0.00  0.00    +0.000 F 
ATOM     27  C   UNL     1      -3.567  -1.202   0.000  0.00  0.00    +0.000 C 
ATOM     28  C   UNL     1       0.678   1.101   0.000  0.00  0.00    +0.000 C 
ENDROOT
BRANCH  21  29
ATOM     29  C   UNL     1      -0.887  -2.033   0.000  0.00  0.00    +0.000 C 
ATOM     30  O   UNL     1      -0.064  -2.082   0.000  0.00  0.00    +0.000 OA
BRANCH  29  31
ATOM     31  C   UNL     1      -1.344  -2.722   0.000  0.00  0.00    +0.000 C 
ATOM     32  O   UNL     1      -2.167  -2.674   0.000  0.00  0.00    +0.000 OA
ENDBRANCH  29  31
ENDBRANCH  21  29
TORSDOF 2
