REMARK  Name = 
REMARK  6 active torsions:
REMARK  status: ('A' for Active; 'I' for Inactive)
REMARK    1  A    between atoms: C_1  and  C_9
REMARK    2  A    between atoms: C_2  and  C_17
REMARK    3  A    between atoms: C_9  and  N_33
REMARK    4  A    between atoms: C_16  and  C_24
REMARK    5  A    between atoms: C_16  and  N_34
REMARK    6  A    between atoms: C_20  and  C_25
REMARK                            x       y       z     vdW  Elec       q    Type
REMARK                         _______ _______ _______ _____ _____    ______ ____
ROOT
ATOM      1  C   UNL     1      -1.427  -1.054   0.000  0.00  0.00    +0.000 A 
ATOM      2  C   UNL     1      -2.135  -1.479   0.000  0.00  0.00    +0.000 A 
ATOM      3  C   UNL     1      -4.848  -1.114   0.000  0.00  0.00    +0.000 C 
ATOM      4  C   UNL     1      -4.862  -0.289   0.000  0.00  0.00    +0.000 C 
ATOM      5  C   UNL     1      -2.159  -0.063   0.000  0.00  0.00    +0.000 A 
ATOM      6  C   UNL     1      -3.429  -1.673   0.000  0.00  0.00    +0.000 C 
ATOM      7  C   UNL     1      -3.464   0.319   0.000  0.00  0.00    +0.000 C 
ATOM      8  C   UNL     1      -3.549  -0.011   0.000  0.00  0.00    +0.000 C 
ATOM      9  C   UNL     1      -1.442  -0.230   0.000  0.00  0.00    +0.000 A 
ATOM     10  C   UNL     1      -3.089  -1.083   0.000  0.00  0.00    +0.000 A 
ATOM     11  C   UNL     1      -3.104  -0.259   0.000  0.00  0.00    +0.000 A 
ATOM     12  C   UNL     1      -4.254  -1.687   0.000  0.00  0.00    +0.000 C 
ATOM     13  C   UNL     1      -4.289   0.304   0.000  0.00  0.00    +0.000 C 
ATOM     14  C   UNL     1      -4.022  -0.687   0.000  0.00  0.00    +0.000 C 
ATOM     15  N   UNL     1      -3.526  -1.346   0.000  0.00  0.00    +0.000 NA
ATOM     16  N   UNL     1      -2.760  -0.253   0.000  0.00  0.00    +0.000 NA
ATOM     17  O   UNL     1      -2.664  -2.030   0.000  0.00  0.00    +0.000 OA
ATOM     18  O   UNL     1      -1.951  -0.945   0.000  0.00  0.00    +0.000 OA
ATOM     19  S   UNL     1      -2.746  -1.077   0.000  0.00  0.00    +0.000 S 
ENDROOT
BRANCH   9  21
ATOM     20  C   UNL     1       0.274  -0.084   0.000  0.00  0.00    +0.000 C 
ATOM     21  C   UNL     1      -0.547   0.086   0.000  0.00  0.00    +0.000 C 
BRANCH  20  22
ATOM     22  C   UNL     1       0.822   0.533   0.000  0.00  0.00    +0.000 C 
BRANCH  22  28
ATOM     23  C   UNL     1       2.986   0.816   0.000  0.00  0.00    +0.000 C 
ATOM     24  C   UNL     1       2.698  -0.584   0.000  0.00  0.00    +0.000 C 
ATOM     25  C   UNL     1       2.178   0.983   0.000  0.00  0.00    +0.000 C 
ATOM     26  C   UNL     1       1.890  -0.417   0.000  0.00  0.00    +0.000 C 
ATOM     27  C   UNL     1       3.246   0.033   0.000  0.00  0.00    +0.000 C 
ATOM     28  N   UNL     1       1.630   0.366   0.000  0.00  0.00    +0.000 NA
BRANCH  27  29
ATOM     29  C   UNL     1       4.054  -0.134   0.000  0.00  0.00    +0.000 C 
ATOM     30  F   UNL     1       4.862  -0.300   0.000  0.00  0.00    +0.000 F 
ATOM     31  F   UNL     1       3.887  -0.942   0.000  0.00  0.00    +0.000 F 
ATOM     32  F   UNL     1       4.221   0.674   0.000  0.00  0.00    +0.000 F 
ENDBRANCH  27  29
ENDBRANCH  22  28
ENDBRANCH  20  22
ENDBRANCH   9  21
BRANCH  16  33
ATOM     33  C   UNL     1      -2.460   0.716   0.000  0.00  0.00    +0.000 C 
BRANCH  33  34
ATOM     34  C   UNL     1      -2.544   1.633   0.000  0.00  0.00    +0.000 C 
ATOM     35  F   UNL     1      -2.619   2.455   0.000  0.00  0.00    +0.000 F 
ATOM     36  F   UNL     1      -3.365   1.558   0.000  0.00  0.00    +0.000 F 
ATOM     37  F   UNL     1      -1.722   1.708   0.000  0.00  0.00    +0.000 F 
ENDBRANCH  33  34
ENDBRANCH  16  33
TORSDOF 6
