REMARK  Name = 
REMARK  1 active torsions:
REMARK  status: ('A' for Active; 'I' for Inactive)
REMARK    1  A    between atoms: CA_11  and  C_16
REMARK                            x       y       z     vdW  Elec       q    Type
REMARK                         _______ _______ _______ _____ _____    ______ ____
ROOT
ATOM      1 CL   UNL     1       1.072  -1.650   0.000  0.00  0.00    +0.000 Cl
ATOM      2 CL   UNL     1       2.501   0.825   0.000  0.00  0.00    +0.000 Cl
ATOM      3  O   UNL     1      -0.357  -1.650   0.000  0.00  0.00    +0.000 OA
ATOM      4  N   UNL     1      -0.357   0.825   0.000  0.00  0.00    +0.000 NA
ATOM      5  C   UNL     1       0.357  -0.412   0.000  0.00  0.00    +0.000 A 
ATOM      6  C   UNL     1       0.357   0.412   0.000  0.00  0.00    +0.000 A 
ATOM      7  C   UNL     1      -0.357  -0.825   0.000  0.00  0.00    +0.000 A 
ATOM      8  C   UNL     1       1.072  -0.825   0.000  0.00  0.00    +0.000 A 
ATOM      9  CA  UNL     1      -1.072   0.412   0.000  0.00  0.00    +0.000 A 
ATOM     10  C   UNL     1      -1.072  -0.412   0.000  0.00  0.00    +0.000 A 
ATOM     11  C   UNL     1       1.072   0.825   0.000  0.00  0.00    +0.000 A 
ATOM     12  C   UNL     1       1.786   0.412   0.000  0.00  0.00    +0.000 A 
ATOM     13  C   UNL     1       1.786  -0.412   0.000  0.00  0.00    +0.000 A 
ENDROOT
BRANCH   9  16
ATOM     14  O   UNL     1      -2.501   0.412   0.000  0.00  0.00    +0.000 OA
ATOM     15  OXT UNL     1      -1.786   1.650   0.000  0.00  0.00    +0.000 OA
ATOM     16  C   UNL     1      -1.786   0.825   0.000  0.00  0.00    +0.000 C 
ENDBRANCH   9  16
TORSDOF 1
