REMARK  Name = 
REMARK  2 active torsions:
REMARK  status: ('A' for Active; 'I' for Inactive)
REMARK    1  A    between atoms: C_3  and  C_6
REMARK    2  A    between atoms: C_7  and  C_8
REMARK                            x       y       z     vdW  Elec       q    Type
REMARK                         _______ _______ _______ _____ _____    ______ ____
ROOT
ATOM      1  C   UNL     1       1.429  -1.650   0.000  0.00  0.00    +0.000 C 
ATOM      2  C   UNL     1       0.715  -1.238   0.000  0.00  0.00    +0.000 C 
ENDROOT
BRANCH   2   3
ATOM      3  C   UNL     1       0.715  -0.412   0.000  0.00  0.00    +0.000 A 
ATOM      4  C   UNL     1       0.000   0.000   0.000  0.00  0.00    +0.000 A 
ATOM      5  N   UNL     1       0.000   0.825   0.000  0.00  0.00    +0.000 NA
ATOM      6  C   UNL     1       0.715   1.238   0.000  0.00  0.00    +0.000 A 
ATOM      7  N   UNL     1       1.429   0.825   0.000  0.00  0.00    +0.000 NA
ATOM      8  C   UNL     1       1.429   0.000   0.000  0.00  0.00    +0.000 A 
ENDBRANCH   2   3
BRANCH   1  11
ATOM      9  C   UNL     1       1.016  -3.744   0.000  0.00  0.00    +0.000 C 
ATOM     10  C   UNL     1       0.761  -2.960   0.000  0.00  0.00    +0.000 C 
ATOM     11  C   UNL     1       1.429  -2.475   0.000  0.00  0.00    +0.000 C 
ATOM     12  C   UNL     1       2.096  -2.960   0.000  0.00  0.00    +0.000 C 
ATOM     13  N   UNL     1       1.841  -3.744   0.000  0.00  0.00    +0.000 NA
ENDBRANCH   1  11
TORSDOF 2
