REMARK  Name = 
REMARK  4 active torsions:
REMARK  status: ('A' for Active; 'I' for Inactive)
REMARK    1  A    between atoms: N_10  and  C_11
REMARK    2  A    between atoms: C_13  and  C_14
REMARK    3  A    between atoms: C_14  and  O_15
REMARK    4  A    between atoms: O_15  and  W_16
REMARK                            x       y       z     vdW  Elec       q    Type
REMARK                         _______ _______ _______ _____ _____    ______ ____
ROOT
ATOM      1  C   UNL     1      -0.429   0.392   0.000  0.00  0.00    +0.000 C 
ATOM      2  O   UNL     1       0.051  -0.274   0.000  0.00  0.00    +0.000 OA
ATOM      3  C   UNL     1      -0.429  -0.939   0.000  0.00  0.00    +0.000 C 
ATOM      4  C   UNL     1      -1.212  -0.686   0.000  0.00  0.00    +0.000 C 
ATOM      5  O   UNL     1      -1.886  -1.175   0.000  0.00  0.00    +0.000 OA
ATOM      6  C   UNL     1      -1.212   0.139   0.000  0.00  0.00    +0.000 C 
ATOM      7  O   UNL     1      -1.886   0.619   0.000  0.00  0.00    +0.000 OA
ENDROOT
BRANCH   1  17
ATOM      8  N   UNL     1       1.322   3.490   0.000  0.00  0.00    +0.000 N 
ATOM      9  C   UNL     1       1.322   2.665   0.000  0.00  0.00    +0.000 A 
ATOM     10  N   UNL     1       2.038   2.252   0.000  0.00  0.00    +0.000 NA
ATOM     11  C   UNL     1       2.038   1.427   0.000  0.00  0.00    +0.000 A 
ATOM     12  N   UNL     1       1.322   1.014   0.000  0.00  0.00    +0.000 NA
ATOM     13  C   UNL     1       0.606   1.427   0.000  0.00  0.00    +0.000 A 
ATOM     14  C   UNL     1       0.606   2.252   0.000  0.00  0.00    +0.000 A 
ATOM     15  N   UNL     1      -0.177   2.505   0.000  0.00  0.00    +0.000 NA
ATOM     16  C   UNL     1      -0.665   1.840   0.000  0.00  0.00    +0.000 A 
ATOM     17  N   UNL     1      -0.177   1.175   0.000  0.00  0.00    +0.000 N 
ATOM     18  H   UNL     1       2.038   3.903   0.000  0.00  0.00    +0.000 HD
ATOM     19  H   UNL     1       0.606   3.903   0.000  0.00  0.00    +0.000 HD
ENDBRANCH   1  17
BRANCH   3  20
ATOM     20  C   UNL     1      -0.177  -1.722   0.000  0.00  0.00    +0.000 C 
BRANCH  20  21
ATOM     21  O   UNL     1      -0.733  -2.337   0.000  0.00  0.00    +0.000 OA
BRANCH  21  22
ATOM     22  W   UNL     1      -0.471  -3.120   0.000  0.00  0.00    +0.000 W 
ATOM     23  O   UNL     1      -0.219  -3.903   0.000  0.00  0.00    +0.000 OA
ATOM     24  O   UNL     1      -1.255  -3.372   0.000  0.00  0.00    +0.000 OA
ATOM     25  O   UNL     1       0.311  -2.867   0.000  0.00  0.00    +0.000 OA
ENDBRANCH  21  22
ENDBRANCH  20  21
ENDBRANCH   3  20
TORSDOF 4
