REMARK  Name = 
REMARK  4 active torsions:
REMARK  status: ('A' for Active; 'I' for Inactive)
REMARK    1  A    between atoms: C_5  and  C_16
REMARK    2  A    between atoms: C_16  and  C_20
REMARK    3  A    between atoms: C_19  and  O_22
REMARK    4  A    between atoms: C_20  and  O_22
REMARK                            x       y       z     vdW  Elec       q    Type
REMARK                         _______ _______ _______ _____ _____    ______ ____
ROOT
ATOM      1  C   UNL     1      -1.826  -0.748   0.000  0.00  0.00    +0.000 C 
ATOM      2  C   UNL     1       0.330   0.476   0.000  0.00  0.00    +0.000 C 
ATOM      3  C   UNL     1      -1.826  -1.569   0.000  0.00  0.00    +0.000 C 
ATOM      4  C   UNL     1       0.316  -0.345   0.000  0.00  0.00    +0.000 C 
ATOM      5  C   UNL     1       1.117   0.724   0.000  0.00  0.00    +0.000 C 
ATOM      6  C   UNL     1      -0.398  -0.753   0.000  0.00  0.00    +0.000 C 
ATOM      7  C   UNL     1      -1.112  -0.330   0.000  0.00  0.00    +0.000 C 
ATOM      8  C   UNL     1      -2.541  -0.330   0.000  0.00  0.00    +0.000 C 
ATOM      9  C   UNL     1      -0.384   0.899   0.000  0.00  0.00    +0.000 C 
ATOM     10  C   UNL     1      -1.103   0.491   0.000  0.00  0.00    +0.000 C 
ATOM     11  C   UNL     1       1.593   0.053   0.000  0.00  0.00    +0.000 C 
ATOM     12  C   UNL     1       1.103  -0.607   0.000  0.00  0.00    +0.000 C 
ATOM     13  C   UNL     1      -0.398  -1.579   0.000  0.00  0.00    +0.000 C 
ATOM     14  C   UNL     1      -1.112  -1.987   0.000  0.00  0.00    +0.000 C 
ATOM     15  C   UNL     1      -2.541  -1.987   0.000  0.00  0.00    +0.000 C 
ATOM     16  C   UNL     1      -3.245  -0.748   0.000  0.00  0.00    +0.000 C 
ATOM     17  C   UNL     1      -3.245  -1.569   0.000  0.00  0.00    +0.000 C 
ATOM     18  O   UNL     1      -3.969  -1.977   0.000  0.00  0.00    +0.000 OA
ATOM     19  O   UNL     1       1.831   1.141   0.000  0.00  0.00    +0.000 OA
ATOM     20  C   UNL     1      -1.826   0.078   0.000  0.00  0.00    +0.000 C 
ATOM     21  C   UNL     1       0.325   1.302   0.000  0.00  0.00    +0.000 C 
ATOM     22  F   UNL     1      -1.117  -2.808   0.000  0.00  0.00    +0.000 F 
ATOM     23  O   UNL     1      -1.817   0.908   0.000  0.00  0.00    +0.000 OA
ATOM     24  C   UNL     1       2.414   0.049   0.000  0.00  0.00    +0.000 C 
ENDROOT
BRANCH   5  25
ATOM     25  C   UNL     1       1.112   1.550   0.000  0.00  0.00    +0.000 C 
ATOM     26  O   UNL     1       0.389   1.958   0.000  0.00  0.00    +0.000 OA
BRANCH  25  27
ATOM     27  C   UNL     1       1.817   1.972   0.000  0.00  0.00    +0.000 C 
BRANCH  27  28
ATOM     28  O   UNL     1       2.541   1.564   0.000  0.00  0.00    +0.000 OA
BRANCH  28  29
ATOM     29  C   UNL     1       3.255   1.987   0.000  0.00  0.00    +0.000 C 
ATOM     30  O   UNL     1       3.245   2.808   0.000  0.00  0.00    +0.000 OA
ATOM     31  C   UNL     1       3.969   1.579   0.000  0.00  0.00    +0.000 C 
ENDBRANCH  28  29
ENDBRANCH  27  28
ENDBRANCH  25  27
ENDBRANCH   5  25
TORSDOF 4
