REMARK  Name = 
REMARK  9 active torsions:
REMARK  status: ('A' for Active; 'I' for Inactive)
REMARK    1  A    between atoms: CA_3  and  N_11
REMARK    2  A    between atoms: C_5  and  S_21
REMARK    3  A    between atoms: CA_6  and  C_20
REMARK    4  A    between atoms: C_12  and  C_14
REMARK    5  A    between atoms: C_15  and  C_26
REMARK    6  A    between atoms: C_16  and  CA_18
REMARK    7  A    between atoms: N_17  and  CA_18
REMARK    8  A    between atoms: CA_18  and  C_27
REMARK    9  A    between atoms: S_21  and  C_26
REMARK                            x       y       z     vdW  Elec       q    Type
REMARK                         _______ _______ _______ _____ _____    ______ ____
ROOT
ATOM      1  N   UNL     1      -0.351  -0.206   0.000  0.00  0.00    +0.000 NA
ATOM      2  C   UNL     1      -1.065  -0.619   0.000  0.00  0.00    +0.000 C 
ATOM      3  O   UNL     1      -1.065  -1.444   0.000  0.00  0.00    +0.000 OA
ENDROOT
BRANCH   1   6
ATOM      4  N   UNL     1       1.188  -1.444   0.000  0.00  0.00    +0.000 N 
ATOM      5  C   UNL     1       0.363  -1.444   0.000  0.00  0.00    +0.000 C 
ATOM      6  CA  UNL     1       0.363  -0.619   0.000  0.00  0.00    +0.000 C 
ATOM      7  C   UNL     1       1.188  -0.619   0.000  0.00  0.00    +0.000 C 
ATOM      8  CA  UNL     1       1.903  -1.856   0.000  0.00  0.00    +0.000 C 
ATOM      9  S   UNL     1       1.903  -0.206   0.000  0.00  0.00    +0.000 S 
ATOM     10  C   UNL     1       2.618  -1.444   0.000  0.00  0.00    +0.000 C 
ATOM     11  C   UNL     1       2.618  -0.619   0.000  0.00  0.00    +0.000 C 
ATOM     12  O   UNL     1      -0.209  -2.017   0.000  0.00  0.00    +0.000 OA
BRANCH   8  13
ATOM     13  C   UNL     1       1.903  -2.681   0.000  0.00  0.00    +0.000 C 
ATOM     14  O   UNL     1       2.618  -3.094   0.000  0.00  0.00    +0.000 OA
ATOM     15  OXT UNL     1       1.188  -3.094   0.000  0.00  0.00    +0.000 OA
ENDBRANCH   8  13
BRANCH  10  16
ATOM     16  C   UNL     1       3.332  -1.856   0.000  0.00  0.00    +0.000 C 
BRANCH  16  17
ATOM     17  S   UNL     1       4.046  -1.444   0.000  0.00  0.00    +0.000 S 
BRANCH  17  18
ATOM     18  C   UNL     1       4.761  -1.856   0.000  0.00  0.00    +0.000 A 
ATOM     19  N   UNL     1       5.515  -1.521   0.000  0.00  0.00    +0.000 N 
ATOM     20  N   UNL     1       4.847  -2.677   0.000  0.00  0.00    +0.000 NA
ATOM     21  N   UNL     1       5.654  -2.848   0.000  0.00  0.00    +0.000 NA
ATOM     22  N   UNL     1       6.067  -2.134   0.000  0.00  0.00    +0.000 NA
ATOM     23  C   UNL     1       5.686  -0.714   0.000  0.00  0.00    +0.000 C 
ENDBRANCH  17  18
ENDBRANCH  16  17
ENDBRANCH  10  16
ENDBRANCH   1   6
BRANCH   2  24
ATOM     24  CA  UNL     1      -1.780  -0.206   0.000  0.00  0.00    +0.000 C 
BRANCH  24  25
ATOM     25  C   UNL     1      -1.780   0.619   0.000  0.00  0.00    +0.000 A 
ATOM     26  C   UNL     1      -1.065   1.031   0.000  0.00  0.00    +0.000 A 
ATOM     27  C   UNL     1      -2.494   1.031   0.000  0.00  0.00    +0.000 A 
ATOM     28  C   UNL     1      -1.780   2.269   0.000  0.00  0.00    +0.000 A 
ATOM     29  C   UNL     1      -2.494   1.856   0.000  0.00  0.00    +0.000 A 
ATOM     30  C   UNL     1      -1.065   1.856   0.000  0.00  0.00    +0.000 A 
ATOM     31  O   UNL     1      -1.780   3.094   0.000  0.00  0.00    +0.000 OA
ENDBRANCH  24  25
BRANCH  24  33
ATOM     32  C   UNL     1      -3.209  -0.206   0.000  0.00  0.00    +0.000 C 
ATOM     33  N   UNL     1      -2.494  -0.619   0.000  0.00  0.00    +0.000 NA
ATOM     34  O   UNL     1      -3.209   0.619   0.000  0.00  0.00    +0.000 OA
BRANCH  32  35
ATOM     35  C   UNL     1      -3.923  -0.619   0.000  0.00  0.00    +0.000 A 
ATOM     36  C   UNL     1      -4.638  -0.206   0.000  0.00  0.00    +0.000 A 
ATOM     37  C   UNL     1      -3.923  -1.444   0.000  0.00  0.00    +0.000 A 
ATOM     38  N   UNL     1      -4.638  -1.856   0.000  0.00  0.00    +0.000 NA
ATOM     39  C   UNL     1      -5.352  -0.619   0.000  0.00  0.00    +0.000 A 
ATOM     40  C   UNL     1      -5.352  -1.444   0.000  0.00  0.00    +0.000 A 
ATOM     41  O   UNL     1      -4.638   0.619   0.000  0.00  0.00    +0.000 OA
ATOM     42  C   UNL     1      -6.067  -1.856   0.000  0.00  0.00    +0.000 C 
ENDBRANCH  32  35
ENDBRANCH  24  33
ENDBRANCH   2  24
TORSDOF 9
