REMARK  Name = 
REMARK  4 active torsions:
REMARK  status: ('A' for Active; 'I' for Inactive)
REMARK    1  A    between atoms: C_25  and  C_26
REMARK    2  A    between atoms: C_25  and  C_27
REMARK    3  A    between atoms: C_26  and  C_33
REMARK    4  A    between atoms: C_30  and  C_33
REMARK                            x       y       z     vdW  Elec       q    Type
REMARK                         _______ _______ _______ _____ _____    ______ ____
ROOT
ATOM      1  C   UNL     1      -2.642  -0.526   0.000  0.00  0.00    +0.000 C 
ATOM      2  C   UNL     1      -3.357  -0.938   0.000  0.00  0.00    +0.000 C 
ATOM      3  C   UNL     1      -2.642  -2.176   0.000  0.00  0.00    +0.000 C 
ATOM      4  C   UNL     1      -1.213  -2.176   0.000  0.00  0.00    +0.000 C 
ATOM      5  C   UNL     1      -1.928  -0.938   0.000  0.00  0.00    +0.000 C 
ATOM      6  C   UNL     1      -1.213   0.299   0.000  0.00  0.00    +0.000 C 
ATOM      7  C   UNL     1       1.000  -0.781   0.000  0.00  0.00    +0.000 C 
ATOM      8  C   UNL     1       1.485  -0.113   0.000  0.00  0.00    +0.000 C 
ATOM      9  C   UNL     1      -1.928  -0.113   0.000  0.00  0.00    +0.000 C 
ATOM     10  C   UNL     1      -1.213  -0.526   0.000  0.00  0.00    +0.000 C 
ATOM     11  C   UNL     1      -0.499  -0.938   0.000  0.00  0.00    +0.000 C 
ATOM     12  C   UNL     1       0.215  -0.526   0.000  0.00  0.00    +0.000 C 
ATOM     13  C   UNL     1       0.215   0.299   0.000  0.00  0.00    +0.000 C 
ATOM     14  C   UNL     1       0.215   1.124   0.000  0.00  0.00    +0.000 C 
ATOM     15  C   UNL     1      -3.357  -1.763   0.000  0.00  0.00    +0.000 C 
ATOM     16  O   UNL     1      -4.071  -2.176   0.000  0.00  0.00    +0.000 OA
ATOM     17  C   UNL     1      -0.499  -1.763   0.000  0.00  0.00    +0.000 C 
ATOM     18  O   UNL     1       0.215  -2.176   0.000  0.00  0.00    +0.000 OA
ATOM     19  C   UNL     1      -1.928  -1.763   0.000  0.00  0.00    +0.000 C 
ATOM     20  C   UNL     1       1.000   0.554   0.000  0.00  0.00    +0.000 C 
ATOM     21  C   UNL     1      -0.499   0.712   0.000  0.00  0.00    +0.000 C 
ATOM     22  O   UNL     1      -0.499   1.537   0.000  0.00  0.00    +0.000 OA
ENDROOT
BRANCH  20  23
ATOM     23  C   UNL     1       1.214   1.351   0.000  0.00  0.00    +0.000 C 
ATOM     24  C   UNL     1       0.630   1.934   0.000  0.00  0.00    +0.000 C 
BRANCH  23  25
ATOM     25  C   UNL     1       1.928   1.763   0.000  0.00  0.00    +0.000 C 
BRANCH  25  26
ATOM     26  C   UNL     1       2.643   1.351   0.000  0.00  0.00    +0.000 C 
BRANCH  26  27
ATOM     27  C   UNL     1       3.357   1.763   0.000  0.00  0.00    +0.000 C 
ATOM     28  O   UNL     1       3.357   2.588   0.000  0.00  0.00    +0.000 OA
ATOM     29  O   UNL     1       4.071   1.351   0.000  0.00  0.00    +0.000 OA
ENDBRANCH  26  27
ENDBRANCH  25  26
ENDBRANCH  23  25
ENDBRANCH  20  23
TORSDOF 4
