REMARK  Name = 
REMARK  3 active torsions:
REMARK  status: ('A' for Active; 'I' for Inactive)
REMARK    1  A    between atoms: C_4  and  N_13
REMARK    2  A    between atoms: C_7  and  C_8
REMARK    3  A    between atoms: C_8  and  C_9
REMARK                            x       y       z     vdW  Elec       q    Type
REMARK                         _______ _______ _______ _____ _____    ______ ____
ROOT
ATOM      1  C   UNL     1      -1.360   1.457   0.000  0.00  0.00    +0.000 C 
ATOM      2  N   UNL     1      -1.360   0.632   0.000  0.00  0.00    +0.000 N 
ATOM      3  C   UNL     1      -0.645   0.220   0.000  0.00  0.00    +0.000 C 
ATOM      4  C   UNL     1       0.069   0.632   0.000  0.00  0.00    +0.000 C 
ATOM      5  C   UNL     1       0.069   1.457   0.000  0.00  0.00    +0.000 C 
ATOM      6  C   UNL     1      -0.645   1.869   0.000  0.00  0.00    +0.000 C 
ATOM      7  C   UNL     1      -2.074   0.220   0.000  0.00  0.00    +0.000 C 
ATOM      8  O   UNL     1      -2.074  -0.605   0.000  0.00  0.00    +0.000 OA
ATOM      9  C   UNL     1       0.795   1.876   0.000  0.00  0.00    +0.000 C 
ENDROOT
BRANCH   4  10
ATOM     10  N   UNL     1       0.795   0.213   0.000  0.00  0.00    +0.000 N 
ATOM     11  C   UNL     1       1.505   0.623   0.000  0.00  0.00    +0.000 C 
ATOM     12  C   UNL     1       0.795  -0.605   0.000  0.00  0.00    +0.000 A 
ATOM     13  N   UNL     1       0.073  -1.022   0.000  0.00  0.00    +0.000 NA
ATOM     14  C   UNL     1       0.073  -1.847   0.000  0.00  0.00    +0.000 A 
ATOM     15  N   UNL     1       0.787  -2.259   0.000  0.00  0.00    +0.000 NA
ATOM     16  C   UNL     1       1.509  -1.843   0.000  0.00  0.00    +0.000 A 
ATOM     17  C   UNL     1       1.509  -1.018   0.000  0.00  0.00    +0.000 A 
ATOM     18  N   UNL     1       2.294  -2.098   0.000  0.00  0.00    +0.000 NA
ATOM     19  C   UNL     1       2.779  -1.431   0.000  0.00  0.00    +0.000 A 
ATOM     20  C   UNL     1       2.294  -0.763   0.000  0.00  0.00    +0.000 A 
ENDBRANCH   4  10
BRANCH   7  21
ATOM     21  C   UNL     1      -2.779   0.626   0.000  0.00  0.00    +0.000 C 
BRANCH  21  22
ATOM     22  C   UNL     1      -2.778   1.434   0.000  0.00  0.00    +0.000 C 
ATOM     23  N   UNL     1      -2.778   2.259   0.000  0.00  0.00    +0.000 NA
ENDBRANCH  21  22
ENDBRANCH   7  21
TORSDOF 3
