REMARK  Name = 
REMARK  6 active torsions:
REMARK  status: ('A' for Active; 'I' for Inactive)
REMARK    1  A    between atoms: N_2  and  C_3
REMARK    2  A    between atoms: C_3  and  C_5
REMARK    3  A    between atoms: C_5  and  C_6
REMARK    4  A    between atoms: C_7  and  C_8
REMARK    5  A    between atoms: C_10  and  O_11
REMARK    6  A    between atoms: O_11  and  C_12
REMARK                            x       y       z     vdW  Elec       q    Type
REMARK                         _______ _______ _______ _____ _____    ______ ____
ROOT
ATOM      1  C   UNL     1       0.715   1.238   0.000  0.00  0.00    +0.000 A 
ATOM      2  C   UNL     1       1.429   0.825   0.000  0.00  0.00    +0.000 A 
ATOM      3  C   UNL     1       1.429   0.000   0.000  0.00  0.00    +0.000 A 
ATOM      4  C   UNL     1       0.715  -0.412   0.000  0.00  0.00    +0.000 A 
ATOM      5  N   UNL     1       0.000   0.000   0.000  0.00  0.00    +0.000 NA
ATOM      6  C   UNL     1       0.000   0.825   0.000  0.00  0.00    +0.000 A 
ENDROOT
BRANCH   1   8
ATOM      7  C   UNL     1       0.000   2.475   0.000  0.00  0.00    +0.000 C 
ATOM      8  C   UNL     1       0.715   2.062   0.000  0.00  0.00    +0.000 C 
BRANCH   7   9
ATOM      9  C   UNL     1       0.000   3.300   0.000  0.00  0.00    +0.000 C 
BRANCH   9  10
ATOM     10  C   UNL     1      -0.715   3.712   0.000  0.00  0.00    +0.000 C 
ATOM     11  C   UNL     1      -1.429   3.300   0.000  0.00  0.00    +0.000 C 
BRANCH  10  13
ATOM     12  C   UNL     1      -1.429   4.950   0.000  0.00  0.00    +0.000 C 
ATOM     13  N   UNL     1      -0.715   4.537   0.000  0.00  0.00    +0.000 NA
ENDBRANCH  10  13
ENDBRANCH   9  10
ENDBRANCH   7   9
ENDBRANCH   1   8
BRANCH   3  14
ATOM     14  O   UNL     1       2.143  -0.412   0.000  0.00  0.00    +0.000 OA
BRANCH  14  15
ATOM     15  C   UNL     1       2.143  -1.238   0.000  0.00  0.00    +0.000 C 
ATOM     16  C   UNL     1       2.858  -1.650   0.000  0.00  0.00    +0.000 C 
ATOM     17  C   UNL     1       1.429  -1.650   0.000  0.00  0.00    +0.000 C 
ENDBRANCH  14  15
ENDBRANCH   3  14
TORSDOF 6
