REMARK  Name = 
REMARK  5 active torsions:
REMARK  status: ('A' for Active; 'I' for Inactive)
REMARK    1  A    between atoms: C_4  and  N_7
REMARK    2  A    between atoms: C_10  and  C_22
REMARK    3  A    between atoms: N_13  and  C_16
REMARK    4  A    between atoms: N_24  and  C_25
REMARK    5  A    between atoms: C_25  and  C_26
REMARK                            x       y       z     vdW  Elec       q    Type
REMARK                         _______ _______ _______ _____ _____    ______ ____
ROOT
ATOM      1  N   UNL     1      -4.287  -2.475   0.000  0.00  0.00    +0.000 N 
ATOM      2  C   UNL     1      -3.572  -2.062   0.000  0.00  0.00    +0.000 C 
ATOM      3  O   UNL     1      -3.572  -1.238   0.000  0.00  0.00    +0.000 OA
ATOM      4  C   UNL     1      -2.858  -2.475   0.000  0.00  0.00    +0.000 C 
ATOM      5  C   UNL     1      -2.858  -3.300   0.000  0.00  0.00    +0.000 C 
ATOM      6  O   UNL     1      -2.143  -3.712   0.000  0.00  0.00    +0.000 OA
ATOM      7  N   UNL     1      -3.572  -3.712   0.000  0.00  0.00    +0.000 N 
ATOM      8  C   UNL     1      -4.287  -3.300   0.000  0.00  0.00    +0.000 C 
ATOM      9  O   UNL     1      -5.001  -3.712   0.000  0.00  0.00    +0.000 OA
ENDROOT
BRANCH   1  13
ATOM     10  C   UNL     1      -6.430  -1.238   0.000  0.00  0.00    +0.000 C 
ATOM     11  C   UNL     1      -5.716  -0.825   0.000  0.00  0.00    +0.000 C 
ATOM     12  C   UNL     1      -5.001  -1.238   0.000  0.00  0.00    +0.000 C 
ATOM     13  C   UNL     1      -5.001  -2.062   0.000  0.00  0.00    +0.000 C 
ATOM     14  C   UNL     1      -5.716  -2.475   0.000  0.00  0.00    +0.000 C 
ATOM     15  C   UNL     1      -6.430  -2.062   0.000  0.00  0.00    +0.000 C 
ENDBRANCH   1  13
BRANCH   7  16
ATOM     16  C   UNL     1      -3.572  -4.537   0.000  0.00  0.00    +0.000 C 
ATOM     17  C   UNL     1      -2.858  -4.950   0.000  0.00  0.00    +0.000 C 
ATOM     18  C   UNL     1      -2.858  -5.775   0.000  0.00  0.00    +0.000 C 
ATOM     19  C   UNL     1      -3.572  -6.188   0.000  0.00  0.00    +0.000 C 
ATOM     20  C   UNL     1      -4.287  -5.775   0.000  0.00  0.00    +0.000 C 
ATOM     21  C   UNL     1      -4.287  -4.950   0.000  0.00  0.00    +0.000 C 
ENDBRANCH   7  16
BRANCH   4  22
ATOM     22  C   UNL     1      -2.143  -2.062   0.000  0.00  0.00    +0.000 C 
ATOM     23  O   UNL     1      -2.143  -1.238   0.000  0.00  0.00    +0.000 OA
ATOM     24  N   UNL     1      -1.429  -2.475   0.000  0.00  0.00    +0.000 NA
BRANCH  24  25
ATOM     25  C   UNL     1      -0.715  -2.062   0.000  0.00  0.00    +0.000 C 
BRANCH  25  26
ATOM     26  C   UNL     1       0.000  -2.475   0.000  0.00  0.00    +0.000 C 
ATOM     27  O   UNL     1       0.715  -2.062   0.000  0.00  0.00    +0.000 OA
ATOM     28  O   UNL     1       0.000  -3.300   0.000  0.00  0.00    +0.000 OA
ENDBRANCH  25  26
ENDBRANCH  24  25
ENDBRANCH   4  22
TORSDOF 5
