REMARK  Name = 
REMARK  3 active torsions:
REMARK  status: ('A' for Active; 'I' for Inactive)
REMARK    1  A    between atoms: N_10  and  C_11
REMARK    2  A    between atoms: C_13  and  C_17
REMARK    3  A    between atoms: C_14  and  C_15
REMARK                            x       y       z     vdW  Elec       q    Type
REMARK                         _______ _______ _______ _____ _____    ______ ____
ROOT
ATOM      1  C   UNL     1       0.654  -0.698   0.000  0.00  0.00    +0.000 A 
ATOM      2  N   UNL     1       1.139  -0.030   0.000  0.00  0.00    +0.000 NA
ATOM      3  C   UNL     1       1.923  -0.285   0.000  0.00  0.00    +0.000 A 
ATOM      4  C   UNL     1       2.638   0.127   0.000  0.00  0.00    +0.000 A 
ATOM      5  O   UNL     1       2.638   0.952   0.000  0.00  0.00    +0.000 OA
ATOM      6  N   UNL     1       3.352  -0.285   0.000  0.00  0.00    +0.000 NA
ATOM      7  C   UNL     1       3.352  -1.110   0.000  0.00  0.00    +0.000 A 
ATOM      8  N   UNL     1       2.638  -1.523   0.000  0.00  0.00    +0.000 NA
ATOM      9  C   UNL     1       1.923  -1.110   0.000  0.00  0.00    +0.000 A 
ATOM     10  N   UNL     1       1.139  -1.365   0.000  0.00  0.00    +0.000 N 
ATOM     11  N   UNL     1       4.067  -1.523   0.000  0.00  0.00    +0.000 NA
ENDROOT
BRANCH  10  12
ATOM     12  C   UNL     1       0.884  -2.150   0.000  0.00  0.00    +0.000 C 
ATOM     13  C   UNL     1       1.258  -2.885   0.000  0.00  0.00    +0.000 C 
ATOM     14  C   UNL     1       0.523  -3.260   0.000  0.00  0.00    +0.000 C 
ATOM     15  C   UNL     1       0.149  -2.525   0.000  0.00  0.00    +0.000 C 
BRANCH  15  16
ATOM     16  C   UNL     1      -0.636  -2.270   0.000  0.00  0.00    +0.000 C 
ATOM     17  O   UNL     1      -0.807  -1.463   0.000  0.00  0.00    +0.000 OA
ENDBRANCH  15  16
BRANCH  14  18
ATOM     18  C   UNL     1       0.268  -4.044   0.000  0.00  0.00    +0.000 C 
ATOM     19  O   UNL     1       0.820  -4.657   0.000  0.00  0.00    +0.000 OA
ENDBRANCH  14  18
ENDBRANCH  10  12
TORSDOF 3
