REMARK  Name = 
REMARK  18 active torsions:
REMARK  status: ('A' for Active; 'I' for Inactive)
REMARK    1  A    between atoms: P_1  and  O_9
REMARK    2  A    between atoms: P_1  and  O_11
REMARK    3  A    between atoms: P_2  and  O_10
REMARK    4  A    between atoms: P_2  and  O_11
REMARK    5  A    between atoms: O_9  and  C_37
REMARK    6  A    between atoms: O_10  and  C_38
REMARK    7  A    between atoms: N_21  and  C_33
REMARK    8  A    between atoms: N_22  and  C_36
REMARK    9  A    between atoms: N_26  and  C_48
REMARK   10  A    between atoms: N_28  and  CA_53
REMARK   11  A    between atoms: C_31  and  C_37
REMARK   12  A    between atoms: C_35  and  C_38
REMARK   13  A    between atoms: C_43  and  C_49
REMARK   14  A    between atoms: C_45  and  C_47
REMARK   15  A    between atoms: C_47  and  C_50
REMARK   16  A    between atoms: C_50  and  C_52
REMARK   17  A    between atoms: C_52  and  CA_53
REMARK   18  A    between atoms: CA_53  and  C_54
REMARK                            x       y       z     vdW  Elec       q    Type
REMARK                         _______ _______ _______ _____ _____    ______ ____
ROOT
ATOM      1  O   UNL     1       1.567   1.232   0.000  0.00  0.00    +0.000 OA
ATOM      2  O   UNL     1       0.469  -0.598   0.000  0.00  0.00    +0.000 OA
ATOM      3  O   UNL     1       2.253  -0.789   0.000  0.00  0.00    +0.000 OA
ATOM      4  C   UNL     1       1.022   0.014   0.000  0.00  0.00    +0.000 C 
ATOM      5  C   UNL     1       1.842  -0.073   0.000  0.00  0.00    +0.000 C 
ATOM      6  C   UNL     1       0.852   0.821   0.000  0.00  0.00    +0.000 C 
ATOM      7  C   UNL     1       2.179   0.679   0.000  0.00  0.00    +0.000 C 
ENDROOT
BRANCH   7   8
ATOM      8  N   UNL     1       2.986   0.850   0.000  0.00  0.00    +0.000 N 
ATOM      9  C   UNL     1       3.537   0.235   0.000  0.00  0.00    +0.000 A 
ATOM     10  C   UNL     1       3.243   1.634   0.000  0.00  0.00    +0.000 A 
ATOM     11  C   UNL     1       4.345   0.406   0.000  0.00  0.00    +0.000 A 
ATOM     12  C   UNL     1       4.601   1.190   0.000  0.00  0.00    +0.000 A 
ATOM     13  C   UNL     1       4.050   1.804   0.000  0.00  0.00    +0.000 A 
BRANCH  11  16
ATOM     14  O   UNL     1       5.703  -0.038   0.000  0.00  0.00    +0.000 OA
ATOM     15  N   UNL     1       4.639  -0.993   0.000  0.00  0.00    +0.000 N 
ATOM     16  C   UNL     1       4.896  -0.208   0.000  0.00  0.00    +0.000 C 
ATOM     17  H   UNL     1       4.139  -1.098   0.000  0.00  0.00    +0.000 HD
ATOM     18  H   UNL     1       4.981  -1.373   0.000  0.00  0.00    +0.000 HD
ENDBRANCH  11  16
BRANCH  12  20
ATOM     19  O   UNL     1       5.959   0.746   0.000  0.00  0.00    +0.000 OA
ATOM     20  C   UNL     1       5.408   1.360   0.000  0.00  0.00    +0.000 C 
BRANCH  20  22
ATOM     21  O   UNL     1       5.114   2.758   0.000  0.00  0.00    +0.000 OA
ATOM     22  C   UNL     1       5.665   2.144   0.000  0.00  0.00    +0.000 C 
BRANCH  22  23
ATOM     23  C   UNL     1       6.472   2.314   0.000  0.00  0.00    +0.000 C 
BRANCH  23  24
ATOM     24  CA  UNL     1       6.728   3.099   0.000  0.00  0.00    +0.000 C 
BRANCH  24  25
ATOM     25  N   UNL     1       6.177   3.713   0.000  0.00  0.00    +0.000 NA
ATOM     26  H1  UNL     1       5.677   3.607   0.000  0.00  0.00    +0.000 HD
ATOM     27  H2  UNL     1       6.336   4.199   0.000  0.00  0.00    +0.000 HD
ENDBRANCH  24  25
BRANCH  24  30
ATOM     28  O   UNL     1       7.792   4.053   0.000  0.00  0.00    +0.000 OA
ATOM     29  OXT UNL     1       8.086   2.655   0.000  0.00  0.00    +0.000 OA
ATOM     30  C   UNL     1       7.535   3.269   0.000  0.00  0.00    +0.000 C 
ENDBRANCH  24  30
ENDBRANCH  23  24
ENDBRANCH  22  23
ENDBRANCH  20  22
ENDBRANCH  12  20
ENDBRANCH   7   8
BRANCH   6  31
ATOM     31  C   UNL     1       0.099   1.158   0.000  0.00  0.00    +0.000 C 
BRANCH  31  32
ATOM     32  O   UNL     1      -0.570   0.674   0.000  0.00  0.00    +0.000 OA
BRANCH  32  33
ATOM     33  P   UNL     1      -1.323   1.011   0.000  0.00  0.00    +0.000 P 
ATOM     34  O   UNL     1      -0.986   1.764   0.000  0.00  0.00    +0.000 OA
ATOM     35  O   UNL     1      -1.660   0.258   0.000  0.00  0.00    +0.000 OA
BRANCH  33  36
ATOM     36  O   UNL     1      -2.076   1.348   0.000  0.00  0.00    +0.000 OA
BRANCH  36  37
ATOM     37  P   UNL     1      -2.744   0.864   0.000  0.00  0.00    +0.000 P 
ATOM     38  O   UNL     1      -2.260   0.196   0.000  0.00  0.00    +0.000 OA
ATOM     39  O   UNL     1      -3.228   1.533   0.000  0.00  0.00    +0.000 OA
BRANCH  37  40
ATOM     40  O   UNL     1      -3.413   0.381   0.000  0.00  0.00    +0.000 OA
BRANCH  40  41
ATOM     41  C   UNL     1      -4.166   0.717   0.000  0.00  0.00    +0.000 C 
BRANCH  41  47
ATOM     42  O   UNL     1      -4.835  -0.591   0.000  0.00  0.00    +0.000 OA
ATOM     43  O   UNL     1      -5.872   1.275   0.000  0.00  0.00    +0.000 OA
ATOM     44  O   UNL     1      -6.929  -0.175   0.000  0.00  0.00    +0.000 OA
ATOM     45  C   UNL     1      -5.618   0.490   0.000  0.00  0.00    +0.000 C 
ATOM     46  C   UNL     1      -6.104  -0.177   0.000  0.00  0.00    +0.000 C 
ATOM     47  C   UNL     1      -4.834   0.234   0.000  0.00  0.00    +0.000 C 
ATOM     48  C   UNL     1      -5.620  -0.845   0.000  0.00  0.00    +0.000 C 
BRANCH  48  49
ATOM     49  N   UNL     1      -5.877  -1.629   0.000  0.00  0.00    +0.000 N 
ATOM     50  N   UNL     1      -5.877  -2.957   0.000  0.00  0.00    +0.000 NA
ATOM     51  N   UNL     1      -7.372  -1.468   0.000  0.00  0.00    +0.000 NA
ATOM     52  N   UNL     1      -8.086  -2.705   0.000  0.00  0.00    +0.000 NA
ATOM     53  C   UNL     1      -6.657  -1.881   0.000  0.00  0.00    +0.000 A 
ATOM     54  C   UNL     1      -5.395  -2.293   0.000  0.00  0.00    +0.000 A 
ATOM     55  C   UNL     1      -6.657  -2.705   0.000  0.00  0.00    +0.000 A 
ATOM     56  C   UNL     1      -7.372  -3.118   0.000  0.00  0.00    +0.000 A 
ATOM     57  C   UNL     1      -8.086  -1.881   0.000  0.00  0.00    +0.000 A 
BRANCH  56  58
ATOM     58  N   UNL     1      -7.372  -3.943   0.000  0.00  0.00    +0.000 N 
ATOM     59  H   UNL     1      -6.929  -4.199   0.000  0.00  0.00    +0.000 HD
ATOM     60  H   UNL     1      -7.815  -4.199   0.000  0.00  0.00    +0.000 HD
ENDBRANCH  56  58
ENDBRANCH  48  49
ENDBRANCH  41  47
ENDBRANCH  40  41
ENDBRANCH  37  40
ENDBRANCH  36  37
ENDBRANCH  33  36
ENDBRANCH  32  33
ENDBRANCH  31  32
ENDBRANCH   6  31
TORSDOF 18
