REMARK  Name = 
REMARK  4 active torsions:
REMARK  status: ('A' for Active; 'I' for Inactive)
REMARK    1  A    between atoms: O_2  and  C_3
REMARK    2  A    between atoms: C_3  and  C_5
REMARK    3  A    between atoms: C_9  and  C_10
REMARK    4  A    between atoms: C_10  and  O_12
REMARK                            x       y       z     vdW  Elec       q    Type
REMARK                         _______ _______ _______ _____ _____    ______ ____
ROOT
ATOM      1  C   UNL     1       0.000   0.000   0.000  0.00  0.00    +0.000 C 
ATOM      2  C   UNL     1       0.715  -0.412   0.000  0.00  0.00    +0.000 C 
ATOM      3  C   UNL     1       0.508   0.412   0.000  0.00  0.00    +0.000 C 
ATOM      4  C   UNL     1       0.715   1.238   0.000  0.00  0.00    +0.000 C 
ATOM      5  C   UNL     1       0.000   0.825   0.000  0.00  0.00    +0.000 C 
ATOM      6  C   UNL     1       1.429   0.825   0.000  0.00  0.00    +0.000 C 
ATOM      7  C   UNL     1       1.429   0.000   0.000  0.00  0.00    +0.000 C 
ENDROOT
BRANCH   1   8
ATOM      8  C   UNL     1      -0.715  -0.412   0.000  0.00  0.00    +0.000 C 
ATOM      9  O   UNL     1      -1.429   0.000   0.000  0.00  0.00    +0.000 OA
BRANCH   8  11
ATOM     10  C   UNL     1      -1.429  -1.650   0.000  0.00  0.00    +0.000 C 
ATOM     11  O   UNL     1      -0.715  -1.238   0.000  0.00  0.00    +0.000 OA
ENDBRANCH   8  11
ENDBRANCH   1   8
BRANCH   5  12
ATOM     12  C   UNL     1      -0.715   1.238   0.000  0.00  0.00    +0.000 C 
ATOM     13  O   UNL     1      -1.429   0.825   0.000  0.00  0.00    +0.000 OA
BRANCH  12  14
ATOM     14  O   UNL     1      -0.715   2.062   0.000  0.00  0.00    +0.000 OA
ATOM     15  C   UNL     1      -1.429   2.475   0.000  0.00  0.00    +0.000 C 
ENDBRANCH  12  14
ENDBRANCH   5  12
TORSDOF 4
