REMARK  Name = 
REMARK  30 active torsions:
REMARK  status: ('A' for Active; 'I' for Inactive)
REMARK    1  A    between atoms: C_1  and  O_46
REMARK    2  A    between atoms: C_2  and  N_43
REMARK    3  A    between atoms: C_3  and  O_32
REMARK    4  A    between atoms: C_4  and  O_31
REMARK    5  A    between atoms: C_5  and  C_49
REMARK    6  A    between atoms: C_6  and  C_48
REMARK    7  A    between atoms: C_7  and  N_44
REMARK    8  A    between atoms: C_8  and  O_47
REMARK    9  A    between atoms: C_9  and  O_38
REMARK   10  A    between atoms: C_10  and  N_45
REMARK   11  A    between atoms: C_11  and  O_36
REMARK   12  A    between atoms: S_12  and  N_43
REMARK   13  A    between atoms: S_13  and  N_45
REMARK   14  A    between atoms: S_14  and  N_44
REMARK   15  A    between atoms: C_15  and  O_32
REMARK   16  A    between atoms: C_16  and  O_31
REMARK   17  A    between atoms: S_17  and  O_46
REMARK   18  A    between atoms: S_18  and  O_47
REMARK   19  A    between atoms: C_19  and  O_36
REMARK   20  A    between atoms: S_22  and  O_55
REMARK   21  A    between atoms: S_23  and  O_54
REMARK   22  A    between atoms: S_24  and  O_53
REMARK   23  A    between atoms: C_25  and  O_38
REMARK   24  A    between atoms: C_35  and  C_50
REMARK   25  A    between atoms: C_37  and  C_51
REMARK   26  A    between atoms: C_39  and  O_90
REMARK   27  A    between atoms: C_41  and  C_52
REMARK   28  A    between atoms: C_50  and  O_53
REMARK   29  A    between atoms: C_51  and  O_54
REMARK   30  A    between atoms: C_52  and  O_55
REMARK                            x       y       z     vdW  Elec       q    Type
REMARK                         _______ _______ _______ _____ _____    ______ ____
ROOT
ATOM      1  C   UNL     1       0.019  -0.793   0.000  0.00  0.00    +0.000 C 
ATOM      2  C   UNL     1       0.839  -0.798   0.000  0.00  0.00    +0.000 C 
ATOM      3  C   UNL     1       1.264  -0.095   0.000  0.00  0.00    +0.000 C 
ATOM      4  C   UNL     1      -0.381  -0.071   0.000  0.00  0.00    +0.000 C 
ATOM      5  O   UNL     1       0.854   0.637   0.000  0.00  0.00    +0.000 OA
ATOM      6  C   UNL     1       0.034   0.637   0.000  0.00  0.00    +0.000 C 
ENDROOT
BRANCH   2   7
ATOM      7  N   UNL     1       1.249  -1.515   0.000  0.00  0.00    +0.000 NA
BRANCH   7   8
ATOM      8  S   UNL     1       0.835  -2.237   0.000  0.00  0.00    +0.000 S 
ATOM      9  O   UNL     1       1.240  -2.940   0.000  0.00  0.00    +0.000 OA
ATOM     10  O   UNL     1       0.249  -1.647   0.000  0.00  0.00    +0.000 OA
ATOM     11  O   UNL     1       0.249  -2.808   0.000  0.00  0.00    +0.000 OA
ENDBRANCH   7   8
ENDBRANCH   2   7
BRANCH   1  12
ATOM     12  O   UNL     1      -0.395  -1.501   0.000  0.00  0.00    +0.000 OA
BRANCH  12  13
ATOM     13  S   UNL     1      -1.220  -1.515   0.000  0.00  0.00    +0.000 S 
ATOM     14  O   UNL     1      -1.635  -2.218   0.000  0.00  0.00    +0.000 OA
ATOM     15  O   UNL     1      -1.220  -0.676   0.000  0.00  0.00    +0.000 OA
ATOM     16  O   UNL     1      -2.015  -1.281   0.000  0.00  0.00    +0.000 OA
ENDBRANCH  12  13
ENDBRANCH   1  12
BRANCH   3  17
ATOM     17  O   UNL     1       2.094   0.339   0.000  0.00  0.00    +0.000 OA
BRANCH  17  18
ATOM     18  C   UNL     1       2.992   0.359   0.000  0.00  0.00    +0.000 C 
ATOM     19  C   UNL     1       3.416   1.061   0.000  0.00  0.00    +0.000 C 
ATOM     20  C   UNL     1       4.226  -0.363   0.000  0.00  0.00    +0.000 C 
ATOM     21  C   UNL     1       4.646   0.329   0.000  0.00  0.00    +0.000 C 
ATOM     22  O   UNL     1       4.241   1.061   0.000  0.00  0.00    +0.000 OA
ATOM     23  C   UNL     1       3.401  -0.363   0.000  0.00  0.00    +0.000 C 
ATOM     24  O   UNL     1       2.977  -1.071   0.000  0.00  0.00    +0.000 OA
BRANCH  19  25
ATOM     25  C   UNL     1       3.006   1.784   0.000  0.00  0.00    +0.000 C 
ATOM     26  O   UNL     1       2.181   1.769   0.000  0.00  0.00    +0.000 OA
ATOM     27  O   UNL     1       3.426   2.496   0.000  0.00  0.00    +0.000 OA
ENDBRANCH  19  25
BRANCH  21  28
ATOM     28  O   UNL     1       5.466   0.739   0.000  0.00  0.00    +0.000 OA
BRANCH  28  30
ATOM     29  C   UNL     1       7.672   0.022   0.000  0.00  0.00    +0.000 C 
ATOM     30  C   UNL     1       6.447   0.725   0.000  0.00  0.00    +0.000 C 
ATOM     31  C   UNL     1       6.847   0.007   0.000  0.00  0.00    +0.000 C 
ATOM     32  C   UNL     1       6.867   1.432   0.000  0.00  0.00    +0.000 C 
ATOM     33  C   UNL     1       8.101   0.710   0.000  0.00  0.00    +0.000 C 
ATOM     34  O   UNL     1       7.686   1.432   0.000  0.00  0.00    +0.000 OA
ATOM     35  O   UNL     1       6.432  -0.705   0.000  0.00  0.00    +0.000 OA
BRANCH  33  36
ATOM     36  O   UNL     1       8.921   0.710   0.000  0.00  0.00    +0.000 OA
ATOM     37  C   UNL     1       9.321  -0.007   0.000  0.00  0.00    +0.000 C 
ENDBRANCH  33  36
BRANCH  29  38
ATOM     38  N   UNL     1       8.087  -0.710   0.000  0.00  0.00    +0.000 NA
BRANCH  38  39
ATOM     39  S   UNL     1       7.657  -1.427   0.000  0.00  0.00    +0.000 S 
ATOM     40  O   UNL     1       8.072  -2.145   0.000  0.00  0.00    +0.000 OA
ATOM     41  O   UNL     1       7.071  -0.837   0.000  0.00  0.00    +0.000 OA
ATOM     42  O   UNL     1       7.071  -2.008   0.000  0.00  0.00    +0.000 OA
ENDBRANCH  38  39
ENDBRANCH  29  38
BRANCH  32  43
ATOM     43  C   UNL     1       6.462   2.155   0.000  0.00  0.00    +0.000 C 
BRANCH  43  44
ATOM     44  O   UNL     1       5.627   2.155   0.000  0.00  0.00    +0.000 OA
BRANCH  44  45
ATOM     45  S   UNL     1       5.227   2.877   0.000  0.00  0.00    +0.000 S 
ATOM     46  O   UNL     1       4.407   2.877   0.000  0.00  0.00    +0.000 OA
ATOM     47  O   UNL     1       6.022   3.096   0.000  0.00  0.00    +0.000 OA
ATOM     48  O   UNL     1       5.437   3.682   0.000  0.00  0.00    +0.000 OA
ENDBRANCH  44  45
ENDBRANCH  43  44
ENDBRANCH  32  43
ENDBRANCH  28  30
ENDBRANCH  21  28
BRANCH  20  49
ATOM     49  O   UNL     1       4.631  -1.076   0.000  0.00  0.00    +0.000 OA
BRANCH  49  50
ATOM     50  S   UNL     1       4.212  -1.793   0.000  0.00  0.00    +0.000 S 
ATOM     51  O   UNL     1       4.626  -2.511   0.000  0.00  0.00    +0.000 OA
ATOM     52  O   UNL     1       3.499  -2.208   0.000  0.00  0.00    +0.000 OA
ATOM     53  O   UNL     1       3.636  -1.208   0.000  0.00  0.00    +0.000 OA
ENDBRANCH  49  50
ENDBRANCH  20  49
ENDBRANCH  17  18
ENDBRANCH   3  17
BRANCH   6  54
ATOM     54  C   UNL     1      -0.366   1.354   0.000  0.00  0.00    +0.000 C 
BRANCH  54  55
ATOM     55  O   UNL     1      -1.196   1.369   0.000  0.00  0.00    +0.000 OA
BRANCH  55  56
ATOM     56  S   UNL     1      -1.605   2.082   0.000  0.00  0.00    +0.000 S 
ATOM     57  O   UNL     1      -2.430   2.067   0.000  0.00  0.00    +0.000 OA
ATOM     58  O   UNL     1      -0.810   2.287   0.000  0.00  0.00    +0.000 OA
ATOM     59  O   UNL     1      -1.386   2.877   0.000  0.00  0.00    +0.000 OA
ENDBRANCH  55  56
ENDBRANCH  54  55
ENDBRANCH   6  54
BRANCH   4  60
ATOM     60  O   UNL     1      -1.352  -0.066   0.000  0.00  0.00    +0.000 OA
BRANCH  60  63
ATOM     61  C   UNL     1      -3.826  -0.437   0.000  0.00  0.00    +0.000 C 
ATOM     62  C   UNL     1      -3.406   0.251   0.000  0.00  0.00    +0.000 C 
ATOM     63  C   UNL     1      -2.176  -0.466   0.000  0.00  0.00    +0.000 C 
ATOM     64  O   UNL     1      -2.591   0.251   0.000  0.00  0.00    +0.000 OA
ATOM     65  C   UNL     1      -2.601  -1.179   0.000  0.00  0.00    +0.000 C 
ATOM     66  C   UNL     1      -3.421  -1.164   0.000  0.00  0.00    +0.000 C 
ATOM     67  O   UNL     1      -2.191  -1.896   0.000  0.00  0.00    +0.000 OA
ATOM     68  O   UNL     1      -3.841  -1.881   0.000  0.00  0.00    +0.000 OA
BRANCH  62  69
ATOM     69  C   UNL     1      -3.812   0.974   0.000  0.00  0.00    +0.000 C 
ATOM     70  O   UNL     1      -4.641   0.988   0.000  0.00  0.00    +0.000 OA
ATOM     71  O   UNL     1      -3.401   1.691   0.000  0.00  0.00    +0.000 OA
ENDBRANCH  62  69
BRANCH  61  72
ATOM     72  O   UNL     1      -4.651  -0.451   0.000  0.00  0.00    +0.000 OA
BRANCH  72  74
ATOM     73  C   UNL     1      -6.042  -1.545   0.000  0.00  0.00    +0.000 C 
ATOM     74  C   UNL     1      -5.627  -0.837   0.000  0.00  0.00    +0.000 C 
ATOM     75  C   UNL     1      -6.862  -1.545   0.000  0.00  0.00    +0.000 C 
ATOM     76  O   UNL     1      -6.027  -0.110   0.000  0.00  0.00    +0.000 OA
ATOM     77  C   UNL     1      -6.847  -0.110   0.000  0.00  0.00    +0.000 C 
ATOM     78  C   UNL     1      -7.277  -0.822   0.000  0.00  0.00    +0.000 C 
ATOM     79  O   UNL     1      -7.286  -2.262   0.000  0.00  0.00    +0.000 OA
ATOM     80  O   UNL     1      -8.101  -0.842   0.000  0.00  0.00    +0.000 OA
BRANCH  73  81
ATOM     81  N   UNL     1      -5.642  -2.267   0.000  0.00  0.00    +0.000 NA
BRANCH  81  82
ATOM     82  S   UNL     1      -6.052  -2.974   0.000  0.00  0.00    +0.000 S 
ATOM     83  O   UNL     1      -5.642  -3.682   0.000  0.00  0.00    +0.000 OA
ATOM     84  O   UNL     1      -6.774  -3.384   0.000  0.00  0.00    +0.000 OA
ATOM     85  O   UNL     1      -6.774  -2.569   0.000  0.00  0.00    +0.000 OA
ENDBRANCH  81  82
ENDBRANCH  73  81
BRANCH  77  86
ATOM     86  C   UNL     1      -7.262   0.608   0.000  0.00  0.00    +0.000 C 
BRANCH  86  87
ATOM     87  O   UNL     1      -8.087   0.593   0.000  0.00  0.00    +0.000 OA
BRANCH  87  88
ATOM     88  S   UNL     1      -8.487   1.330   0.000  0.00  0.00    +0.000 S 
ATOM     89  O   UNL     1      -9.321   1.325   0.000  0.00  0.00    +0.000 OA
ATOM     90  O   UNL     1      -8.291   2.125   0.000  0.00  0.00    +0.000 OA
ATOM     91  O   UNL     1      -7.701   1.535   0.000  0.00  0.00    +0.000 OA
ENDBRANCH  87  88
ENDBRANCH  86  87
ENDBRANCH  77  86
ENDBRANCH  72  74
ENDBRANCH  61  72
ENDBRANCH  60  63
ENDBRANCH   4  60
TORSDOF 30
