REMARK  Name = 
REMARK  8 active torsions:
REMARK  status: ('A' for Active; 'I' for Inactive)
REMARK    1  A    between atoms: O_2  and  C_13
REMARK    2  A    between atoms: O_2  and  C_19
REMARK    3  A    between atoms: O_3  and  C_14
REMARK    4  A    between atoms: O_3  and  C_22
REMARK    5  A    between atoms: O_4  and  C_18
REMARK    6  A    between atoms: O_4  and  C_23
REMARK    7  A    between atoms: N_10  and  C_12
REMARK    8  A    between atoms: C_15  and  C_18
REMARK                            x       y       z     vdW  Elec       q    Type
REMARK                         _______ _______ _______ _____ _____    ______ ____
ROOT
ATOM      1  O   UNL     1      -0.123   1.087   0.000  0.00  0.00    +0.000 OA
ATOM      2  C   UNL     1       0.543   0.623   0.000  0.00  0.00    +0.000 C 
ATOM      3  C   UNL     1       0.290  -0.210   0.000  0.00  0.00    +0.000 C 
ATOM      4  C   UNL     1      -0.543  -0.210   0.000  0.00  0.00    +0.000 C 
ATOM      5  C   UNL     1      -0.790   0.587   0.000  0.00  0.00    +0.000 C 
ENDROOT
BRANCH   2   8
ATOM      6  O   UNL     1       2.166  -0.333   0.000  0.00  0.00    +0.000 OA
ATOM      7  O   UNL     1       3.622   2.123   0.000  0.00  0.00    +0.000 OA
ATOM      8  N   UNL     1       1.456   0.876   0.000  0.00  0.00    +0.000 N 
ATOM      9  N   UNL     1       2.876   0.876   0.000  0.00  0.00    +0.000 NA
ATOM     10  C   UNL     1       2.166   0.500   0.000  0.00  0.00    +0.000 A 
ATOM     11  C   UNL     1       1.456   1.710   0.000  0.00  0.00    +0.000 A 
ATOM     12  C   UNL     1       2.876   1.710   0.000  0.00  0.00    +0.000 A 
ATOM     13  C   UNL     1       2.166   2.123   0.000  0.00  0.00    +0.000 A 
ENDBRANCH   2   8
BRANCH   4  14
ATOM     14  O   UNL     1      -1.043  -0.877   0.000  0.00  0.00    +0.000 OA
BRANCH  14  16
ATOM     15  O   UNL     1      -0.319  -2.108   0.000  0.00  0.00    +0.000 OA
ATOM     16  C   UNL     1      -1.043  -1.688   0.000  0.00  0.00    +0.000 C 
ATOM     17  C   UNL     1      -1.746  -2.101   0.000  0.00  0.00    +0.000 C 
ENDBRANCH  14  16
ENDBRANCH   4  14
BRANCH   3  18
ATOM     18  O   UNL     1       0.790  -0.877   0.000  0.00  0.00    +0.000 OA
BRANCH  18  20
ATOM     19  O   UNL     1       0.167  -2.043   0.000  0.00  0.00    +0.000 OA
ATOM     20  C   UNL     1       0.790  -1.710   0.000  0.00  0.00    +0.000 C 
ATOM     21  C   UNL     1       1.500  -2.123   0.000  0.00  0.00    +0.000 C 
ENDBRANCH  18  20
ENDBRANCH   3  18
BRANCH   5  22
ATOM     22  C   UNL     1      -1.579   0.833   0.000  0.00  0.00    +0.000 C 
BRANCH  22  23
ATOM     23  O   UNL     1      -2.210   0.333   0.000  0.00  0.00    +0.000 OA
BRANCH  23  25
ATOM     24  O   UNL     1      -2.912   1.500   0.000  0.00  0.00    +0.000 OA
ATOM     25  C   UNL     1      -2.912   0.753   0.000  0.00  0.00    +0.000 C 
ATOM     26  C   UNL     1      -3.622   0.333   0.000  0.00  0.00    +0.000 C 
ENDBRANCH  23  25
ENDBRANCH  22  23
ENDBRANCH   5  22
TORSDOF 8
