REMARK  Name = 
REMARK  14 active torsions:
REMARK  status: ('A' for Active; 'I' for Inactive)
REMARK    1  A    between atoms: C_1  and  C_2
REMARK    2  A    between atoms: C_1  and  C_3
REMARK    3  A    between atoms: C_1  and  C_29
REMARK    4  A    between atoms: C_1  and  C_30
REMARK    5  A    between atoms: C_3  and  C_6
REMARK    6  A    between atoms: C_6  and  C_9
REMARK    7  A    between atoms: C_7  and  O_11
REMARK    8  A    between atoms: C_9  and  N_12
REMARK    9  A    between atoms: C_10  and  O_13
REMARK   10  A    between atoms: N_12  and  C_15
REMARK   11  A    between atoms: C_15  and  C_18
REMARK   12  A    between atoms: C_18  and  C_19
REMARK   13  A    between atoms: C_22  and  O_25
REMARK   14  A    between atoms: C_24  and  O_26
REMARK                            x       y       z     vdW  Elec       q    Type
REMARK                         _______ _______ _______ _____ _____    ______ ____
ROOT
ATOM      1  C   UNL     1       0.715   0.953   0.000  0.00  0.00    +0.000 C 
ENDROOT
BRANCH   1   2
ATOM      2  C   UNL     1       1.429   1.365   0.000  0.00  0.00    +0.000 C 
BRANCH   2   3
ATOM      3  C   UNL     1       2.141   0.960   0.000  0.00  0.00    +0.000 C 
BRANCH   3   4
ATOM      4  N   UNL     1       2.855   1.369   0.000  0.00  0.00    +0.000 NA
ATOM      5  C   UNL     1       2.855   2.224   0.000  0.00  0.00    +0.000 C 
BRANCH   4   6
ATOM      6  C   UNL     1       3.570   0.964   0.000  0.00  0.00    +0.000 C 
BRANCH   6   7
ATOM      7  C   UNL     1       3.563   0.140   0.000  0.00  0.00    +0.000 C 
BRANCH   7   8
ATOM      8  C   UNL     1       2.856  -0.267   0.000  0.00  0.00    +0.000 A 
ATOM      9  C   UNL     1       2.852  -1.092   0.000  0.00  0.00    +0.000 A 
ATOM     10  C   UNL     1       2.145   0.144   0.000  0.00  0.00    +0.000 A 
ATOM     11  C   UNL     1       2.140  -1.500   0.000  0.00  0.00    +0.000 A 
ATOM     12  C   UNL     1       1.428  -0.265   0.000  0.00  0.00    +0.000 A 
ATOM     13  C   UNL     1       1.429  -1.089   0.000  0.00  0.00    +0.000 A 
BRANCH  13  14
ATOM     14  O   UNL     1       0.711  -1.501   0.000  0.00  0.00    +0.000 OA
ATOM     15  C   UNL     1      -0.009  -1.084   0.000  0.00  0.00    +0.000 C 
ENDBRANCH  13  14
BRANCH  11  16
ATOM     16  O   UNL     1       2.139  -2.326   0.000  0.00  0.00    +0.000 OA
ATOM     17  C   UNL     1       1.423  -2.740   0.000  0.00  0.00    +0.000 C 
ENDBRANCH  11  16
ENDBRANCH   7   8
ENDBRANCH   6   7
ENDBRANCH   4   6
ENDBRANCH   3   4
ENDBRANCH   2   3
ENDBRANCH   1   2
BRANCH   1  18
ATOM     18  C   UNL     1       0.000   1.362   0.000  0.00  0.00    +0.000 C 
BRANCH  18  19
ATOM     19  C   UNL     1      -0.708   0.949   0.000  0.00  0.00    +0.000 A 
ATOM     20  C   UNL     1      -1.422   1.362   0.000  0.00  0.00    +0.000 A 
ATOM     21  C   UNL     1      -0.708   0.125   0.000  0.00  0.00    +0.000 A 
ATOM     22  C   UNL     1      -2.137   0.949   0.000  0.00  0.00    +0.000 A 
ATOM     23  C   UNL     1      -1.422  -0.291   0.000  0.00  0.00    +0.000 A 
ATOM     24  C   UNL     1      -2.137   0.125   0.000  0.00  0.00    +0.000 A 
BRANCH  24  25
ATOM     25  O   UNL     1      -2.855  -0.291   0.000  0.00  0.00    +0.000 OA
ATOM     26  C   UNL     1      -3.570   0.121   0.000  0.00  0.00    +0.000 C 
ENDBRANCH  24  25
BRANCH  22  27
ATOM     27  O   UNL     1      -2.855   1.362   0.000  0.00  0.00    +0.000 OA
ATOM     28  C   UNL     1      -3.570   0.949   0.000  0.00  0.00    +0.000 C 
ENDBRANCH  22  27
ENDBRANCH  18  19
BRANCH  18  29
ATOM     29  C   UNL     1      -0.586   1.943   0.000  0.00  0.00    +0.000 C 
ATOM     30  C   UNL     1      -1.382   1.726   0.000  0.00  0.00    +0.000 C 
ATOM     31  C   UNL     1      -0.375   2.740   0.000  0.00  0.00    +0.000 C 
ENDBRANCH  18  29
BRANCH  18  32
ATOM     32  C   UNL     1       0.581   1.948   0.000  0.00  0.00    +0.000 C 
ATOM     33  N   UNL     1       1.164   2.538   0.000  0.00  0.00    +0.000 NA
ENDBRANCH  18  32
ENDBRANCH   1  18
TORSDOF 14
