REMARK  Name = 
REMARK  0 active torsions:
REMARK  status: ('A' for Active; 'I' for Inactive)
REMARK                            x       y       z     vdW  Elec       q    Type
REMARK                         _______ _______ _______ _____ _____    ______ ____
ROOT
ATOM      1  N   UNL     1      -0.001   0.180   0.000  0.00  0.00    +0.000 N 
ATOM      2  C   UNL     1       0.706  -0.226   0.000  0.00  0.00    +0.000 C 
ATOM      3  C   UNL     1      -0.714  -0.226   0.000  0.00  0.00    +0.000 C 
ATOM      4  C   UNL     1      -0.001   1.068   0.000  0.00  0.00    +0.000 C 
ATOM      5  C   UNL     1       0.706  -1.066   0.000  0.00  0.00    +0.000 C 
ATOM      6  C   UNL     1      -0.714  -1.066   0.000  0.00  0.00    +0.000 C 
ATOM      7  O   UNL     1      -0.714   1.482   0.000  0.00  0.00    +0.000 OA
ATOM      8  C   UNL     1      -0.001  -1.482   0.000  0.00  0.00    +0.000 C 
ENDROOT
TORSDOF 0
