REMARK  Name = 
REMARK  6 active torsions:
REMARK  status: ('A' for Active; 'I' for Inactive)
REMARK    1  A    between atoms: C_2  and  C_5
REMARK    2  A    between atoms: C_6  and  C_12
REMARK    3  A    between atoms: C_13  and  O_14
REMARK    4  A    between atoms: O_14  and  C_15
REMARK    5  A    between atoms: C_18  and  C_19
REMARK    6  A    between atoms: C_20  and  C_21
REMARK                            x       y       z     vdW  Elec       q    Type
REMARK                         _______ _______ _______ _____ _____    ______ ____
ROOT
ATOM      1  C   UNL     1       0.654  -0.698   0.000  0.00  0.00    +0.000 A 
ATOM      2  C   UNL     1       1.139  -0.030   0.000  0.00  0.00    +0.000 A 
ATOM      3  C   UNL     1       1.923  -0.285   0.000  0.00  0.00    +0.000 A 
ATOM      4  C   UNL     1       2.638   0.127   0.000  0.00  0.00    +0.000 A 
ATOM      5  C   UNL     1       3.352  -0.285   0.000  0.00  0.00    +0.000 A 
ATOM      6  C   UNL     1       3.352  -1.110   0.000  0.00  0.00    +0.000 A 
ATOM      7  O   UNL     1       4.067  -1.523   0.000  0.00  0.00    +0.000 OA
ATOM      8  C   UNL     1       2.638  -1.523   0.000  0.00  0.00    +0.000 A 
ATOM      9  C   UNL     1       1.923  -1.110   0.000  0.00  0.00    +0.000 A 
ATOM     10  S   UNL     1       1.139  -1.365   0.000  0.00  0.00    +0.000 S 
ENDROOT
BRANCH   1  12
ATOM     11  C   UNL     1      -0.584   0.017   0.000  0.00  0.00    +0.000 A 
ATOM     12  C   UNL     1      -0.171  -0.698   0.000  0.00  0.00    +0.000 A 
ATOM     13  C   UNL     1      -0.584  -1.412   0.000  0.00  0.00    +0.000 A 
ATOM     14  C   UNL     1      -1.409  -1.412   0.000  0.00  0.00    +0.000 A 
ATOM     15  C   UNL     1      -1.821  -0.698   0.000  0.00  0.00    +0.000 A 
ATOM     16  F   UNL     1      -2.646  -0.698   0.000  0.00  0.00    +0.000 F 
ATOM     17  C   UNL     1      -1.409   0.017   0.000  0.00  0.00    +0.000 A 
BRANCH  11  19
ATOM     18  C   UNL     1       0.241   1.446   0.000  0.00  0.00    +0.000 C 
ATOM     19  C   UNL     1      -0.171   0.731   0.000  0.00  0.00    +0.000 C 
ATOM     20  F   UNL     1      -0.886   1.143   0.000  0.00  0.00    +0.000 F 
ATOM     21  F   UNL     1       0.543   0.319   0.000  0.00  0.00    +0.000 F 
ENDBRANCH  11  19
ENDBRANCH   1  12
BRANCH   2  22
ATOM     22  O   UNL     1       0.884   0.754   0.000  0.00  0.00    +0.000 OA
BRANCH  22  23
ATOM     23  C   UNL     1       1.436   1.367   0.000  0.00  0.00    +0.000 A 
ATOM     24  C   UNL     1       1.181   2.152   0.000  0.00  0.00    +0.000 A 
ATOM     25  C   UNL     1       1.733   2.765   0.000  0.00  0.00    +0.000 A 
ATOM     26  C   UNL     1       2.540   2.593   0.000  0.00  0.00    +0.000 A 
ATOM     27  C   UNL     1       2.795   1.809   0.000  0.00  0.00    +0.000 A 
ATOM     28  C   UNL     1       2.243   1.196   0.000  0.00  0.00    +0.000 A 
BRANCH  26  29
ATOM     29  C   UNL     1       3.092   3.207   0.000  0.00  0.00    +0.000 C 
ATOM     30  C   UNL     1       3.899   3.035   0.000  0.00  0.00    +0.000 C 
BRANCH  30  31
ATOM     31  C   UNL     1       4.451   3.648   0.000  0.00  0.00    +0.000 C 
ATOM     32  O   UNL     1       4.196   4.433   0.000  0.00  0.00    +0.000 OA
ATOM     33  O   UNL     1       5.258   3.477   0.000  0.00  0.00    +0.000 OA
ENDBRANCH  30  31
ENDBRANCH  26  29
ENDBRANCH  22  23
ENDBRANCH   2  22
TORSDOF 6
