REMARK  Name = 
REMARK  10 active torsions:
REMARK  status: ('A' for Active; 'I' for Inactive)
REMARK    1  A    between atoms: C_1  and  N_17
REMARK    2  A    between atoms: C_3  and  C_18
REMARK    3  A    between atoms: C_13  and  O_22
REMARK    4  A    between atoms: C_16  and  O_20
REMARK    5  A    between atoms: O_20  and  C_21
REMARK    6  A    between atoms: C_21  and  C_27
REMARK    7  A    between atoms: O_22  and  C_23
REMARK    8  A    between atoms: C_23  and  C_24
REMARK    9  A    between atoms: C_24  and  O_25
REMARK   10  A    between atoms: C_27  and  O_28
REMARK                            x       y       z     vdW  Elec       q    Type
REMARK                         _______ _______ _______ _____ _____    ______ ____
ROOT
ATOM      1  C   UNL     1       1.795  -1.652   0.000  0.00  0.00    +0.000 A 
ATOM      2  C   UNL     1       1.789  -2.478   0.000  0.00  0.00    +0.000 A 
ATOM      3  N   UNL     1       2.501  -2.891   0.000  0.00  0.00    +0.000 NA
ATOM      4  C   UNL     1       3.220  -2.486   0.000  0.00  0.00    +0.000 A 
ATOM      5  N   UNL     1       3.221  -1.657   0.000  0.00  0.00    +0.000 NA
ATOM      6  C   UNL     1       2.509  -1.242   0.000  0.00  0.00    +0.000 A 
ATOM      7  C   UNL     1       0.370  -2.470   0.000  0.00  0.00    +0.000 A 
ATOM      8  C   UNL     1       1.084  -2.886   0.000  0.00  0.00    +0.000 A 
ATOM      9  C   UNL     1       1.080  -1.242   0.000  0.00  0.00    +0.000 A 
ATOM     10  C   UNL     1       0.369  -1.652   0.000  0.00  0.00    +0.000 A 
ATOM     11  N   UNL     1       2.503  -0.418   0.000  0.00  0.00    +0.000 NA
ENDROOT
BRANCH  11  12
ATOM     12  C   UNL     1       1.784   0.002   0.000  0.00  0.00    +0.000 A 
ATOM     13  C   UNL     1       1.780   0.828   0.000  0.00  0.00    +0.000 A 
ATOM     14  C   UNL     1       1.063   1.233   0.000  0.00  0.00    +0.000 A 
ATOM     15  C   UNL     1       0.354   0.819   0.000  0.00  0.00    +0.000 A 
ATOM     16  C   UNL     1       0.357  -0.010   0.000  0.00  0.00    +0.000 A 
ATOM     17  C   UNL     1       1.075  -0.416   0.000  0.00  0.00    +0.000 A 
BRANCH  14  18
ATOM     18  C   UNL     1       1.056   2.064   0.000  0.00  0.00    +0.000 C 
ATOM     19  C   UNL     1       1.056   2.891   0.000  0.00  0.00    +0.000 C 
ENDBRANCH  14  18
ENDBRANCH  11  12
BRANCH  10  20
ATOM     20  O   UNL     1      -0.347  -1.236   0.000  0.00  0.00    +0.000 OA
BRANCH  20  21
ATOM     21  C   UNL     1      -1.068  -1.643   0.000  0.00  0.00    +0.000 C 
BRANCH  21  22
ATOM     22  C   UNL     1      -1.784  -1.231   0.000  0.00  0.00    +0.000 C 
BRANCH  22  23
ATOM     23  O   UNL     1      -2.505  -1.638   0.000  0.00  0.00    +0.000 OA
ATOM     24  C   UNL     1      -3.221  -1.226   0.000  0.00  0.00    +0.000 C 
ENDBRANCH  22  23
ENDBRANCH  21  22
ENDBRANCH  20  21
ENDBRANCH  10  20
BRANCH   7  25
ATOM     25  O   UNL     1      -0.347  -2.877   0.000  0.00  0.00    +0.000 OA
BRANCH  25  26
ATOM     26  C   UNL     1      -1.068  -2.461   0.000  0.00  0.00    +0.000 C 
BRANCH  26  27
ATOM     27  C   UNL     1      -1.784  -2.872   0.000  0.00  0.00    +0.000 C 
BRANCH  27  28
ATOM     28  O   UNL     1      -2.505  -2.461   0.000  0.00  0.00    +0.000 OA
ATOM     29  C   UNL     1      -3.221  -2.867   0.000  0.00  0.00    +0.000 C 
ENDBRANCH  27  28
ENDBRANCH  26  27
ENDBRANCH  25  26
ENDBRANCH   7  25
TORSDOF 10
