REMARK  Name = 
REMARK  7 active torsions:
REMARK  status: ('A' for Active; 'I' for Inactive)
REMARK    1  A    between atoms: O_2  and  C_3
REMARK    2  A    between atoms: C_6  and  C_11
REMARK    3  A    between atoms: C_8  and  O_9
REMARK    4  A    between atoms: C_19  and  O_24
REMARK    5  A    between atoms: C_21  and  O_22
REMARK    6  A    between atoms: O_24  and  C_25
REMARK    7  A    between atoms: C_25  and  C_26
REMARK                            x       y       z     vdW  Elec       q    Type
REMARK                         _______ _______ _______ _____ _____    ______ ____
ROOT
ATOM      1  C   UNL     1      -0.715  -0.412   0.000  0.00  0.00    +0.000 A 
ATOM      2  C   UNL     1      -0.715  -1.238   0.000  0.00  0.00    +0.000 A 
ATOM      3  C   UNL     1       0.000  -1.650   0.000  0.00  0.00    +0.000 A 
ATOM      4  O   UNL     1       0.000  -2.475   0.000  0.00  0.00    +0.000 OA
ATOM      5  C   UNL     1       0.715  -1.238   0.000  0.00  0.00    +0.000 A 
ATOM      6  C   UNL     1       0.715  -0.412   0.000  0.00  0.00    +0.000 A 
ATOM      7  O   UNL     1       0.000   0.000   0.000  0.00  0.00    +0.000 OA
ATOM      8  C   UNL     1       1.429   0.000   0.000  0.00  0.00    +0.000 A 
ATOM      9  C   UNL     1       2.143  -0.412   0.000  0.00  0.00    +0.000 A 
ATOM     10  C   UNL     1       2.143  -1.238   0.000  0.00  0.00    +0.000 A 
ATOM     11  C   UNL     1       1.429  -1.650   0.000  0.00  0.00    +0.000 A 
ENDROOT
BRANCH   1  15
ATOM     12  C   UNL     1      -2.858   0.825   0.000  0.00  0.00    +0.000 A 
ATOM     13  C   UNL     1      -2.143   1.238   0.000  0.00  0.00    +0.000 A 
ATOM     14  C   UNL     1      -1.429   0.825   0.000  0.00  0.00    +0.000 A 
ATOM     15  C   UNL     1      -1.429   0.000   0.000  0.00  0.00    +0.000 A 
ATOM     16  C   UNL     1      -2.143  -0.412   0.000  0.00  0.00    +0.000 A 
ATOM     17  C   UNL     1      -2.858   0.000   0.000  0.00  0.00    +0.000 A 
BRANCH  17  18
ATOM     18  O   UNL     1      -3.572  -0.412   0.000  0.00  0.00    +0.000 OA
ATOM     19  C   UNL     1      -4.287   0.000   0.000  0.00  0.00    +0.000 C 
ENDBRANCH  17  18
BRANCH  12  21
ATOM     20  C   UNL     1      -4.287   0.825   0.000  0.00  0.00    +0.000 C 
ATOM     21  O   UNL     1      -3.572   1.238   0.000  0.00  0.00    +0.000 OA
ENDBRANCH  12  21
ENDBRANCH   1  15
BRANCH  11  22
ATOM     22  O   UNL     1       1.429  -2.475   0.000  0.00  0.00    +0.000 OA
ATOM     23  C   UNL     1       0.715  -2.888   0.000  0.00  0.00    +0.000 C 
ENDBRANCH  11  22
BRANCH   9  24
ATOM     24  O   UNL     1       2.858   0.000   0.000  0.00  0.00    +0.000 OA
BRANCH  24  25
ATOM     25  C   UNL     1       2.858   0.825   0.000  0.00  0.00    +0.000 C 
BRANCH  25  26
ATOM     26  C   UNL     1       3.572   1.238   0.000  0.00  0.00    +0.000 C 
ATOM     27  O   UNL     1       3.572   2.062   0.000  0.00  0.00    +0.000 OA
ATOM     28  O   UNL     1       4.287   0.825   0.000  0.00  0.00    +0.000 OA
ENDBRANCH  25  26
ENDBRANCH  24  25
ENDBRANCH   9  24
TORSDOF 7
