REMARK  Name = 
REMARK  7 active torsions:
REMARK  status: ('A' for Active; 'I' for Inactive)
REMARK    1  A    between atoms: C_5  and  C_6
REMARK    2  A    between atoms: C_7  and  C_8
REMARK    3  A    between atoms: C_7  and  C_10
REMARK    4  A    between atoms: N_12  and  C_13
REMARK    5  A    between atoms: C_13  and  C_14
REMARK    6  A    between atoms: C_14  and  C_15
REMARK    7  A    between atoms: C_15  and  C_16
REMARK                            x       y       z     vdW  Elec       q    Type
REMARK                         _______ _______ _______ _____ _____    ______ ____
ROOT
ATOM      1  C   UNL     1      -1.786   0.825   0.000  0.00  0.00    +0.000 C 
ATOM      2  C   UNL     1      -1.072   0.412   0.000  0.00  0.00    +0.000 C 
ENDROOT
BRANCH   1   7
ATOM      3  O   UNL     1      -4.644  -0.825   0.000  0.00  0.00    +0.000 OA
ATOM      4  C   UNL     1      -3.929  -0.412   0.000  0.00  0.00    +0.000 A 
ATOM      5  C   UNL     1      -3.929   0.412   0.000  0.00  0.00    +0.000 A 
ATOM      6  C   UNL     1      -3.215   0.825   0.000  0.00  0.00    +0.000 A 
ATOM      7  C   UNL     1      -2.501   0.412   0.000  0.00  0.00    +0.000 A 
ATOM      8  C   UNL     1      -2.501  -0.412   0.000  0.00  0.00    +0.000 A 
ATOM      9  C   UNL     1      -3.215  -0.825   0.000  0.00  0.00    +0.000 A 
ATOM     10  O   UNL     1      -3.215  -1.650   0.000  0.00  0.00    +0.000 OA
ENDBRANCH   1   7
BRANCH   2  11
ATOM     11  C   UNL     1      -0.357   0.825   0.000  0.00  0.00    +0.000 C 
ATOM     12  O   UNL     1      -0.357   1.650   0.000  0.00  0.00    +0.000 OA
ATOM     13  N   UNL     1       0.357   0.412   0.000  0.00  0.00    +0.000 NA
BRANCH  13  14
ATOM     14  C   UNL     1       1.072   0.825   0.000  0.00  0.00    +0.000 C 
BRANCH  14  15
ATOM     15  C   UNL     1       1.786   0.412   0.000  0.00  0.00    +0.000 C 
BRANCH  15  16
ATOM     16  C   UNL     1       2.501   0.825   0.000  0.00  0.00    +0.000 C 
BRANCH  16  17
ATOM     17  C   UNL     1       3.215   0.412   0.000  0.00  0.00    +0.000 A 
ATOM     18  C   UNL     1       3.929   0.825   0.000  0.00  0.00    +0.000 A 
ATOM     19  C   UNL     1       4.644   0.412   0.000  0.00  0.00    +0.000 A 
ATOM     20  C   UNL     1       4.644  -0.412   0.000  0.00  0.00    +0.000 A 
ATOM     21  C   UNL     1       3.929  -0.825   0.000  0.00  0.00    +0.000 A 
ATOM     22  C   UNL     1       3.215  -0.412   0.000  0.00  0.00    +0.000 A 
ENDBRANCH  16  17
ENDBRANCH  15  16
ENDBRANCH  14  15
ENDBRANCH  13  14
ENDBRANCH   2  11
BRANCH   2  23
ATOM     23  C   UNL     1      -1.072  -0.412   0.000  0.00  0.00    +0.000 C 
ATOM     24  N   UNL     1      -1.072  -1.238   0.000  0.00  0.00    +0.000 NA
ENDBRANCH   2  23
TORSDOF 7
