REMARK  Name = 
REMARK  3 active torsions:
REMARK  status: ('A' for Active; 'I' for Inactive)
REMARK    1  A    between atoms: N_3  and  C_5
REMARK    2  A    between atoms: C_5  and  C_6
REMARK    3  A    between atoms: C_9  and  C_12
REMARK                            x       y       z     vdW  Elec       q    Type
REMARK                         _______ _______ _______ _____ _____    ______ ____
ROOT
ATOM      1  C   UNL     1       0.000   0.000   0.000  0.00  0.00    +0.000 A 
ATOM      2  C   UNL     1       0.709   0.422   0.000  0.00  0.00    +0.000 A 
ATOM      3  C   UNL     1       0.000  -0.824   0.000  0.00  0.00    +0.000 A 
ATOM      4  C   UNL     1       1.438   0.000   0.000  0.00  0.00    +0.000 A 
ATOM      5  C   UNL     1       0.709  -1.246   0.000  0.00  0.00    +0.000 A 
ATOM      6  C   UNL     1       1.438  -0.824   0.000  0.00  0.00    +0.000 A 
ENDROOT
BRANCH   4   7
ATOM      7  C   UNL     1       2.147   0.422   0.000  0.00  0.00    +0.000 C 
ATOM      8  N   UNL     1       2.875   0.000   0.000  0.00  0.00    +0.000 NA
ENDBRANCH   4   7
BRANCH   1   9
ATOM      9  C   UNL     1      -0.728   0.422   0.000  0.00  0.00    +0.000 C 
BRANCH   9  12
ATOM     10  C   UNL     1      -2.166   0.422   0.000  0.00  0.00    +0.000 C 
ATOM     11  C   UNL     1      -2.875   0.000   0.000  0.00  0.00    +0.000 C 
ATOM     12  N   UNL     1      -1.457   0.000   0.000  0.00  0.00    +0.000 NA
ATOM     13  N   UNL     1      -2.166   1.246   0.000  0.00  0.00    +0.000 NA
ENDBRANCH   9  12
ENDBRANCH   1   9
TORSDOF 3
