REMARK  Name = 
REMARK  2 active torsions:
REMARK  status: ('A' for Active; 'I' for Inactive)
REMARK    1  A    between atoms: C_23  and  C_24
REMARK    2  A    between atoms: C_33  and  O_41
REMARK                            x       y       z     vdW  Elec       q    Type
REMARK                         _______ _______ _______ _____ _____    ______ ____
ROOT
ATOM      1  C   UNL     1       3.320  -2.936   0.000  0.00  0.00    +0.000 C 
ATOM      2  N   UNL     1       3.634  -2.174   0.000  0.00  0.00    +0.000 N 
ATOM      3  C   UNL     1       3.130  -1.520   0.000  0.00  0.00    +0.000 C 
ATOM      4  C   UNL     1       2.312  -1.629   0.000  0.00  0.00    +0.000 C 
ATOM      5  O   UNL     1       1.809  -0.976   0.000  0.00  0.00    +0.000 OA
ATOM      6  C   UNL     1       0.991  -1.085   0.000  0.00  0.00    +0.000 C 
ATOM      7  C   UNL     1       0.487  -0.432   0.000  0.00  0.00    +0.000 C 
ATOM      8  N   UNL     1       0.795   0.417   0.000  0.00  0.00    +0.000 NA
ATOM      9  S   UNL     1       0.517   1.194   0.000  0.00  0.00    +0.000 S 
ATOM     10  O   UNL     1      -0.226   0.837   0.000  0.00  0.00    +0.000 OA
ATOM     11  O   UNL     1       0.085   1.897   0.000  0.00  0.00    +0.000 OA
ATOM     12  N   UNL     1       1.171   1.698   0.000  0.00  0.00    +0.000 NA
ATOM     13  C   UNL     1       1.852   1.232   0.000  0.00  0.00    +0.000 C 
ATOM     14  O   UNL     1       1.644   0.434   0.000  0.00  0.00    +0.000 OA
ATOM     15  C   UNL     1       2.751   1.313   0.000  0.00  0.00    +0.000 A 
ATOM     16  C   UNL     1       3.152   2.034   0.000  0.00  0.00    +0.000 A 
ATOM     17  C   UNL     1       3.977   2.047   0.000  0.00  0.00    +0.000 A 
ATOM     18  C   UNL     1       4.401   1.339   0.000  0.00  0.00    +0.000 A 
ATOM     19  C   UNL     1       4.072   0.769   0.000  0.00  0.00    +0.000 A 
ATOM     20  C   UNL     1       3.255   0.659   0.000  0.00  0.00    +0.000 A 
ATOM     21  N   UNL     1       4.576   0.115   0.000  0.00  0.00    +0.000 N 
ATOM     22  C   UNL     1       5.310   0.362   0.000  0.00  0.00    +0.000 A 
ATOM     23  C   UNL     1       5.210   1.181   0.000  0.00  0.00    +0.000 A 
ATOM     24  C   UNL     1       6.048  -0.007   0.000  0.00  0.00    +0.000 A 
ATOM     25  C   UNL     1       6.661   0.546   0.000  0.00  0.00    +0.000 A 
ATOM     26  C   UNL     1       7.446   0.292   0.000  0.00  0.00    +0.000 A 
ATOM     27  C   UNL     1       7.618  -0.515   0.000  0.00  0.00    +0.000 A 
ATOM     28  C   UNL     1       7.005  -1.068   0.000  0.00  0.00    +0.000 A 
ATOM     29  C   UNL     1       6.221  -0.814   0.000  0.00  0.00    +0.000 A 
ATOM     30  C   UNL     1       5.697  -1.451   0.000  0.00  0.00    +0.000 C 
ATOM     31  C   UNL     1       4.766  -1.301   0.000  0.00  0.00    +0.000 C 
ATOM     32  C   UNL     1       4.262  -0.648   0.000  0.00  0.00    +0.000 C 
ATOM     33  C   UNL     1       4.451  -2.064   0.000  0.00  0.00    +0.000 C 
ATOM     34  O   UNL     1       4.955  -2.717   0.000  0.00  0.00    +0.000 OA
ATOM     35  C   UNL     1      -0.030   0.419   0.000  0.00  0.00    +0.000 C 
ENDROOT
BRANCH  23  36
ATOM     36  C   UNL     1       5.815   1.742   0.000  0.00  0.00    +0.000 C 
ATOM     37  C   UNL     1       5.630   2.546   0.000  0.00  0.00    +0.000 C 
ATOM     38  C   UNL     1       6.234   3.108   0.000  0.00  0.00    +0.000 C 
ATOM     39  C   UNL     1       7.023   2.866   0.000  0.00  0.00    +0.000 C 
ATOM     40  C   UNL     1       7.207   2.062   0.000  0.00  0.00    +0.000 C 
ATOM     41  C   UNL     1       6.603   1.500   0.000  0.00  0.00    +0.000 C 
ENDBRANCH  23  36
BRANCH  27  42
ATOM     42  O   UNL     1       8.403  -0.769   0.000  0.00  0.00    +0.000 OA
ATOM     43  C   UNL     1       8.575  -1.576   0.000  0.00  0.00    +0.000 C 
ENDBRANCH  27  42
TORSDOF 2
