REMARK  Name = 
REMARK  3 active torsions:
REMARK  status: ('A' for Active; 'I' for Inactive)
REMARK    1  A    between atoms: C_3  and  O_21
REMARK    2  A    between atoms: C_7  and  C_16
REMARK    3  A    between atoms: O_21  and  C_25
REMARK                            x       y       z     vdW  Elec       q    Type
REMARK                         _______ _______ _______ _____ _____    ______ ____
ROOT
ATOM      1  C   UNL     1       0.534  -1.016   0.000  0.00  0.00    +0.000 C 
ATOM      2  O   UNL     1       4.061  -1.454   0.000  0.00  0.00    +0.000 OA
ATOM      3  C   UNL     1       3.350  -1.031   0.000  0.00  0.00    +0.000 C 
ATOM      4  C   UNL     1      -0.889  -1.844   0.000  0.00  0.00    +0.000 C 
ATOM      5  C   UNL     1       4.071  -0.626   0.000  0.00  0.00    +0.000 C 
ATOM      6  C   UNL     1      -0.894  -1.021   0.000  0.00  0.00    +0.000 C 
ATOM      7  O   UNL     1      -0.183  -0.607   0.000  0.00  0.00    +0.000 OA
ATOM      8  C   UNL     1      -0.173  -2.254   0.000  0.00  0.00    +0.000 C 
ATOM      9  C   UNL     1       0.538  -1.835   0.000  0.00  0.00    +0.000 C 
ATOM     10  C   UNL     1       1.245  -0.597   0.000  0.00  0.00    +0.000 C 
ATOM     11  C   UNL     1       4.081   0.197   0.000  0.00  0.00    +0.000 C 
ATOM     12  C   UNL     1       4.807   1.425   0.000  0.00  0.00    +0.000 C 
ATOM     13  C   UNL     1       2.673  -0.592   0.000  0.00  0.00    +0.000 C 
ATOM     14  C   UNL     1      -1.610  -0.612   0.000  0.00  0.00    +0.000 C 
ATOM     15  O   UNL     1       4.096   1.844   0.000  0.00  0.00    +0.000 OA
ATOM     16  C   UNL     1       4.802   0.602   0.000  0.00  0.00    +0.000 C 
ATOM     17  C   UNL     1      -1.610   0.212   0.000  0.00  0.00    +0.000 C 
ATOM     18  C   UNL     1       1.961  -1.006   0.000  0.00  0.00    +0.000 C 
ATOM     19  O   UNL     1       5.528   1.835   0.000  0.00  0.00    +0.000 OA
ATOM     20  C   UNL     1       0.534   3.087   0.000  0.00  0.00    +0.000 C 
ATOM     21  C   UNL     1      -0.183   2.677   0.000  0.00  0.00    +0.000 C 
ATOM     22  C   UNL     1      -0.183   1.854   0.000  0.00  0.00    +0.000 C 
ATOM     23  C   UNL     1       1.245   2.677   0.000  0.00  0.00    +0.000 C 
ATOM     24  C   UNL     1      -0.899   1.445   0.000  0.00  0.00    +0.000 C 
ATOM     25  C   UNL     1       1.961   3.087   0.000  0.00  0.00    +0.000 C 
ATOM     26  C   UNL     1      -0.894   0.621   0.000  0.00  0.00    +0.000 C 
ATOM     27  O   UNL     1       0.538  -0.188   0.000  0.00  0.00    +0.000 OA
ATOM     28  C   UNL     1       2.673   2.673   0.000  0.00  0.00    +0.000 C 
ATOM     29  O   UNL     1      -0.173  -3.082   0.000  0.00  0.00    +0.000 OA
ATOM     30  C   UNL     1       4.100   2.668   0.000  0.00  0.00    +0.000 C 
ATOM     31  O   UNL     1       1.961  -1.835   0.000  0.00  0.00    +0.000 OA
ATOM     32  C   UNL     1       3.389   3.082   0.000  0.00  0.00    +0.000 C 
ATOM     33  C   UNL     1       4.822   3.077   0.000  0.00  0.00    +0.000 C 
ENDROOT
BRANCH   4  34
ATOM     34  C   UNL     1      -1.605  -2.259   0.000  0.00  0.00    +0.000 C 
ATOM     35  O   UNL     1      -1.605  -3.087   0.000  0.00  0.00    +0.000 OA
ATOM     36  O   UNL     1      -2.327  -1.849   0.000  0.00  0.00    +0.000 OA
ENDBRANCH   4  34
BRANCH  17  37
ATOM     37  O   UNL     1      -2.331   0.631   0.000  0.00  0.00    +0.000 OA
BRANCH  37  38
ATOM     38  C   UNL     1      -3.043   0.207   0.000  0.00  0.00    +0.000 C 
ATOM     39  C   UNL     1      -3.457  -0.509   0.000  0.00  0.00    +0.000 C 
ATOM     40  C   UNL     1      -4.281  -0.509   0.000  0.00  0.00    +0.000 C 
ATOM     41  O   UNL     1      -3.457   0.923   0.000  0.00  0.00    +0.000 OA
ATOM     42  C   UNL     1      -4.700   0.207   0.000  0.00  0.00    +0.000 C 
ATOM     43  C   UNL     1      -4.281   0.923   0.000  0.00  0.00    +0.000 C 
ATOM     44  N   UNL     1      -4.695  -1.226   0.000  0.00  0.00    +0.000 NA
ATOM     45  O   UNL     1      -3.038  -1.226   0.000  0.00  0.00    +0.000 OA
ATOM     46  O   UNL     1      -5.528   0.207   0.000  0.00  0.00    +0.000 OA
ATOM     47  C   UNL     1      -4.695   1.645   0.000  0.00  0.00    +0.000 C 
ENDBRANCH  37  38
ENDBRANCH  17  37
TORSDOF 3
