REMARK  Name = 
REMARK  2 active torsions:
REMARK  status: ('A' for Active; 'I' for Inactive)
REMARK    1  A    between atoms: C_2  and  C_26
REMARK    2  A    between atoms: C_27  and  C_28
REMARK                            x       y       z     vdW  Elec       q    Type
REMARK                         _______ _______ _______ _____ _____    ______ ____
ROOT
ATOM      1  C   UNL     1      -0.768   0.175   0.000  0.00  0.00    +0.000 C 
ATOM      2  C   UNL     1      -0.583  -0.629   0.000  0.00  0.00    +0.000 C 
ATOM      3  O   UNL     1       0.161  -0.986   0.000  0.00  0.00    +0.000 OA
ATOM      4  C   UNL     1       1.086   0.178   0.000  0.00  0.00    +0.000 C 
ATOM      5  C   UNL     1       0.904  -0.626   0.000  0.00  0.00    +0.000 C 
ATOM      6  C   UNL     1      -0.771   2.032   0.000  0.00  0.00    +0.000 C 
ATOM      7  C   UNL     1      -0.588   2.837   0.000  0.00  0.00    +0.000 C 
ATOM      8  C   UNL     1       0.155   3.195   0.000  0.00  0.00    +0.000 C 
ATOM      9  C   UNL     1       1.082   2.032   0.000  0.00  0.00    +0.000 C 
ATOM     10  C   UNL     1       0.899   2.837   0.000  0.00  0.00    +0.000 C 
ATOM     11  C   UNL     1       1.890   0.364   0.000  0.00  0.00    +0.000 C 
ATOM     12  C   UNL     1       2.246   1.108   0.000  0.00  0.00    +0.000 C 
ATOM     13  C   UNL     1       1.887   1.850   0.000  0.00  0.00    +0.000 C 
ATOM     14  C   UNL     1      -1.573   0.359   0.000  0.00  0.00    +0.000 C 
ATOM     15  C   UNL     1      -1.931   1.102   0.000  0.00  0.00    +0.000 C 
ATOM     16  C   UNL     1      -1.573   1.845   0.000  0.00  0.00    +0.000 C 
ATOM     17  O   UNL     1       1.550  -1.139   0.000  0.00  0.00    +0.000 OA
ATOM     18  O   UNL     1       2.405  -0.280   0.000  0.00  0.00    +0.000 OA
ATOM     19  C   UNL     1       2.961   0.696   0.000  0.00  0.00    +0.000 C 
ATOM     20  C   UNL     1       2.961   1.511   0.000  0.00  0.00    +0.000 C 
ATOM     21  O   UNL     1       2.400   2.496   0.000  0.00  0.00    +0.000 OA
ATOM     22  C   UNL     1       0.500   1.448   0.000  0.00  0.00    +0.000 C 
ATOM     23  O   UNL     1       1.544   3.351   0.000  0.00  0.00    +0.000 OA
ATOM     24  C   UNL     1       0.155   4.020   0.000  0.00  0.00    +0.000 C 
ATOM     25  C   UNL     1      -2.755   1.099   0.000  0.00  0.00    +0.000 C 
ENDROOT
BRANCH   2  26
ATOM     26  C   UNL     1      -1.029  -1.321   0.000  0.00  0.00    +0.000 C 
ATOM     27  C   UNL     1      -0.653  -2.055   0.000  0.00  0.00    +0.000 C 
ATOM     28  C   UNL     1      -1.857  -1.321   0.000  0.00  0.00    +0.000 C 
BRANCH  27  29
ATOM     29  C   UNL     1      -1.101  -2.748   0.000  0.00  0.00    +0.000 A 
ATOM     30  N   UNL     1      -1.926  -2.752   0.000  0.00  0.00    +0.000 NA
ATOM     31  C   UNL     1      -2.178  -3.537   0.000  0.00  0.00    +0.000 A 
ATOM     32  C   UNL     1      -0.843  -3.532   0.000  0.00  0.00    +0.000 A 
ATOM     33  S   UNL     1      -1.508  -4.020   0.000  0.00  0.00    +0.000 S 
ATOM     34  C   UNL     1      -2.961  -3.795   0.000  0.00  0.00    +0.000 C 
ENDBRANCH  27  29
ENDBRANCH   2  26
TORSDOF 2
