REMARK  Name = 
REMARK  4 active torsions:
REMARK  status: ('A' for Active; 'I' for Inactive)
REMARK    1  A    between atoms: C_5  and  O_12
REMARK    2  A    between atoms: C_11  and  O_17
REMARK    3  A    between atoms: C_20  and  O_26
REMARK    4  A    between atoms: C_32  and  O_37
REMARK                            x       y       z     vdW  Elec       q    Type
REMARK                         _______ _______ _______ _____ _____    ______ ____
ROOT
ATOM      1  C   UNL     1       0.359   2.381   0.000  0.00  0.00    +0.000 A 
ATOM      2  C   UNL     1       1.073   1.967   0.000  0.00  0.00    +0.000 A 
ATOM      3  C   UNL     1      -0.355   1.970   0.000  0.00  0.00    +0.000 C 
ATOM      4  C   UNL     1       0.362   3.205   0.000  0.00  0.00    +0.000 A 
ATOM      5  C   UNL     1       1.792   2.381   0.000  0.00  0.00    +0.000 A 
ATOM      6  O   UNL     1       0.242  -0.035   0.000  0.00  0.00    +0.000 OA
ATOM      7  C   UNL     1      -0.359   1.146   0.000  0.00  0.00    +0.000 C 
ATOM      8  N   UNL     1      -1.070   2.388   0.000  0.00  0.00    +0.000 NA
ATOM      9  C   UNL     1       1.073   3.619   0.000  0.00  0.00    +0.000 A 
ATOM     10  C   UNL     1      -0.348   3.622   0.000  0.00  0.00    +0.000 C 
ATOM     11  C   UNL     1       1.792   3.205   0.000  0.00  0.00    +0.000 A 
ATOM     12  C   UNL     1       0.978  -0.410   0.000  0.00  0.00    +0.000 A 
ATOM     13  C   UNL     1      -1.073   0.739   0.000  0.00  0.00    +0.000 A 
ATOM     14  C   UNL     1      -1.052   3.205   0.000  0.00  0.00    +0.000 C 
ATOM     15  C   UNL     1      -1.784   1.988   0.000  0.00  0.00    +0.000 C 
ATOM     16  C   UNL     1       1.020  -1.234   0.000  0.00  0.00    +0.000 A 
ATOM     17  C   UNL     1       1.671   0.042   0.000  0.00  0.00    +0.000 A 
ATOM     18  C   UNL     1      -1.073  -0.085   0.000  0.00  0.00    +0.000 A 
ATOM     19  C   UNL     1      -1.784   1.157   0.000  0.00  0.00    +0.000 A 
ATOM     20  C   UNL     1       1.756  -1.609   0.000  0.00  0.00    +0.000 A 
ATOM     21  C   UNL     1       2.411  -0.340   0.000  0.00  0.00    +0.000 A 
ATOM     22  C   UNL     1      -1.792  -0.495   0.000  0.00  0.00    +0.000 A 
ATOM     23  C   UNL     1      -2.503   0.746   0.000  0.00  0.00    +0.000 A 
ATOM     24  C   UNL     1       2.446  -1.160   0.000  0.00  0.00    +0.000 A 
ATOM     25  C   UNL     1       1.799  -2.434   0.000  0.00  0.00    +0.000 C 
ATOM     26  C   UNL     1      -2.506  -0.081   0.000  0.00  0.00    +0.000 A 
ATOM     27  O   UNL     1      -1.795  -1.323   0.000  0.00  0.00    +0.000 OA
ATOM     28  C   UNL     1       3.182  -1.525   0.000  0.00  0.00    +0.000 C 
ATOM     29  C   UNL     1       1.105  -2.883   0.000  0.00  0.00    +0.000 C 
ATOM     30  N   UNL     1       2.538  -2.801   0.000  0.00  0.00    +0.000 NA
ATOM     31  C   UNL     1      -1.073  -1.719   0.000  0.00  0.00    +0.000 A 
ATOM     32  C   UNL     1       3.217  -2.345   0.000  0.00  0.00    +0.000 C 
ATOM     33  C   UNL     1       0.373  -2.511   0.000  0.00  0.00    +0.000 A 
ATOM     34  C   UNL     1       2.584  -3.622   0.000  0.00  0.00    +0.000 C 
ATOM     35  C   UNL     1      -0.366  -1.288   0.000  0.00  0.00    +0.000 A 
ATOM     36  C   UNL     1      -1.056  -2.547   0.000  0.00  0.00    +0.000 A 
ATOM     37  C   UNL     1       0.359  -1.684   0.000  0.00  0.00    +0.000 A 
ATOM     38  C   UNL     1      -0.331  -2.939   0.000  0.00  0.00    +0.000 A 
ENDROOT
BRANCH   5  39
ATOM     39  O   UNL     1       2.506   1.967   0.000  0.00  0.00    +0.000 OA
ATOM     40  C   UNL     1       3.210   2.381   0.000  0.00  0.00    +0.000 C 
ENDBRANCH   5  39
BRANCH  11  41
ATOM     41  O   UNL     1       2.506   3.619   0.000  0.00  0.00    +0.000 OA
ATOM     42  C   UNL     1       3.217   3.212   0.000  0.00  0.00    +0.000 C 
ENDBRANCH  11  41
BRANCH  17  43
ATOM     43  O   UNL     1       1.629   0.867   0.000  0.00  0.00    +0.000 OA
ATOM     44  C   UNL     1       2.322   1.312   0.000  0.00  0.00    +0.000 C 
ENDBRANCH  17  43
BRANCH  26  45
ATOM     45  O   UNL     1      -3.217  -0.485   0.000  0.00  0.00    +0.000 OA
ATOM     46  C   UNL     1      -3.217  -1.312   0.000  0.00  0.00    +0.000 C 
ENDBRANCH  26  45
TORSDOF 4
