REMARK  Name = 
REMARK  5 active torsions:
REMARK  status: ('A' for Active; 'I' for Inactive)
REMARK    1  A    between atoms: N_1  and  N_2
REMARK    2  A    between atoms: N_2  and  C_6
REMARK    3  A    between atoms: C_6  and  C_7
REMARK    4  A    between atoms: C_7  and  O_8
REMARK    5  A    between atoms: O_8  and  C_9
REMARK                            x       y       z     vdW  Elec       q    Type
REMARK                         _______ _______ _______ _____ _____    ______ ____
ROOT
ATOM      1  O   UNL     1       1.072  -0.412   0.000  0.00  0.00    +0.000 OA
ENDROOT
BRANCH   1   2
ATOM      2  C   UNL     1       1.786   0.000   0.000  0.00  0.00    +0.000 A 
ATOM      3  C   UNL     1       1.786   0.825   0.000  0.00  0.00    +0.000 A 
ATOM      4  C   UNL     1       2.501   1.238   0.000  0.00  0.00    +0.000 A 
ATOM      5  C   UNL     1       3.215   0.825   0.000  0.00  0.00    +0.000 A 
ATOM      6  C   UNL     1       3.215   0.000   0.000  0.00  0.00    +0.000 A 
ATOM      7  C   UNL     1       2.501  -0.412   0.000  0.00  0.00    +0.000 A 
ATOM      8 CL   UNL     1       2.501  -1.238   0.000  0.00  0.00    +0.000 Cl
ATOM      9 CL   UNL     1       1.072   1.238   0.000  0.00  0.00    +0.000 Cl
ENDBRANCH   1   2
BRANCH   1  10
ATOM     10  C   UNL     1       0.357   0.000   0.000  0.00  0.00    +0.000 C 
BRANCH  10  11
ATOM     11  C   UNL     1      -0.357  -0.412   0.000  0.00  0.00    +0.000 C 
BRANCH  11  12
ATOM     12  N   UNL     1      -1.072   0.000   0.000  0.00  0.00    +0.000 NA
BRANCH  12  13
ATOM     13  N   UNL     1      -1.786  -0.412   0.000  0.00  0.00    +0.000 NA
ATOM     14  C   UNL     1      -2.501   0.000   0.000  0.00  0.00    +0.000 C 
ATOM     15  N   UNL     1      -2.501   0.825   0.000  0.00  0.00    +0.000 NA
ATOM     16  N   UNL     1      -3.215  -0.412   0.000  0.00  0.00    +0.000 NA
ENDBRANCH  12  13
ENDBRANCH  11  12
ENDBRANCH  10  11
ENDBRANCH   1  10
TORSDOF 5
