REMARK  Name = 
REMARK  3 active torsions:
REMARK  status: ('A' for Active; 'I' for Inactive)
REMARK    1  A    between atoms: C5*_2  and  C4*_3
REMARK    2  A    between atoms: C1*_7  and  N_9
REMARK    3  A    between atoms: C_15  and  C_17
REMARK                            x       y       z     vdW  Elec       q    Type
REMARK                         _______ _______ _______ _____ _____    ______ ____
ROOT
ATOM      1  N   UNL     1       0.583  -0.211   0.000  0.00  0.00    +0.000 N 
ATOM      2  C   UNL     1       1.191  -0.764   0.000  0.00  0.00    +0.000 A 
ATOM      3  O   UNL     1       1.015  -1.571   0.000  0.00  0.00    +0.000 OA
ATOM      4  N   UNL     1       1.978  -0.514   0.000  0.00  0.00    +0.000 NA
ATOM      5  C   UNL     1       2.155   0.289   0.000  0.00  0.00    +0.000 A 
ATOM      6  O   UNL     1       2.941   0.539   0.000  0.00  0.00    +0.000 OA
ATOM      7  C   UNL     1       1.545   0.846   0.000  0.00  0.00    +0.000 A 
ATOM      8  C   UNL     1       0.759   0.596   0.000  0.00  0.00    +0.000 A 
ENDROOT
BRANCH   1  13
ATOM      9  C4* UNL     1      -1.538  -0.452   0.000  0.00  0.00    +0.000 C 
ATOM     10  C3* UNL     1      -1.288  -1.238   0.000  0.00  0.00    +0.000 C 
ATOM     11  O3* UNL     1      -1.780  -1.903   0.000  0.00  0.00    +0.000 OA
ATOM     12  C2* UNL     1      -0.464  -1.242   0.000  0.00  0.00    +0.000 C 
ATOM     13  C1* UNL     1      -0.204  -0.461   0.000  0.00  0.00    +0.000 C 
ATOM     14  O4* UNL     1      -0.868   0.030   0.000  0.00  0.00    +0.000 OA
BRANCH   9  16
ATOM     15  O5* UNL     1      -2.941  -0.739   0.000  0.00  0.00    +0.000 OA
ATOM     16  C5* UNL     1      -2.323  -0.193   0.000  0.00  0.00    +0.000 C 
ENDBRANCH   9  16
ENDBRANCH   1  13
BRANCH   7  17
ATOM     17  C   UNL     1       1.721   1.653   0.000  0.00  0.00    +0.000 C 
ATOM     18  C   UNL     1       2.507   1.903   0.000  0.00  0.00    +0.000 C 
ENDBRANCH   7  17
TORSDOF 3
