REMARK  Name = 
REMARK  3 active torsions:
REMARK  status: ('A' for Active; 'I' for Inactive)
REMARK    1  A    between atoms: C_7  and  C_10
REMARK    2  A    between atoms: C_10  and  C_12
REMARK    3  A    between atoms: C_14  and  O_17
REMARK                            x       y       z     vdW  Elec       q    Type
REMARK                         _______ _______ _______ _____ _____    ______ ____
ROOT
ATOM      1  C   UNL     1       0.006  -0.354   0.000  0.00  0.00    +0.000 A 
ATOM      2  C   UNL     1       0.006   0.469   0.000  0.00  0.00    +0.000 A 
ATOM      3  C   UNL     1      -0.727  -0.737   0.000  0.00  0.00    +0.000 A 
ATOM      4  N   UNL     1       0.795  -0.627   0.000  0.00  0.00    +0.000 NA
ATOM      5  N   UNL     1       0.795   0.718   0.000  0.00  0.00    +0.000 NA
ATOM      6  C   UNL     1      -0.664   0.937   0.000  0.00  0.00    +0.000 A 
ATOM      7  C   UNL     1      -1.428  -0.281   0.000  0.00  0.00    +0.000 A 
ATOM      8  C   UNL     1       1.278   0.044   0.000  0.00  0.00    +0.000 A 
ATOM      9  C   UNL     1      -1.428   0.508   0.000  0.00  0.00    +0.000 A 
ATOM     10  N   UNL     1       2.095   0.044   0.000  0.00  0.00    +0.000 NA
ATOM     11  C   UNL     1       2.507   0.758   0.000  0.00  0.00    +0.000 C 
ATOM     12  O   UNL     1       1.999   1.476   0.000  0.00  0.00    +0.000 OA
ENDROOT
BRANCH   7  13
ATOM     13  C   UNL     1      -2.159  -0.666   0.000  0.00  0.00    +0.000 C 
ATOM     14  O   UNL     1      -2.153  -1.476   0.000  0.00  0.00    +0.000 OA
BRANCH  13  15
ATOM     15  C   UNL     1      -2.872  -0.250   0.000  0.00  0.00    +0.000 C 
ATOM     16  C   UNL     1      -3.300   0.452   0.000  0.00  0.00    +0.000 C 
ATOM     17  C   UNL     1      -3.707  -0.250   0.000  0.00  0.00    +0.000 C 
ENDBRANCH  13  15
ENDBRANCH   7  13
BRANCH  11  18
ATOM     18  O   UNL     1       3.311   0.764   0.000  0.00  0.00    +0.000 OA
ATOM     19  C   UNL     1       3.707   1.476   0.000  0.00  0.00    +0.000 C 
ENDBRANCH  11  18
TORSDOF 3
