REMARK  Name = 
REMARK  14 active torsions:
REMARK  status: ('A' for Active; 'I' for Inactive)
REMARK    1  A    between atoms: C_2  and  O_5
REMARK    2  A    between atoms: O_5  and  C_6
REMARK    3  A    between atoms: N_8  and  C_9
REMARK    4  A    between atoms: C_9  and  C_10
REMARK    5  A    between atoms: C_9  and  C_14
REMARK    6  A    between atoms: C_18  and  C_33
REMARK    7  A    between atoms: C_20  and  O_21
REMARK    8  A    between atoms: O_21  and  C_22
REMARK    9  A    between atoms: C_24  and  O_32
REMARK   10  A    between atoms: N_35  and  C_36
REMARK   11  A    between atoms: C_36  and  C_41
REMARK   12  A    between atoms: C_37  and  C_39
REMARK   13  A    between atoms: N_42  and  S_44
REMARK   14  A    between atoms: S_44  and  C_47
REMARK                            x       y       z     vdW  Elec       q    Type
REMARK                         _______ _______ _______ _____ _____    ______ ____
ROOT
ATOM      1  C   UNL     1      -1.119  -1.765   0.000  0.00  0.00    +0.000 C 
ATOM      2  O   UNL     1      -1.532  -1.050   0.000  0.00  0.00    +0.000 OA
ATOM      3  N   UNL     1      -0.536  -1.182   0.000  0.00  0.00    +0.000 N 
ATOM      4  C   UNL     1       0.191  -0.062   0.000  0.00  0.00    +0.000 C 
ATOM      5  C   UNL     1      -0.579  -0.358   0.000  0.00  0.00    +0.000 C 
ATOM      6  C   UNL     1       0.261  -1.395   0.000  0.00  0.00    +0.000 C 
ATOM      7  C   UNL     1       0.710  -0.703   0.000  0.00  0.00    +0.000 C 
ENDROOT
BRANCH   5   8
ATOM      8  C   UNL     1      -1.294   0.055   0.000  0.00  0.00    +0.000 C 
ATOM      9  O   UNL     1      -1.294   0.880   0.000  0.00  0.00    +0.000 OA
ATOM     10  N   UNL     1      -2.008  -0.358   0.000  0.00  0.00    +0.000 NA
BRANCH  10  11
ATOM     11  C   UNL     1      -2.722   0.055   0.000  0.00  0.00    +0.000 C 
ATOM     12  C   UNL     1      -3.306  -0.529   0.000  0.00  0.00    +0.000 C 
ATOM     13  C   UNL     1      -3.519   0.268   0.000  0.00  0.00    +0.000 C 
BRANCH  11  14
ATOM     14  C   UNL     1      -2.722   0.880   0.000  0.00  0.00    +0.000 C 
ATOM     15  N   UNL     1      -2.310   1.594   0.000  0.00  0.00    +0.000 NA
ATOM     16  O   UNL     1      -3.437   1.292   0.000  0.00  0.00    +0.000 OA
BRANCH  15  17
ATOM     17  S   UNL     1      -2.310   2.419   0.000  0.00  0.00    +0.000 S 
ATOM     18  O   UNL     1      -3.135   2.419   0.000  0.00  0.00    +0.000 OA
ATOM     19  O   UNL     1      -2.893   3.002   0.000  0.00  0.00    +0.000 OA
BRANCH  17  20
ATOM     20  C   UNL     1      -1.595   2.832   0.000  0.00  0.00    +0.000 C 
ATOM     21  C   UNL     1      -1.382   3.628   0.000  0.00  0.00    +0.000 C 
ATOM     22  C   UNL     1      -0.970   2.914   0.000  0.00  0.00    +0.000 C 
ENDBRANCH  17  20
ENDBRANCH  15  17
ENDBRANCH  11  14
BRANCH  12  23
ATOM     23  C   UNL     1      -4.103  -0.742   0.000  0.00  0.00    +0.000 C 
ATOM     24  C   UNL     1      -4.686  -0.159   0.000  0.00  0.00    +0.000 C 
ENDBRANCH  12  23
ENDBRANCH  10  11
ENDBRANCH   5   8
BRANCH   7  25
ATOM     25  O   UNL     1       1.425  -1.116   0.000  0.00  0.00    +0.000 OA
BRANCH  25  26
ATOM     26  C   UNL     1       2.139  -0.703   0.000  0.00  0.00    +0.000 A 
ATOM     27  C   UNL     1       3.519  -0.333   0.000  0.00  0.00    +0.000 A 
ATOM     28  C   UNL     1       3.306   0.463   0.000  0.00  0.00    +0.000 A 
ATOM     29  C   UNL     1       2.509   0.677   0.000  0.00  0.00    +0.000 A 
ATOM     30  N   UNL     1       1.926   0.094   0.000  0.00  0.00    +0.000 NA
ATOM     31  C   UNL     1       2.936  -0.917   0.000  0.00  0.00    +0.000 A 
ATOM     32  C   UNL     1       3.150  -1.714   0.000  0.00  0.00    +0.000 A 
ATOM     33  C   UNL     1       3.946  -1.927   0.000  0.00  0.00    +0.000 A 
ATOM     34  C   UNL     1       4.530  -1.344   0.000  0.00  0.00    +0.000 A 
ATOM     35  C   UNL     1       4.316  -0.547   0.000  0.00  0.00    +0.000 A 
ATOM     36 CL   UNL     1       4.182  -2.723   0.000  0.00  0.00    +0.000 Cl
BRANCH  28  37
ATOM     37  O   UNL     1       3.889   1.047   0.000  0.00  0.00    +0.000 OA
ATOM     38  C   UNL     1       4.686   1.260   0.000  0.00  0.00    +0.000 C 
ENDBRANCH  28  37
ENDBRANCH  25  26
ENDBRANCH   7  25
BRANCH   1  39
ATOM     39  C   UNL     1      -1.119  -2.590   0.000  0.00  0.00    +0.000 C 
BRANCH  39  40
ATOM     40  C   UNL     1      -0.322  -2.804   0.000  0.00  0.00    +0.000 C 
ATOM     41  C   UNL     1      -0.322  -3.628   0.000  0.00  0.00    +0.000 C 
ATOM     42  C   UNL     1       0.261  -2.220   0.000  0.00  0.00    +0.000 C 
ATOM     43  C   UNL     1       0.474  -3.017   0.000  0.00  0.00    +0.000 C 
ENDBRANCH  39  40
BRANCH  39  46
ATOM     44  C   UNL     1      -2.417  -2.761   0.000  0.00  0.00    +0.000 C 
ATOM     45  O   UNL     1      -2.417  -1.936   0.000  0.00  0.00    +0.000 OA
ATOM     46  N   UNL     1      -1.703  -3.173   0.000  0.00  0.00    +0.000 NA
BRANCH  44  47
ATOM     47  O   UNL     1      -3.132  -3.173   0.000  0.00  0.00    +0.000 OA
BRANCH  47  49
ATOM     48  C   UNL     1      -4.429  -3.344   0.000  0.00  0.00    +0.000 C 
ATOM     49  C   UNL     1      -3.846  -2.761   0.000  0.00  0.00    +0.000 C 
ATOM     50  C   UNL     1      -4.429  -2.177   0.000  0.00  0.00    +0.000 C 
ATOM     51  C   UNL     1      -3.434  -2.046   0.000  0.00  0.00    +0.000 C 
ENDBRANCH  47  49
ENDBRANCH  44  47
ENDBRANCH  39  46
ENDBRANCH   1  39
TORSDOF 14
