REMARK  Name = 
REMARK  6 active torsions:
REMARK  status: ('A' for Active; 'I' for Inactive)
REMARK    1  A    between atoms: C_7  and  C_15
REMARK    2  A    between atoms: C_9  and  C_11
REMARK    3  A    between atoms: C_19  and  C_21
REMARK    4  A    between atoms: C_21  and  C_22
REMARK    5  A    between atoms: C_22  and  C_23
REMARK    6  A    between atoms: C_23  and  N_24
REMARK                            x       y       z     vdW  Elec       q    Type
REMARK                         _______ _______ _______ _____ _____    ______ ____
ROOT
ATOM      1  C   UNL     1      -2.143  -2.888   0.000  0.00  0.00    +0.000 C 
ATOM      2  C   UNL     1      -1.429  -3.300   0.000  0.00  0.00    +0.000 C 
ATOM      3  N   UNL     1      -0.715  -2.888   0.000  0.00  0.00    +0.000 N 
ATOM      4  C   UNL     1      -0.715  -2.062   0.000  0.00  0.00    +0.000 C 
ATOM      5  C   UNL     1      -1.429  -1.650   0.000  0.00  0.00    +0.000 A 
ATOM      6  C   UNL     1      -2.143  -2.062   0.000  0.00  0.00    +0.000 A 
ATOM      7  C   UNL     1      -2.858  -1.650   0.000  0.00  0.00    +0.000 A 
ATOM      8  N   UNL     1      -2.858  -0.825   0.000  0.00  0.00    +0.000 NA
ATOM      9  C   UNL     1      -2.143  -0.412   0.000  0.00  0.00    +0.000 A 
ATOM     10  N   UNL     1      -1.429  -0.825   0.000  0.00  0.00    +0.000 NA
ATOM     11  C   UNL     1       0.000  -3.300   0.000  0.00  0.00    +0.000 C 
ATOM     12  O   UNL     1       0.000  -4.125   0.000  0.00  0.00    +0.000 OA
ENDROOT
BRANCH   7  13
ATOM     13  C   UNL     1      -3.572  -2.062   0.000  0.00  0.00    +0.000 C 
ATOM     14  F   UNL     1      -4.287  -2.475   0.000  0.00  0.00    +0.000 F 
ATOM     15  F   UNL     1      -3.985  -1.348   0.000  0.00  0.00    +0.000 F 
ATOM     16  F   UNL     1      -3.160  -2.777   0.000  0.00  0.00    +0.000 F 
ENDBRANCH   7  13
BRANCH   9  17
ATOM     17  C   UNL     1      -2.143   0.412   0.000  0.00  0.00    +0.000 C 
ATOM     18  F   UNL     1      -2.143   1.238   0.000  0.00  0.00    +0.000 F 
ATOM     19  F   UNL     1      -2.968   0.412   0.000  0.00  0.00    +0.000 F 
ATOM     20  F   UNL     1      -1.318   0.412   0.000  0.00  0.00    +0.000 F 
ENDBRANCH   9  17
BRANCH  11  21
ATOM     21  C   UNL     1       0.715  -2.888   0.000  0.00  0.00    +0.000 C 
BRANCH  21  22
ATOM     22  C   UNL     1       1.429  -3.300   0.000  0.00  0.00    +0.000 C 
ATOM     23  N   UNL     1       1.429  -4.125   0.000  0.00  0.00    +0.000 NA
BRANCH  22  24
ATOM     24  C   UNL     1       2.143  -2.888   0.000  0.00  0.00    +0.000 C 
BRANCH  24  25
ATOM     25  N   UNL     1       2.858  -3.300   0.000  0.00  0.00    +0.000 N 
ATOM     26  C   UNL     1       3.572  -2.888   0.000  0.00  0.00    +0.000 C 
ATOM     27  C   UNL     1       4.287  -3.300   0.000  0.00  0.00    +0.000 C 
ATOM     28  C   UNL     1       4.287  -4.125   0.000  0.00  0.00    +0.000 C 
ATOM     29  C   UNL     1       3.572  -4.537   0.000  0.00  0.00    +0.000 C 
ATOM     30  C   UNL     1       2.858  -4.125   0.000  0.00  0.00    +0.000 C 
ATOM     31  O   UNL     1       2.143  -4.537   0.000  0.00  0.00    +0.000 OA
ATOM     32  F   UNL     1       4.724  -2.600   0.000  0.00  0.00    +0.000 F 
ATOM     33  F   UNL     1       5.111  -3.271   0.000  0.00  0.00    +0.000 F 
ENDBRANCH  24  25
ENDBRANCH  22  24
ENDBRANCH  21  22
ENDBRANCH  11  21
TORSDOF 6
