REMARK  Name = 
REMARK  6 active torsions:
REMARK  status: ('A' for Active; 'I' for Inactive)
REMARK    1  A    between atoms: C_9  and  C_11
REMARK    2  A    between atoms: C_12  and  O_13
REMARK    3  A    between atoms: O_13  and  C_14
REMARK    4  A    between atoms: C_26  and  C_27
REMARK    5  A    between atoms: C_27  and  C_28
REMARK    6  A    between atoms: C_28  and  C_29
REMARK                            x       y       z     vdW  Elec       q    Type
REMARK                         _______ _______ _______ _____ _____    ______ ____
ROOT
ATOM      1  C   UNL     1      -2.691  -1.412   0.000  0.00  0.00    +0.000 A 
ATOM      2  C   UNL     1      -1.866  -1.412   0.000  0.00  0.00    +0.000 A 
ATOM      3  C   UNL     1      -1.453  -2.127   0.000  0.00  0.00    +0.000 A 
ATOM      4  N   UNL     1      -0.628  -2.127   0.000  0.00  0.00    +0.000 NA
ATOM      5  C   UNL     1      -1.866  -2.841   0.000  0.00  0.00    +0.000 A 
ATOM      6  C   UNL     1      -2.691  -2.841   0.000  0.00  0.00    +0.000 A 
ATOM      7  C   UNL     1      -3.103  -2.127   0.000  0.00  0.00    +0.000 A 
ENDROOT
BRANCH   1  16
ATOM      8  C   UNL     1      -4.309   2.151   0.000  0.00  0.00    +0.000 C 
ATOM      9  N   UNL     1      -4.481   1.344   0.000  0.00  0.00    +0.000 N 
ATOM     10  N   UNL     1      -5.234   1.008   0.000  0.00  0.00    +0.000 NA
ATOM     11  C   UNL     1      -5.148   0.188   0.000  0.00  0.00    +0.000 A 
ATOM     12  C   UNL     1      -4.341   0.017   0.000  0.00  0.00    +0.000 A 
ATOM     13  C   UNL     1      -3.928   0.731   0.000  0.00  0.00    +0.000 A 
ATOM     14  C   UNL     1      -3.103   0.731   0.000  0.00  0.00    +0.000 A 
ATOM     15  C   UNL     1      -2.691   0.017   0.000  0.00  0.00    +0.000 A 
ATOM     16  C   UNL     1      -3.103  -0.698   0.000  0.00  0.00    +0.000 A 
ATOM     17  C   UNL     1      -3.928  -0.698   0.000  0.00  0.00    +0.000 A 
ENDBRANCH   1  16
BRANCH   2  18
ATOM     18  O   UNL     1      -1.453  -0.698   0.000  0.00  0.00    +0.000 OA
BRANCH  18  19
ATOM     19  C   UNL     1      -0.628  -0.698   0.000  0.00  0.00    +0.000 C 
ATOM     20  C   UNL     1      -0.143  -1.365   0.000  0.00  0.00    +0.000 C 
ATOM     21  C   UNL     1       0.641  -1.110   0.000  0.00  0.00    +0.000 A 
ATOM     22  C   UNL     1       0.641  -0.285   0.000  0.00  0.00    +0.000 A 
ATOM     23  C   UNL     1      -0.143  -0.030   0.000  0.00  0.00    +0.000 C 
ATOM     24  C   UNL     1       1.356   0.127   0.000  0.00  0.00    +0.000 A 
ATOM     25  C   UNL     1       2.070  -0.285   0.000  0.00  0.00    +0.000 A 
ATOM     26  C   UNL     1       2.070  -1.110   0.000  0.00  0.00    +0.000 A 
ATOM     27  C   UNL     1       1.356  -1.523   0.000  0.00  0.00    +0.000 A 
ENDBRANCH  18  19
ENDBRANCH   2  18
BRANCH   6  28
ATOM     28  C   UNL     1      -3.103  -3.556   0.000  0.00  0.00    +0.000 C 
BRANCH  28  29
ATOM     29  C   UNL     1      -3.928  -3.556   0.000  0.00  0.00    +0.000 C 
BRANCH  29  30
ATOM     30  C   UNL     1      -4.341  -4.270   0.000  0.00  0.00    +0.000 C 
ATOM     31  O   UNL     1      -3.928  -4.985   0.000  0.00  0.00    +0.000 OA
ATOM     32  O   UNL     1      -5.166  -4.270   0.000  0.00  0.00    +0.000 OA
ENDBRANCH  29  30
ENDBRANCH  28  29
ENDBRANCH   6  28
TORSDOF 6
