REMARK  Name = 
REMARK  5 active torsions:
REMARK  status: ('A' for Active; 'I' for Inactive)
REMARK    1  A    between atoms: C_2  and  C_3
REMARK    2  A    between atoms: C_11  and  O_12
REMARK    3  A    between atoms: N_23  and  C_24
REMARK    4  A    between atoms: C_24  and  C_26
REMARK    5  A    between atoms: C_26  and  N_27
REMARK                            x       y       z     vdW  Elec       q    Type
REMARK                         _______ _______ _______ _____ _____    ______ ____
ROOT
ATOM      1  C   UNL     1      -1.429  -1.856   0.000  0.00  0.00    +0.000 A 
ATOM      2  C   UNL     1      -1.429  -1.031   0.000  0.00  0.00    +0.000 A 
ATOM      3  C   UNL     1      -2.143  -0.619   0.000  0.00  0.00    +0.000 A 
ATOM      4  N   UNL     1      -2.143   0.206   0.000  0.00  0.00    +0.000 NA
ATOM      5  C   UNL     1      -1.429   0.619   0.000  0.00  0.00    +0.000 A 
ATOM      6  C   UNL     1      -1.429   1.444   0.000  0.00  0.00    +0.000 A 
ATOM      7  C   UNL     1      -0.714   1.856   0.000  0.00  0.00    +0.000 A 
ATOM      8  C   UNL     1       0.000   1.444   0.000  0.00  0.00    +0.000 A 
ATOM      9  C   UNL     1       0.714   1.856   0.000  0.00  0.00    +0.000 A 
ATOM     10  C   UNL     1       1.429   1.444   0.000  0.00  0.00    +0.000 A 
ATOM     11  C   UNL     1       1.429   0.619   0.000  0.00  0.00    +0.000 A 
ATOM     12  C   UNL     1       0.714   0.206   0.000  0.00  0.00    +0.000 A 
ATOM     13  C   UNL     1       0.000   0.619   0.000  0.00  0.00    +0.000 A 
ATOM     14  C   UNL     1      -0.714   0.206   0.000  0.00  0.00    +0.000 A 
ATOM     15  N   UNL     1      -0.714  -0.619   0.000  0.00  0.00    +0.000 NA
ATOM     16  C   UNL     1      -2.858  -1.031   0.000  0.00  0.00    +0.000 A 
ATOM     17  C   UNL     1      -2.858  -1.856   0.000  0.00  0.00    +0.000 A 
ATOM     18  C   UNL     1      -2.143  -2.269   0.000  0.00  0.00    +0.000 A 
ENDROOT
BRANCH   1  20
ATOM     19  O   UNL     1      -0.714  -3.094   0.000  0.00  0.00    +0.000 OA
ATOM     20  C   UNL     1      -0.714  -2.269   0.000  0.00  0.00    +0.000 C 
ATOM     21  N   UNL     1       0.000  -1.856   0.000  0.00  0.00    +0.000 NA
BRANCH  21  22
ATOM     22  C   UNL     1       0.714  -2.269   0.000  0.00  0.00    +0.000 C 
ATOM     23  C   UNL     1       0.714  -3.094   0.000  0.00  0.00    +0.000 C 
BRANCH  22  24
ATOM     24  C   UNL     1       1.429  -1.856   0.000  0.00  0.00    +0.000 C 
BRANCH  24  25
ATOM     25  N   UNL     1       2.143  -2.269   0.000  0.00  0.00    +0.000 NA
ATOM     26  C   UNL     1       2.858  -1.856   0.000  0.00  0.00    +0.000 C 
ATOM     27  C   UNL     1       2.143  -3.094   0.000  0.00  0.00    +0.000 C 
ENDBRANCH  24  25
ENDBRANCH  22  24
ENDBRANCH  21  22
ENDBRANCH   1  20
BRANCH   9  28
ATOM     28  O   UNL     1       0.714   2.681   0.000  0.00  0.00    +0.000 OA
ATOM     29  C   UNL     1       1.429   3.094   0.000  0.00  0.00    +0.000 C 
ENDBRANCH   9  28
TORSDOF 5
