REMARK  Name = 
REMARK  28 active torsions:
REMARK  status: ('A' for Active; 'I' for Inactive)
REMARK    1  A    between atoms: S_1  and  C_76
REMARK    2  A    between atoms: S_2  and  C_77
REMARK    3  A    between atoms: O_3  and  C_37
REMARK    4  A    between atoms: O_4  and  C_38
REMARK    5  A    between atoms: O_5  and  C_41
REMARK    6  A    between atoms: O_6  and  C_42
REMARK    7  A    between atoms: O_7  and  C_55
REMARK    8  A    between atoms: O_8  and  C_56
REMARK    9  A    between atoms: O_9  and  C_57
REMARK   10  A    between atoms: O_10  and  C_58
REMARK   11  A    between atoms: O_11  and  C_59
REMARK   12  A    between atoms: O_11  and  C_67
REMARK   13  A    between atoms: O_12  and  C_60
REMARK   14  A    between atoms: O_12  and  C_68
REMARK   15  A    between atoms: N_21  and  C_43
REMARK   16  A    between atoms: N_22  and  C_44
REMARK   17  A    between atoms: C_23  and  C_35
REMARK   18  A    between atoms: C_24  and  C_36
REMARK   19  A    between atoms: C_35  and  C_45
REMARK   20  A    between atoms: C_36  and  C_46
REMARK   21  A    between atoms: C_43  and  C_49
REMARK   22  A    between atoms: C_44  and  C_50
REMARK   23  A    between atoms: C_49  and  C_59
REMARK   24  A    between atoms: C_50  and  C_60
REMARK   25  A    between atoms: C_67  and  C_73
REMARK   26  A    between atoms: C_68  and  C_74
REMARK   27  A    between atoms: C_73  and  C_75
REMARK   28  A    between atoms: C_74  and  C_75
REMARK                            x       y       z     vdW  Elec       q    Type
REMARK                         _______ _______ _______ _____ _____    ______ ____
ROOT
ATOM      1  C   UNL     1      -7.336  -1.142   0.000  0.00  0.00    +0.000 A 
ATOM      2  C   UNL     1      -6.630  -1.569   0.000  0.00  0.00    +0.000 A 
ATOM      3  C   UNL     1      -8.061  -1.569   0.000  0.00  0.00    +0.000 A 
ATOM      4  C   UNL     1      -6.630  -2.387   0.000  0.00  0.00    +0.000 A 
ATOM      5  C   UNL     1      -8.061  -2.387   0.000  0.00  0.00    +0.000 A 
ATOM      6  C   UNL     1      -7.336  -2.814   0.000  0.00  0.00    +0.000 A 
ENDROOT
BRANCH   1   7
ATOM      7  S   UNL     1      -7.355  -0.325   0.000  0.00  0.00    +0.000 S 
ATOM      8  O   UNL     1      -7.355   0.511   0.000  0.00  0.00    +0.000 OA
ATOM      9  O   UNL     1      -8.191  -0.325   0.000  0.00  0.00    +0.000 OA
ATOM     10  O   UNL     1      -6.519  -0.325   0.000  0.00  0.00    +0.000 OA
ENDBRANCH   1   7
TORSDOF 1
REMARK  Name = 
REMARK  28 active torsions:
REMARK  status: ('A' for Active; 'I' for Inactive)
REMARK    1  A    between atoms: S_1  and  C_76
REMARK    2  A    between atoms: S_2  and  C_77
REMARK    3  A    between atoms: O_3  and  C_37
REMARK    4  A    between atoms: O_4  and  C_38
REMARK    5  A    between atoms: O_5  and  C_41
REMARK    6  A    between atoms: O_6  and  C_42
REMARK    7  A    between atoms: O_7  and  C_55
REMARK    8  A    between atoms: O_8  and  C_56
REMARK    9  A    between atoms: O_9  and  C_57
REMARK   10  A    between atoms: O_10  and  C_58
REMARK   11  A    between atoms: O_11  and  C_59
REMARK   12  A    between atoms: O_11  and  C_67
REMARK   13  A    between atoms: O_12  and  C_60
REMARK   14  A    between atoms: O_12  and  C_68
REMARK   15  A    between atoms: N_21  and  C_43
REMARK   16  A    between atoms: N_22  and  C_44
REMARK   17  A    between atoms: C_23  and  C_35
REMARK   18  A    between atoms: C_24  and  C_36
REMARK   19  A    between atoms: C_35  and  C_45
REMARK   20  A    between atoms: C_36  and  C_46
REMARK   21  A    between atoms: C_43  and  C_49
REMARK   22  A    between atoms: C_44  and  C_50
REMARK   23  A    between atoms: C_49  and  C_59
REMARK   24  A    between atoms: C_50  and  C_60
REMARK   25  A    between atoms: C_67  and  C_73
REMARK   26  A    between atoms: C_68  and  C_74
REMARK   27  A    between atoms: C_73  and  C_75
REMARK   28  A    between atoms: C_74  and  C_75
REMARK                            x       y       z     vdW  Elec       q    Type
REMARK                         _______ _______ _______ _____ _____    ______ ____
ROOT
ATOM      1  C   UNL     1       7.503  -1.198   0.000  0.00  0.00    +0.000 A 
ATOM      2  C   UNL     1       8.228  -1.607   0.000  0.00  0.00    +0.000 A 
ATOM      3  C   UNL     1       6.798  -1.607   0.000  0.00  0.00    +0.000 A 
ATOM      4  C   UNL     1       8.228  -2.442   0.000  0.00  0.00    +0.000 A 
ATOM      5  C   UNL     1       6.798  -2.442   0.000  0.00  0.00    +0.000 A 
ATOM      6  C   UNL     1       7.503  -2.851   0.000  0.00  0.00    +0.000 A 
ENDROOT
BRANCH   1   7
ATOM      7  S   UNL     1       7.503  -0.381   0.000  0.00  0.00    +0.000 S 
ATOM      8  O   UNL     1       7.540   0.455   0.000  0.00  0.00    +0.000 OA
ATOM      9  O   UNL     1       6.668  -0.418   0.000  0.00  0.00    +0.000 OA
ATOM     10  O   UNL     1       8.339  -0.381   0.000  0.00  0.00    +0.000 OA
ENDBRANCH   1   7
TORSDOF 1
REMARK  Name = 
REMARK  28 active torsions:
REMARK  status: ('A' for Active; 'I' for Inactive)
REMARK    1  A    between atoms: S_1  and  C_76
REMARK    2  A    between atoms: S_2  and  C_77
REMARK    3  A    between atoms: O_3  and  C_37
REMARK    4  A    between atoms: O_4  and  C_38
REMARK    5  A    between atoms: O_5  and  C_41
REMARK    6  A    between atoms: O_6  and  C_42
REMARK    7  A    between atoms: O_7  and  C_55
REMARK    8  A    between atoms: O_8  and  C_56
REMARK    9  A    between atoms: O_9  and  C_57
REMARK   10  A    between atoms: O_10  and  C_58
REMARK   11  A    between atoms: O_11  and  C_59
REMARK   12  A    between atoms: O_11  and  C_67
REMARK   13  A    between atoms: O_12  and  C_60
REMARK   14  A    between atoms: O_12  and  C_68
REMARK   15  A    between atoms: N_21  and  C_43
REMARK   16  A    between atoms: N_22  and  C_44
REMARK   17  A    between atoms: C_23  and  C_35
REMARK   18  A    between atoms: C_24  and  C_36
REMARK   19  A    between atoms: C_35  and  C_45
REMARK   20  A    between atoms: C_36  and  C_46
REMARK   21  A    between atoms: C_43  and  C_49
REMARK   22  A    between atoms: C_44  and  C_50
REMARK   23  A    between atoms: C_49  and  C_59
REMARK   24  A    between atoms: C_50  and  C_60
REMARK   25  A    between atoms: C_67  and  C_73
REMARK   26  A    between atoms: C_68  and  C_74
REMARK   27  A    between atoms: C_73  and  C_75
REMARK   28  A    between atoms: C_74  and  C_75
REMARK                            x       y       z     vdW  Elec       q    Type
REMARK                         _______ _______ _______ _____ _____    ______ ____
ROOT
ATOM      1  C   UNL     1       0.000   2.015   0.000  0.00  0.00    +0.000 C 
ENDROOT
BRANCH   1   2
ATOM      2  C   UNL     1      -0.706   1.588   0.000  0.00  0.00    +0.000 C 
BRANCH   2   3
ATOM      3  C   UNL     1      -1.430   1.996   0.000  0.00  0.00    +0.000 C 
BRANCH   3   4
ATOM      4  O   UNL     1      -2.136   1.588   0.000  0.00  0.00    +0.000 OA
BRANCH   4   6
ATOM      5  O   UNL     1      -2.860   2.832   0.000  0.00  0.00    +0.000 OA
ATOM      6  C   UNL     1      -2.860   1.996   0.000  0.00  0.00    +0.000 C 
BRANCH   6   7
ATOM      7  C   UNL     1      -3.566   1.588   0.000  0.00  0.00    +0.000 C 
BRANCH   7   8
ATOM      8  C   UNL     1      -4.290   1.996   0.000  0.00  0.00    +0.000 C 
BRANCH   8   9
ATOM      9  N   UNL     1      -4.996   1.569   0.000  0.00  0.00    +0.000 N 
ATOM     10  C   UNL     1      -5.720   1.161   0.000  0.00  0.00    +0.000 C 
ATOM     11  C   UNL     1      -6.426   1.588   0.000  0.00  0.00    +0.000 A 
ATOM     12  C   UNL     1      -6.426   2.405   0.000  0.00  0.00    +0.000 A 
ATOM     13  C   UNL     1      -4.996   2.405   0.000  0.00  0.00    +0.000 C 
ATOM     14  C   UNL     1      -7.151   1.179   0.000  0.00  0.00    +0.000 A 
ATOM     15  C   UNL     1      -5.702   2.814   0.000  0.00  0.00    +0.000 C 
ATOM     16  C   UNL     1      -7.856   1.588   0.000  0.00  0.00    +0.000 A 
ATOM     17  C   UNL     1      -7.151   2.832   0.000  0.00  0.00    +0.000 A 
ATOM     18  C   UNL     1      -7.856   2.405   0.000  0.00  0.00    +0.000 A 
ATOM     19  C   UNL     1      -4.290   1.179   0.000  0.00  0.00    +0.000 C 
BRANCH  18  20
ATOM     20  O   UNL     1      -8.581   2.832   0.000  0.00  0.00    +0.000 OA
ATOM     21  C   UNL     1      -9.286   2.424   0.000  0.00  0.00    +0.000 C 
ENDBRANCH  18  20
BRANCH  16  22
ATOM     22  O   UNL     1      -8.581   1.179   0.000  0.00  0.00    +0.000 OA
ATOM     23  C   UNL     1      -9.286   1.588   0.000  0.00  0.00    +0.000 C 
ENDBRANCH  16  22
BRANCH  10  24
ATOM     24  C   UNL     1      -5.720   0.344   0.000  0.00  0.00    +0.000 C 
BRANCH  24  25
ATOM     25  C   UNL     1      -4.996  -0.065   0.000  0.00  0.00    +0.000 A 
ATOM     26  C   UNL     1      -4.290   0.362   0.000  0.00  0.00    +0.000 A 
ATOM     27  C   UNL     1      -4.996  -0.882   0.000  0.00  0.00    +0.000 A 
ATOM     28  C   UNL     1      -3.584  -0.065   0.000  0.00  0.00    +0.000 A 
ATOM     29  C   UNL     1      -3.566  -0.882   0.000  0.00  0.00    +0.000 A 
ATOM     30  C   UNL     1      -4.290  -1.291   0.000  0.00  0.00    +0.000 A 
BRANCH  28  31
ATOM     31  O   UNL     1      -2.860   0.362   0.000  0.00  0.00    +0.000 OA
ATOM     32  C   UNL     1      -2.154  -0.046   0.000  0.00  0.00    +0.000 C 
ENDBRANCH  28  31
BRANCH  29  33
ATOM     33  O   UNL     1      -2.860  -1.291   0.000  0.00  0.00    +0.000 OA
ATOM     34  C   UNL     1      -2.154  -0.882   0.000  0.00  0.00    +0.000 C 
ENDBRANCH  29  33
ENDBRANCH  24  25
ENDBRANCH  10  24
ENDBRANCH   8   9
ENDBRANCH   7   8
ENDBRANCH   6   7
ENDBRANCH   4   6
ENDBRANCH   3   4
ENDBRANCH   2   3
ENDBRANCH   1   2
BRANCH   1  35
ATOM     35  C   UNL     1       0.706   1.588   0.000  0.00  0.00    +0.000 C 
BRANCH  35  36
ATOM     36  C   UNL     1       1.430   2.015   0.000  0.00  0.00    +0.000 C 
BRANCH  36  37
ATOM     37  O   UNL     1       2.136   1.607   0.000  0.00  0.00    +0.000 OA
BRANCH  37  39
ATOM     38  O   UNL     1       2.860   2.851   0.000  0.00  0.00    +0.000 OA
ATOM     39  C   UNL     1       2.860   2.015   0.000  0.00  0.00    +0.000 C 
BRANCH  39  40
ATOM     40  C   UNL     1       3.566   1.607   0.000  0.00  0.00    +0.000 C 
BRANCH  40  41
ATOM     41  C   UNL     1       4.290   2.015   0.000  0.00  0.00    +0.000 C 
BRANCH  41  42
ATOM     42  N   UNL     1       4.996   1.607   0.000  0.00  0.00    +0.000 N 
ATOM     43  C   UNL     1       5.720   1.198   0.000  0.00  0.00    +0.000 C 
ATOM     44  C   UNL     1       6.426   1.607   0.000  0.00  0.00    +0.000 A 
ATOM     45  C   UNL     1       6.426   2.424   0.000  0.00  0.00    +0.000 A 
ATOM     46  C   UNL     1       4.996   2.442   0.000  0.00  0.00    +0.000 C 
ATOM     47  C   UNL     1       7.151   1.198   0.000  0.00  0.00    +0.000 A 
ATOM     48  C   UNL     1       5.720   2.851   0.000  0.00  0.00    +0.000 C 
ATOM     49  C   UNL     1       7.856   1.607   0.000  0.00  0.00    +0.000 A 
ATOM     50  C   UNL     1       7.151   2.851   0.000  0.00  0.00    +0.000 A 
ATOM     51  C   UNL     1       7.856   2.424   0.000  0.00  0.00    +0.000 A 
ATOM     52  C   UNL     1       4.290   1.198   0.000  0.00  0.00    +0.000 C 
BRANCH  49  53
ATOM     53  O   UNL     1       8.581   1.198   0.000  0.00  0.00    +0.000 OA
ATOM     54  C   UNL     1       9.286   1.607   0.000  0.00  0.00    +0.000 C 
ENDBRANCH  49  53
BRANCH  51  55
ATOM     55  O   UNL     1       8.581   2.851   0.000  0.00  0.00    +0.000 OA
ATOM     56  C   UNL     1       9.286   2.442   0.000  0.00  0.00    +0.000 C 
ENDBRANCH  51  55
BRANCH  43  57
ATOM     57  C   UNL     1       5.720   0.381   0.000  0.00  0.00    +0.000 C 
BRANCH  57  58
ATOM     58  C   UNL     1       4.996  -0.028   0.000  0.00  0.00    +0.000 A 
ATOM     59  C   UNL     1       4.290   0.381   0.000  0.00  0.00    +0.000 A 
ATOM     60  C   UNL     1       4.996  -0.864   0.000  0.00  0.00    +0.000 A 
ATOM     61  C   UNL     1       3.566  -0.046   0.000  0.00  0.00    +0.000 A 
ATOM     62  C   UNL     1       3.566  -0.864   0.000  0.00  0.00    +0.000 A 
ATOM     63  C   UNL     1       4.290  -1.272   0.000  0.00  0.00    +0.000 A 
BRANCH  61  64
ATOM     64  O   UNL     1       2.842   0.381   0.000  0.00  0.00    +0.000 OA
ATOM     65  C   UNL     1       2.136  -0.028   0.000  0.00  0.00    +0.000 C 
ENDBRANCH  61  64
BRANCH  62  66
ATOM     66  O   UNL     1       2.842  -1.272   0.000  0.00  0.00    +0.000 OA
ATOM     67  C   UNL     1       2.136  -0.864   0.000  0.00  0.00    +0.000 C 
ENDBRANCH  62  66
ENDBRANCH  57  58
ENDBRANCH  43  57
ENDBRANCH  41  42
ENDBRANCH  40  41
ENDBRANCH  39  40
ENDBRANCH  37  39
ENDBRANCH  36  37
ENDBRANCH  35  36
ENDBRANCH   1  35
TORSDOF 26
