REMARK  Name = 
REMARK  0 active torsions:
REMARK  status: ('A' for Active; 'I' for Inactive)
REMARK                            x       y       z     vdW  Elec       q    Type
REMARK                         _______ _______ _______ _____ _____    ______ ____
ROOT
ATOM      1  C   UNL     1      -2.145  -0.825   0.000  0.00  0.00    +0.000 A 
ATOM      2  C   UNL     1      -2.145   0.000   0.000  0.00  0.00    +0.000 A 
ATOM      3  C   UNL     1      -1.444   0.412   0.000  0.00  0.00    +0.000 A 
ATOM      4  C   UNL     1      -0.701   0.000   0.000  0.00  0.00    +0.000 A 
ATOM      5  C   UNL     1      -0.701  -0.825   0.000  0.00  0.00    +0.000 A 
ATOM      6  C   UNL     1      -1.444  -1.238   0.000  0.00  0.00    +0.000 A 
ATOM      7  C   UNL     1       0.000   0.412   0.000  0.00  0.00    +0.000 C 
ATOM      8  C   UNL     1       0.701   0.000   0.000  0.00  0.00    +0.000 C 
ATOM      9  C   UNL     1       0.701  -0.825   0.000  0.00  0.00    +0.000 C 
ATOM     10  O   UNL     1       0.000  -1.238   0.000  0.00  0.00    +0.000 OA
ATOM     11  C   UNL     1       1.444   0.412   0.000  0.00  0.00    +0.000 C 
ATOM     12  N   UNL     1       2.145   0.000   0.000  0.00  0.00    +0.000 NA
ATOM     13  C   UNL     1       2.145  -0.825   0.000  0.00  0.00    +0.000 C 
ATOM     14  C   UNL     1       1.444  -1.238   0.000  0.00  0.00    +0.000 C 
ATOM     15  C   UNL     1       2.846   0.412   0.000  0.00  0.00    +0.000 C 
ATOM     16 CL   UNL     1      -2.846   0.412   0.000  0.00  0.00    +0.000 Cl
ATOM     17  C   UNL     1       0.000   1.238   0.000  0.00  0.00    +0.000 C 
ATOM     18  N   UNL     1       0.152  -0.412   0.000  0.00  0.00    +0.000 NA
ATOM     19  C   UNL     1       0.714   0.825   0.000  0.00  0.00    +0.000 C 
ATOM     20  O   UNL     1       1.500   1.032   0.000  0.00  0.00    +0.000 OA
ENDROOT
TORSDOF 0
