REMARK  Name = 
REMARK  13 active torsions:
REMARK  status: ('A' for Active; 'I' for Inactive)
REMARK    1  A    between atoms: O_3  and  C_37
REMARK    2  A    between atoms: O_4  and  C_38
REMARK    3  A    between atoms: N_13  and  C_21
REMARK    4  A    between atoms: N_14  and  C_22
REMARK    5  A    between atoms: C_15  and  C_18
REMARK    6  A    between atoms: C_16  and  C_17
REMARK    7  A    between atoms: C_19  and  C_21
REMARK    8  A    between atoms: C_20  and  C_22
REMARK    9  A    between atoms: C_21  and  C_31
REMARK   10  A    between atoms: C_22  and  C_32
REMARK   11  A    between atoms: C_27  and  C_35
REMARK   12  A    between atoms: C_28  and  C_36
REMARK   13  A    between atoms: C_39  and  C_40
REMARK                            x       y       z     vdW  Elec       q    Type
REMARK                         _______ _______ _______ _____ _____    ______ ____
ROOT
ATOM      1  C   UNL     1      -1.792  -1.063   0.000  0.00  0.00    +0.000 A 
ATOM      2  C   UNL     1      -0.348  -0.226   0.000  0.00  0.00    +0.000 A 
ATOM      3  C   UNL     1      -1.792  -0.226   0.000  0.00  0.00    +0.000 A 
ATOM      4  C   UNL     1      -1.083  -1.476   0.000  0.00  0.00    +0.000 A 
ATOM      5  C   UNL     1      -1.083   0.187   0.000  0.00  0.00    +0.000 A 
ATOM      6  C   UNL     1      -0.348  -1.063   0.000  0.00  0.00    +0.000 A 
ENDROOT
BRANCH   2   8
ATOM      7  C   UNL     1       1.805   1.012   0.000  0.00  0.00    +0.000 A 
ATOM      8  C   UNL     1       0.361   0.187   0.000  0.00  0.00    +0.000 A 
ATOM      9  C   UNL     1       1.805   0.187   0.000  0.00  0.00    +0.000 A 
ATOM     10  C   UNL     1       1.109   1.424   0.000  0.00  0.00    +0.000 A 
ATOM     11  C   UNL     1       1.070  -0.226   0.000  0.00  0.00    +0.000 A 
ATOM     12  C   UNL     1       0.361   1.012   0.000  0.00  0.00    +0.000 A 
BRANCH   7  16
ATOM     13  N   UNL     1       2.514   2.249   0.000  0.00  0.00    +0.000 NA
ATOM     14  N   UNL     1       3.790   1.876   0.000  0.00  0.00    +0.000 NA
ATOM     15  C   UNL     1       3.300   2.546   0.000  0.00  0.00    +0.000 A 
ATOM     16  C   UNL     1       2.514   1.424   0.000  0.00  0.00    +0.000 A 
ATOM     17  C   UNL     1       3.300   1.180   0.000  0.00  0.00    +0.000 A 
BRANCH  15  20
ATOM     18  O   UNL     1       5.737   3.577   0.000  0.00  0.00    +0.000 OA
ATOM     19  N   UNL     1       4.332   3.577   0.000  0.00  0.00    +0.000 N 
ATOM     20  C   UNL     1       3.545   3.333   0.000  0.00  0.00    +0.000 C 
ATOM     21  C   UNL     1       5.040   3.165   0.000  0.00  0.00    +0.000 C 
ATOM     22  C   UNL     1       3.055   3.990   0.000  0.00  0.00    +0.000 C 
ATOM     23  C   UNL     1       4.332   4.402   0.000  0.00  0.00    +0.000 C 
ATOM     24  C   UNL     1       3.545   4.660   0.000  0.00  0.00    +0.000 C 
BRANCH  21  25
ATOM     25  C   UNL     1       5.040   2.340   0.000  0.00  0.00    +0.000 C 
BRANCH  25  27
ATOM     26  O   UNL     1       5.040   0.677   0.000  0.00  0.00    +0.000 OA
ATOM     27  N   UNL     1       4.332   1.927   0.000  0.00  0.00    +0.000 NA
ATOM     28  C   UNL     1       4.332   1.089   0.000  0.00  0.00    +0.000 C 
BRANCH  28  29
ATOM     29  O   UNL     1       3.635   0.677   0.000  0.00  0.00    +0.000 OA
ATOM     30  C   UNL     1       3.635  -0.148   0.000  0.00  0.00    +0.000 C 
ENDBRANCH  28  29
ENDBRANCH  25  27
BRANCH  25  31
ATOM     31  C   UNL     1       5.737   1.927   0.000  0.00  0.00    +0.000 C 
ATOM     32  C   UNL     1       6.446   2.340   0.000  0.00  0.00    +0.000 C 
ATOM     33  C   UNL     1       5.737   1.089   0.000  0.00  0.00    +0.000 C 
ENDBRANCH  25  31
ENDBRANCH  21  25
ENDBRANCH  15  20
ENDBRANCH   7  16
ENDBRANCH   2   8
BRANCH   1  37
ATOM     34  N   UNL     1      -2.501  -2.301   0.000  0.00  0.00    +0.000 NA
ATOM     35  N   UNL     1      -3.777  -1.889   0.000  0.00  0.00    +0.000 NA
ATOM     36  C   UNL     1      -3.287  -2.546   0.000  0.00  0.00    +0.000 A 
ATOM     37  C   UNL     1      -2.501  -1.476   0.000  0.00  0.00    +0.000 A 
ATOM     38  C   UNL     1      -3.287  -1.218   0.000  0.00  0.00    +0.000 A 
BRANCH  36  41
ATOM     39  O   UNL     1      -5.724  -3.590   0.000  0.00  0.00    +0.000 OA
ATOM     40  N   UNL     1      -4.319  -3.590   0.000  0.00  0.00    +0.000 N 
ATOM     41  C   UNL     1      -3.532  -3.333   0.000  0.00  0.00    +0.000 C 
ATOM     42  C   UNL     1      -5.028  -3.165   0.000  0.00  0.00    +0.000 C 
ATOM     43  C   UNL     1      -3.030  -4.003   0.000  0.00  0.00    +0.000 C 
ATOM     44  C   UNL     1      -4.319  -4.415   0.000  0.00  0.00    +0.000 C 
ATOM     45  C   UNL     1      -3.532  -4.660   0.000  0.00  0.00    +0.000 C 
BRANCH  42  46
ATOM     46  C   UNL     1      -5.028  -2.340   0.000  0.00  0.00    +0.000 C 
BRANCH  46  48
ATOM     47  O   UNL     1      -5.028  -0.677   0.000  0.00  0.00    +0.000 OA
ATOM     48  N   UNL     1      -4.306  -1.927   0.000  0.00  0.00    +0.000 NA
ATOM     49  C   UNL     1      -4.306  -1.102   0.000  0.00  0.00    +0.000 C 
BRANCH  49  50
ATOM     50  O   UNL     1      -3.597  -0.690   0.000  0.00  0.00    +0.000 OA
ATOM     51  C   UNL     1      -3.597   0.135   0.000  0.00  0.00    +0.000 C 
ENDBRANCH  49  50
ENDBRANCH  46  48
BRANCH  46  52
ATOM     52  C   UNL     1      -5.737  -1.927   0.000  0.00  0.00    +0.000 C 
ATOM     53  C   UNL     1      -6.446  -2.340   0.000  0.00  0.00    +0.000 C 
ATOM     54  C   UNL     1      -5.737  -1.102   0.000  0.00  0.00    +0.000 C 
ENDBRANCH  46  52
ENDBRANCH  42  46
ENDBRANCH  36  41
ENDBRANCH   1  37
TORSDOF 13
