REMARK  Name = 
REMARK  1 active torsions:
REMARK  status: ('A' for Active; 'I' for Inactive)
REMARK    1  A    between atoms: C_9  and  C_11
REMARK                            x       y       z     vdW  Elec       q    Type
REMARK                         _______ _______ _______ _____ _____    ______ ____
ROOT
ATOM      1  C   UNL     1      -0.520  -0.200   0.000  0.00  0.00    +0.000 C 
ATOM      2  C   UNL     1      -1.240  -0.603   0.000  0.00  0.00    +0.000 C 
ATOM      3  C   UNL     1       0.890   0.626   0.000  0.00  0.00    +0.000 C 
ATOM      4  C   UNL     1      -1.240  -1.419   0.000  0.00  0.00    +0.000 C 
ATOM      5  C   UNL     1       0.160  -0.530   0.000  0.00  0.00    +0.000 C 
ATOM      6  C   UNL     1       0.890  -0.190   0.000  0.00  0.00    +0.000 C 
ATOM      7  C   UNL     1      -0.503   0.616   0.000  0.00  0.00    +0.000 C 
ATOM      8  C   UNL     1       0.187   1.030   0.000  0.00  0.00    +0.000 C 
ATOM      9  C   UNL     1       1.819   0.946   0.000  0.00  0.00    +0.000 C 
ATOM     10  C   UNL     1      -1.959  -1.849   0.000  0.00  0.00    +0.000 C 
ATOM     11  C   UNL     1      -1.969  -0.213   0.000  0.00  0.00    +0.000 C 
ATOM     12  C   UNL     1       0.160  -1.403   0.000  0.00  0.00    +0.000 C 
ATOM     13  C   UNL     1       1.919  -0.433   0.000  0.00  0.00    +0.000 C 
ATOM     14  C   UNL     1      -0.520  -1.833   0.000  0.00  0.00    +0.000 C 
ATOM     15  C   UNL     1      -2.679  -1.443   0.000  0.00  0.00    +0.000 C 
ATOM     16  C   UNL     1       2.329   0.310   0.000  0.00  0.00    +0.000 C 
ATOM     17  O   UNL     1      -3.419  -1.869   0.000  0.00  0.00    +0.000 OA
ATOM     18  C   UNL     1      -2.662  -0.603   0.000  0.00  0.00    +0.000 C 
ATOM     19  O   UNL     1       1.626   1.869   0.000  0.00  0.00    +0.000 OA
ATOM     20  C   UNL     1       0.890   1.429   0.000  0.00  0.00    +0.000 C 
ENDROOT
BRANCH   9  21
ATOM     21  C   UNL     1       2.599   1.396   0.000  0.00  0.00    +0.000 C 
ATOM     22  C   UNL     1       3.419   1.869   0.000  0.00  0.00    +0.000 C 
ENDBRANCH   9  21
TORSDOF 1
