REMARK  Name = 
REMARK  6 active torsions:
REMARK  status: ('A' for Active; 'I' for Inactive)
REMARK    1  A    between atoms: C_11  and  C_12
REMARK    2  A    between atoms: C_12  and  C_13
REMARK    3  A    between atoms: C_13  and  C_14
REMARK    4  A    between atoms: C_22  and  C_24
REMARK    5  A    between atoms: C_29  and  C_30
REMARK    6  A    between atoms: C_30  and  C_31
REMARK                            x       y       z     vdW  Elec       q    Type
REMARK                         _______ _______ _______ _____ _____    ______ ____
ROOT
ATOM      1  C   UNL     1       4.095  -3.548   0.000  0.00  0.00    +0.000 C 
ATOM      2  O   UNL     1       4.902  -3.719   0.000  0.00  0.00    +0.000 OA
ATOM      3  N   UNL     1       3.543  -4.161   0.000  0.00  0.00    +0.000 N 
ATOM      4  C   UNL     1       3.798  -4.945   0.000  0.00  0.00    +0.000 C 
ATOM      5  C   UNL     1       3.246  -5.559   0.000  0.00  0.00    +0.000 C 
ATOM      6  N   UNL     1       2.439  -5.387   0.000  0.00  0.00    +0.000 N 
ATOM      7  C   UNL     1       2.184  -4.602   0.000  0.00  0.00    +0.000 C 
ATOM      8  C   UNL     1       2.736  -3.989   0.000  0.00  0.00    +0.000 C 
ATOM      9  C   UNL     1       1.887  -6.000   0.000  0.00  0.00    +0.000 C 
ATOM     10  O   UNL     1       1.080  -5.829   0.000  0.00  0.00    +0.000 OA
ENDROOT
BRANCH   9  11
ATOM     11  C   UNL     1       2.142  -6.785   0.000  0.00  0.00    +0.000 A 
ATOM     12  C   UNL     1       2.949  -6.956   0.000  0.00  0.00    +0.000 A 
ATOM     13  F   UNL     1       3.501  -6.343   0.000  0.00  0.00    +0.000 F 
ATOM     14  C   UNL     1       3.204  -7.741   0.000  0.00  0.00    +0.000 A 
ATOM     15  C   UNL     1       2.651  -8.354   0.000  0.00  0.00    +0.000 A 
ATOM     16  C   UNL     1       1.845  -8.182   0.000  0.00  0.00    +0.000 A 
ATOM     17  C   UNL     1       1.589  -7.398   0.000  0.00  0.00    +0.000 A 
BRANCH  16  18
ATOM     18  C   UNL     1       1.292  -8.796   0.000  0.00  0.00    +0.000 C 
BRANCH  18  19
ATOM     19  C   UNL     1       1.547  -9.580   0.000  0.00  0.00    +0.000 A 
ATOM     20  N   UNL     1       2.354  -9.752   0.000  0.00  0.00    +0.000 NA
ATOM     21  N   UNL     1       2.609 -10.536   0.000  0.00  0.00    +0.000 NA
ATOM     22  C   UNL     1       2.057 -11.149   0.000  0.00  0.00    +0.000 A 
ATOM     23  O   UNL     1       2.312 -11.934   0.000  0.00  0.00    +0.000 OA
ATOM     24  C   UNL     1       1.250 -10.978   0.000  0.00  0.00    +0.000 A 
ATOM     25  C   UNL     1       0.698 -11.591   0.000  0.00  0.00    +0.000 A 
ATOM     26  C   UNL     1      -0.109 -11.419   0.000  0.00  0.00    +0.000 A 
ATOM     27  C   UNL     1      -0.364 -10.635   0.000  0.00  0.00    +0.000 A 
ATOM     28  C   UNL     1       0.188 -10.022   0.000  0.00  0.00    +0.000 A 
ATOM     29  C   UNL     1       0.995 -10.193   0.000  0.00  0.00    +0.000 A 
ENDBRANCH  18  19
ENDBRANCH  16  18
ENDBRANCH   9  11
BRANCH   1  30
ATOM     30  C   UNL     1       3.840  -2.763   0.000  0.00  0.00    +0.000 C 
BRANCH  30  31
ATOM     31  C   UNL     1       4.392  -2.150   0.000  0.00  0.00    +0.000 C 
BRANCH  31  42
ATOM     32  C   UNL     1       0.884  -2.150   0.000  0.00  0.00    +0.000 C 
ATOM     33  C   UNL     1       1.139  -1.365   0.000  0.00  0.00    +0.000 A 
ATOM     34  C   UNL     1       0.654  -0.698   0.000  0.00  0.00    +0.000 A 
ATOM     35  C   UNL     1       1.139  -0.030   0.000  0.00  0.00    +0.000 A 
ATOM     36  C   UNL     1       0.884   0.754   0.000  0.00  0.00    +0.000 C 
ATOM     37  C   UNL     1       1.923  -0.285   0.000  0.00  0.00    +0.000 A 
ATOM     38  C   UNL     1       2.638   0.127   0.000  0.00  0.00    +0.000 C 
ATOM     39  C   UNL     1       3.352  -0.285   0.000  0.00  0.00    +0.000 C 
ATOM     40  C   UNL     1       4.137  -0.030   0.000  0.00  0.00    +0.000 C 
ATOM     41  C   UNL     1       4.622  -0.698   0.000  0.00  0.00    +0.000 C 
ATOM     42  C   UNL     1       4.137  -1.365   0.000  0.00  0.00    +0.000 C 
ATOM     43  N   UNL     1       3.352  -1.110   0.000  0.00  0.00    +0.000 N 
ATOM     44  B   UNL     1       2.638  -1.523   0.000  0.00  0.00    +0.000 B 
ATOM     45  F   UNL     1       3.168  -2.155   0.000  0.00  0.00    +0.000 F 
ATOM     46  F   UNL     1       2.107  -2.155   0.000  0.00  0.00    +0.000 F 
ATOM     47  N   UNL     1       1.923  -1.110   0.000  0.00  0.00    +0.000 N 
ENDBRANCH  31  42
ENDBRANCH  30  31
ENDBRANCH   1  30
TORSDOF 6
