REMARK  Name = 
REMARK  18 active torsions:
REMARK  status: ('A' for Active; 'I' for Inactive)
REMARK    1  A    between atoms: C_11  and  C_26
REMARK    2  A    between atoms: C_27  and  O_52
REMARK    3  A    between atoms: C_34  and  N_43
REMARK    4  A    between atoms: C_35  and  O_53
REMARK    5  A    between atoms: C_37  and  O_53
REMARK    6  A    between atoms: C_39  and  O_46
REMARK    7  A    between atoms: C_40  and  O_47
REMARK    8  A    between atoms: C_41  and  O_48
REMARK    9  A    between atoms: C_42  and  O_52
REMARK   10  A    between atoms: C_63  and  C_79
REMARK   11  A    between atoms: C_80  and  O_104
REMARK   12  A    between atoms: C_86  and  N_95
REMARK   13  A    between atoms: C_87  and  O_105
REMARK   14  A    between atoms: C_89  and  O_105
REMARK   15  A    between atoms: C_91  and  O_98
REMARK   16  A    between atoms: C_92  and  O_99
REMARK   17  A    between atoms: C_93  and  O_100
REMARK   18  A    between atoms: C_94  and  O_104
REMARK                            x       y       z     vdW  Elec       q    Type
REMARK                         _______ _______ _______ _____ _____    ______ ____
ROOT
ATOM      1  C   UNL     1      -6.478  -3.125   0.000  0.00  0.00    +0.000 C 
ATOM      2  C   UNL     1     -10.101  -1.119   0.000  0.00  0.00    +0.000 C 
ATOM      3  C   UNL     1     -11.528  -1.058   0.000  0.00  0.00    +0.000 C 
ATOM      4  C   UNL     1     -10.832  -1.501   0.000  0.00  0.00    +0.000 C 
ATOM      5  C   UNL     1     -11.493  -0.234   0.000  0.00  0.00    +0.000 C 
ATOM      6  C   UNL     1      -7.597  -2.236   0.000  0.00  0.00    +0.000 C 
ATOM      7  C   UNL     1      -5.444  -1.661   0.000  0.00  0.00    +0.000 C 
ATOM      8  C   UNL     1      -5.935  -0.419   0.000  0.00  0.00    +0.000 C 
ATOM      9  C   UNL     1      -7.843  -0.135   0.000  0.00  0.00    +0.000 C 
ATOM     10  C   UNL     1      -9.405  -1.562   0.000  0.00  0.00    +0.000 C 
ATOM     11  C   UNL     1      -6.781  -2.358   0.000  0.00  0.00    +0.000 C 
ATOM     12  C   UNL     1     -10.065  -0.295   0.000  0.00  0.00    +0.000 C 
ATOM     13  C   UNL     1     -10.867  -2.325   0.000  0.00  0.00    +0.000 C 
ATOM     14  C   UNL     1      -5.239  -0.862   0.000  0.00  0.00    +0.000 C 
ATOM     15  C   UNL     1      -6.268  -1.712   0.000  0.00  0.00    +0.000 C 
ATOM     16  C   UNL     1      -7.900  -1.469   0.000  0.00  0.00    +0.000 C 
ATOM     17  C   UNL     1      -6.571  -0.944   0.000  0.00  0.00    +0.000 C 
ATOM     18  C   UNL     1      -7.387  -0.823   0.000  0.00  0.00    +0.000 C 
ATOM     19  C   UNL     1      -8.673  -1.181   0.000  0.00  0.00    +0.000 C 
ATOM     20  C   UNL     1      -8.638  -0.356   0.000  0.00  0.00    +0.000 C 
ATOM     21  C   UNL     1     -10.761   0.147   0.000  0.00  0.00    +0.000 C 
ATOM     22  C   UNL     1      -9.440  -2.386   0.000  0.00  0.00    +0.000 C 
ATOM     23  C   UNL     1      -9.334   0.086   0.000  0.00  0.00    +0.000 C 
ATOM     24  O   UNL     1      -8.744  -2.829   0.000  0.00  0.00    +0.000 OA
ATOM     25  O   UNL     1      -9.298   0.910   0.000  0.00  0.00    +0.000 OA
ATOM     26  O   UNL     1     -10.171  -2.768   0.000  0.00  0.00    +0.000 OA
ENDROOT
BRANCH  13  28
ATOM     27  C   UNL     1     -11.634  -3.531   0.000  0.00  0.00    +0.000 C 
ATOM     28  C   UNL     1     -11.599  -2.707   0.000  0.00  0.00    +0.000 C 
ENDBRANCH  13  28
BRANCH  14  29
ATOM     29  O   UNL     1      -4.471  -0.559   0.000  0.00  0.00    +0.000 OA
BRANCH  29  35
ATOM     30  C   UNL     1      -3.422  -3.217   0.000  0.00  0.00    +0.000 C 
ATOM     31  C   UNL     1      -3.300  -2.401   0.000  0.00  0.00    +0.000 C 
ATOM     32  C   UNL     1      -2.533  -2.098   0.000  0.00  0.00    +0.000 C 
ATOM     33  C   UNL     1      -2.412  -1.282   0.000  0.00  0.00    +0.000 C 
ATOM     34  C   UNL     1      -3.058  -0.769   0.000  0.00  0.00    +0.000 C 
ATOM     35  C   UNL     1      -3.825  -1.072   0.000  0.00  0.00    +0.000 C 
ATOM     36  O   UNL     1      -3.946  -1.888   0.000  0.00  0.00    +0.000 OA
BRANCH  32  38
ATOM     37  C   UNL     1      -1.120  -2.308   0.000  0.00  0.00    +0.000 C 
ATOM     38  O   UNL     1      -1.887  -2.611   0.000  0.00  0.00    +0.000 OA
ENDBRANCH  32  38
BRANCH  33  40
ATOM     39  C   UNL     1      -1.523  -0.163   0.000  0.00  0.00    +0.000 C 
ATOM     40  O   UNL     1      -1.644  -0.979   0.000  0.00  0.00    +0.000 OA
ENDBRANCH  33  40
BRANCH  34  42
ATOM     41  C   UNL     1      -3.583   0.560   0.000  0.00  0.00    +0.000 C 
ATOM     42  O   UNL     1      -2.937   0.047   0.000  0.00  0.00    +0.000 OA
ENDBRANCH  34  42
ENDBRANCH  29  35
ENDBRANCH  14  29
BRANCH  21  43
ATOM     43  O   UNL     1     -10.726   0.972   0.000  0.00  0.00    +0.000 OA
BRANCH  43  49
ATOM     44  C   UNL     1     -12.048   3.506   0.000  0.00  0.00    +0.000 C 
ATOM     45  C   UNL     1     -12.850   1.476   0.000  0.00  0.00    +0.000 C 
ATOM     46  C   UNL     1     -12.154   1.033   0.000  0.00  0.00    +0.000 C 
ATOM     47  C   UNL     1     -12.083   2.681   0.000  0.00  0.00    +0.000 C 
ATOM     48  C   UNL     1     -12.815   2.300   0.000  0.00  0.00    +0.000 C 
ATOM     49  C   UNL     1     -11.422   1.414   0.000  0.00  0.00    +0.000 C 
ATOM     50  O   UNL     1     -11.387   2.239   0.000  0.00  0.00    +0.000 OA
BRANCH  48  53
ATOM     51  C   UNL     1     -13.475   3.567   0.000  0.00  0.00    +0.000 C 
ATOM     52  C   UNL     1     -14.242   2.361   0.000  0.00  0.00    +0.000 C 
ATOM     53  N   UNL     1     -13.511   2.743   0.000  0.00  0.00    +0.000 NA
ENDBRANCH  48  53
ENDBRANCH  43  49
ENDBRANCH  21  43
TORSDOF 9
REMARK  Name = 
REMARK  18 active torsions:
REMARK  status: ('A' for Active; 'I' for Inactive)
REMARK    1  A    between atoms: C_11  and  C_26
REMARK    2  A    between atoms: C_27  and  O_52
REMARK    3  A    between atoms: C_34  and  N_43
REMARK    4  A    between atoms: C_35  and  O_53
REMARK    5  A    between atoms: C_37  and  O_53
REMARK    6  A    between atoms: C_39  and  O_46
REMARK    7  A    between atoms: C_40  and  O_47
REMARK    8  A    between atoms: C_41  and  O_48
REMARK    9  A    between atoms: C_42  and  O_52
REMARK   10  A    between atoms: C_63  and  C_79
REMARK   11  A    between atoms: C_80  and  O_104
REMARK   12  A    between atoms: C_86  and  N_95
REMARK   13  A    between atoms: C_87  and  O_105
REMARK   14  A    between atoms: C_89  and  O_105
REMARK   15  A    between atoms: C_91  and  O_98
REMARK   16  A    between atoms: C_92  and  O_99
REMARK   17  A    between atoms: C_93  and  O_100
REMARK   18  A    between atoms: C_94  and  O_104
REMARK                            x       y       z     vdW  Elec       q    Type
REMARK                         _______ _______ _______ _____ _____    ______ ____
ROOT
ATOM      1  C   UNL     1       5.261  -1.155   0.000  0.00  0.00    +0.000 C 
ATOM      2  C   UNL     1       3.833  -1.094   0.000  0.00  0.00    +0.000 C 
ATOM      3  C   UNL     1       4.529  -1.537   0.000  0.00  0.00    +0.000 C 
ATOM      4  C   UNL     1       3.869  -0.270   0.000  0.00  0.00    +0.000 C 
ATOM      5  C   UNL     1       8.581  -2.393   0.000  0.00  0.00    +0.000 C 
ATOM      6  C   UNL     1       7.765  -2.272   0.000  0.00  0.00    +0.000 C 
ATOM      7  C   UNL     1       9.917  -1.696   0.000  0.00  0.00    +0.000 C 
ATOM      8  C   UNL     1       9.427  -0.455   0.000  0.00  0.00    +0.000 C 
ATOM      9  C   UNL     1       7.519  -0.171   0.000  0.00  0.00    +0.000 C 
ATOM     10  C   UNL     1       5.957  -1.598   0.000  0.00  0.00    +0.000 C 
ATOM     11  C   UNL     1       5.296  -0.331   0.000  0.00  0.00    +0.000 C 
ATOM     12  C   UNL     1       9.094  -1.747   0.000  0.00  0.00    +0.000 C 
ATOM     13  C   UNL     1       4.494  -2.361   0.000  0.00  0.00    +0.000 C 
ATOM     14  C   UNL     1      10.123  -0.898   0.000  0.00  0.00    +0.000 C 
ATOM     15  C   UNL     1       7.462  -1.505   0.000  0.00  0.00    +0.000 C 
ATOM     16  C   UNL     1       8.791  -0.980   0.000  0.00  0.00    +0.000 C 
ATOM     17  C   UNL     1       7.975  -0.859   0.000  0.00  0.00    +0.000 C 
ATOM     18  C   UNL     1       6.689  -1.216   0.000  0.00  0.00    +0.000 C 
ATOM     19  C   UNL     1       6.724  -0.392   0.000  0.00  0.00    +0.000 C 
ATOM     20  C   UNL     1       4.600   0.112   0.000  0.00  0.00    +0.000 C 
ATOM     21  C   UNL     1       5.922  -2.422   0.000  0.00  0.00    +0.000 C 
ATOM     22  C   UNL     1       6.028   0.050   0.000  0.00  0.00    +0.000 C 
ATOM     23  O   UNL     1       6.618  -2.865   0.000  0.00  0.00    +0.000 OA
ATOM     24  O   UNL     1       6.063   0.875   0.000  0.00  0.00    +0.000 OA
ATOM     25  O   UNL     1       5.190  -2.804   0.000  0.00  0.00    +0.000 OA
ENDROOT
BRANCH  13  27
ATOM     26  C   UNL     1       3.727  -3.567   0.000  0.00  0.00    +0.000 C 
ATOM     27  C   UNL     1       3.763  -2.743   0.000  0.00  0.00    +0.000 C 
ENDBRANCH  13  27
BRANCH  14  28
ATOM     28  O   UNL     1      10.890  -0.595   0.000  0.00  0.00    +0.000 OA
BRANCH  28  34
ATOM     29  C   UNL     1      11.940  -3.253   0.000  0.00  0.00    +0.000 C 
ATOM     30  C   UNL     1      12.061  -2.437   0.000  0.00  0.00    +0.000 C 
ATOM     31  C   UNL     1      12.829  -2.134   0.000  0.00  0.00    +0.000 C 
ATOM     32  C   UNL     1      12.950  -1.318   0.000  0.00  0.00    +0.000 C 
ATOM     33  C   UNL     1      12.304  -0.805   0.000  0.00  0.00    +0.000 C 
ATOM     34  C   UNL     1      11.537  -1.108   0.000  0.00  0.00    +0.000 C 
ATOM     35  O   UNL     1      11.415  -1.924   0.000  0.00  0.00    +0.000 OA
BRANCH  31  37
ATOM     36  C   UNL     1      14.242  -2.344   0.000  0.00  0.00    +0.000 C 
ATOM     37  O   UNL     1      13.475  -2.647   0.000  0.00  0.00    +0.000 OA
ENDBRANCH  31  37
BRANCH  32  39
ATOM     38  C   UNL     1      13.839  -0.199   0.000  0.00  0.00    +0.000 C 
ATOM     39  O   UNL     1      13.717  -1.015   0.000  0.00  0.00    +0.000 OA
ENDBRANCH  32  39
BRANCH  33  41
ATOM     40  C   UNL     1      11.779   0.524   0.000  0.00  0.00    +0.000 C 
ATOM     41  O   UNL     1      12.425   0.011   0.000  0.00  0.00    +0.000 OA
ENDBRANCH  33  41
ENDBRANCH  28  34
ENDBRANCH  14  28
BRANCH  20  42
ATOM     42  O   UNL     1       4.636   0.936   0.000  0.00  0.00    +0.000 OA
BRANCH  42  48
ATOM     43  C   UNL     1       3.314   3.470   0.000  0.00  0.00    +0.000 C 
ATOM     44  C   UNL     1       2.512   1.440   0.000  0.00  0.00    +0.000 C 
ATOM     45  C   UNL     1       3.208   0.997   0.000  0.00  0.00    +0.000 C 
ATOM     46  C   UNL     1       3.279   2.646   0.000  0.00  0.00    +0.000 C 
ATOM     47  C   UNL     1       2.547   2.264   0.000  0.00  0.00    +0.000 C 
ATOM     48  C   UNL     1       3.939   1.379   0.000  0.00  0.00    +0.000 C 
ATOM     49  O   UNL     1       3.975   2.203   0.000  0.00  0.00    +0.000 OA
BRANCH  47  52
ATOM     50  C   UNL     1       1.886   3.531   0.000  0.00  0.00    +0.000 C 
ATOM     51  C   UNL     1       1.119   2.325   0.000  0.00  0.00    +0.000 C 
ATOM     52  N   UNL     1       1.851   2.707   0.000  0.00  0.00    +0.000 NA
ENDBRANCH  47  52
ENDBRANCH  42  48
ENDBRANCH  20  42
TORSDOF 9
