REMARK  Name = 
REMARK  2 active torsions:
REMARK  status: ('A' for Active; 'I' for Inactive)
REMARK    1  A    between atoms: O_2  and  P_3
REMARK    2  A    between atoms: P_3  and  S_6
REMARK                            x       y       z     vdW  Elec       q    Type
REMARK                         _______ _______ _______ _____ _____    ______ ____
ROOT
ATOM      1  P   UNL     1       1.238  -0.715   0.000  0.00  0.00    +0.000 P 
ATOM      2  N   UNL     1       1.952  -0.302   0.000  0.00  0.00    +0.000 NA
ATOM      3  O   UNL     1       0.523  -1.127   0.000  0.00  0.00    +0.000 OA
ENDROOT
BRANCH   1   5
ATOM      4  C   UNL     1       2.475  -1.429   0.000  0.00  0.00    +0.000 C 
ATOM      5  O   UNL     1       1.650  -1.429   0.000  0.00  0.00    +0.000 OA
ENDBRANCH   1   5
BRANCH   1   6
ATOM      6  S   UNL     1       0.825   0.000   0.000  0.00  0.00    +0.000 S 
ATOM      7  C   UNL     1       0.000   0.000   0.000  0.00  0.00    +0.000 C 
ENDBRANCH   1   6
TORSDOF 2
