REMARK  Name = 
REMARK  2 active torsions:
REMARK  status: ('A' for Active; 'I' for Inactive)
REMARK    1  A    between atoms: N_7  and  C_18
REMARK    2  A    between atoms: C_18  and  C_19
REMARK                            x       y       z     vdW  Elec       q    Type
REMARK                         _______ _______ _______ _____ _____    ______ ____
ROOT
ATOM      1  C   UNL     1      -1.417   0.952   0.000  0.00  0.00    +0.000 C 
ATOM      2  C   UNL     1      -2.131   0.539   0.000  0.00  0.00    +0.000 C 
ATOM      3  O   UNL     1      -2.131  -0.286   0.000  0.00  0.00    +0.000 OA
ATOM      4  O   UNL     1      -2.848   0.942   0.000  0.00  0.00    +0.000 OA
ATOM      5  N   UNL     1      -0.702   0.390   0.000  0.00  0.00    +0.000 N 
ATOM      6  C   UNL     1      -0.448   1.175   0.000  0.00  0.00    +0.000 C 
ATOM      7  N   UNL     1       0.632   0.391   0.000  0.00  0.00    +0.000 N 
ATOM      8  C   UNL     1       0.377   1.176   0.000  0.00  0.00    +0.000 C 
ATOM      9  O   UNL     1       0.631  -0.943   0.000  0.00  0.00    +0.000 OA
ATOM     10  C   UNL     1       1.416  -0.689   0.000  0.00  0.00    +0.000 C 
ATOM     11  C   UNL     1       1.417   0.136   0.000  0.00  0.00    +0.000 C 
ATOM     12  O   UNL     1      -0.701  -0.945   0.000  0.00  0.00    +0.000 OA
ATOM     13 FE   UNL     1      -0.068  -0.277   0.000  0.00  0.00    +0.000 Fe
ATOM     14  C   UNL     1      -1.486  -0.690   0.000  0.00  0.00    +0.000 C 
ATOM     15  C   UNL     1      -1.487   0.135   0.000  0.00  0.00    +0.000 C 
ATOM     16  O   UNL     1      -2.153  -1.176   0.000  0.00  0.00    +0.000 OA
ATOM     17  O   UNL     1       2.083  -1.175   0.000  0.00  0.00    +0.000 OA
ENDROOT
BRANCH   7  18
ATOM     18  C   UNL     1       1.347   0.953   0.000  0.00  0.00    +0.000 C 
BRANCH  18  19
ATOM     19  C   UNL     1       2.061   0.540   0.000  0.00  0.00    +0.000 C 
ATOM     20  O   UNL     1       2.061  -0.284   0.000  0.00  0.00    +0.000 OA
ATOM     21  O   UNL     1       2.778   0.943   0.000  0.00  0.00    +0.000 OA
ENDBRANCH  18  19
ENDBRANCH   7  18
TORSDOF 2
REMARK  Name = 
REMARK  2 active torsions:
REMARK  status: ('A' for Active; 'I' for Inactive)
REMARK    1  A    between atoms: N_7  and  C_18
REMARK    2  A    between atoms: C_18  and  C_19
REMARK                            x       y       z     vdW  Elec       q    Type
REMARK                         _______ _______ _______ _____ _____    ______ ____
ROOT
ATOM      1 NA   UNL     1       2.848   0.092   0.000  0.00  0.00    +0.000 Na
ENDROOT
TORSDOF 0
