REMARK  Name = 
REMARK  5 active torsions:
REMARK  status: ('A' for Active; 'I' for Inactive)
REMARK    1  A    between atoms: C_2  and  C_7
REMARK    2  A    between atoms: C_6  and  N_17
REMARK    3  A    between atoms: C_10  and  C_13
REMARK    4  A    between atoms: N_17  and  N_18
REMARK    5  A    between atoms: N_23  and  C_26
REMARK                            x       y       z     vdW  Elec       q    Type
REMARK                         _______ _______ _______ _____ _____    ______ ____
ROOT
ATOM      1  N   UNL     1      -0.263   0.823   0.000  0.00  0.00    +0.000 NA
ENDROOT
BRANCH   1   2
ATOM      2  N   UNL     1      -0.977   1.236   0.000  0.00  0.00    +0.000 NA
ATOM      3  C   UNL     1      -1.762   0.981   0.000  0.00  0.00    +0.000 C 
ATOM      4  C   UNL     1      -2.429   1.466   0.000  0.00  0.00    +0.000 C 
ATOM      5  C   UNL     1      -2.017   0.196   0.000  0.00  0.00    +0.000 C 
ATOM      6  N   UNL     1      -3.097   0.981   0.000  0.00  0.00    +0.000 NA
ATOM      7  N   UNL     1      -2.842   0.196   0.000  0.00  0.00    +0.000 N 
ATOM      8  O   UNL     1      -1.532  -0.471   0.000  0.00  0.00    +0.000 OA
ATOM      9  C   UNL     1      -2.429   2.291   0.000  0.00  0.00    +0.000 C 
BRANCH   7  10
ATOM     10  C   UNL     1      -3.327  -0.471   0.000  0.00  0.00    +0.000 A 
ATOM     11  C   UNL     1      -4.147  -0.385   0.000  0.00  0.00    +0.000 A 
ATOM     12  C   UNL     1      -2.991  -1.225   0.000  0.00  0.00    +0.000 A 
ATOM     13  C   UNL     1      -4.633  -1.052   0.000  0.00  0.00    +0.000 A 
ATOM     14  C   UNL     1      -3.476  -1.892   0.000  0.00  0.00    +0.000 A 
ATOM     15  C   UNL     1      -4.297  -1.806   0.000  0.00  0.00    +0.000 A 
ATOM     16  C   UNL     1      -4.782  -2.473   0.000  0.00  0.00    +0.000 C 
ATOM     17  C   UNL     1      -5.453  -0.966   0.000  0.00  0.00    +0.000 C 
ENDBRANCH   7  10
ENDBRANCH   1   2
BRANCH   1  23
ATOM     18  C   UNL     1       1.880   2.061   0.000  0.00  0.00    +0.000 A 
ATOM     19  C   UNL     1       1.880   1.236   0.000  0.00  0.00    +0.000 A 
ATOM     20  C   UNL     1       1.166   2.473   0.000  0.00  0.00    +0.000 A 
ATOM     21  C   UNL     1       1.166   0.823   0.000  0.00  0.00    +0.000 A 
ATOM     22  C   UNL     1       0.452   2.061   0.000  0.00  0.00    +0.000 A 
ATOM     23  C   UNL     1       0.452   1.236   0.000  0.00  0.00    +0.000 A 
ATOM     24  O   UNL     1       1.166  -0.002   0.000  0.00  0.00    +0.000 OA
BRANCH  19  25
ATOM     25  C   UNL     1       2.595   0.823   0.000  0.00  0.00    +0.000 A 
ATOM     26  C   UNL     1       3.309   1.236   0.000  0.00  0.00    +0.000 A 
ATOM     27  C   UNL     1       2.595  -0.002   0.000  0.00  0.00    +0.000 A 
ATOM     28  C   UNL     1       4.024   0.823   0.000  0.00  0.00    +0.000 A 
ATOM     29  C   UNL     1       3.309  -0.414   0.000  0.00  0.00    +0.000 A 
ATOM     30  C   UNL     1       4.024  -0.002   0.000  0.00  0.00    +0.000 A 
BRANCH  28  31
ATOM     31  C   UNL     1       4.738   1.236   0.000  0.00  0.00    +0.000 C 
ATOM     32  O   UNL     1       4.738   2.061   0.000  0.00  0.00    +0.000 OA
ATOM     33  O   UNL     1       5.453   0.823   0.000  0.00  0.00    +0.000 OA
ENDBRANCH  28  31
ENDBRANCH  19  25
ENDBRANCH   1  23
TORSDOF 5
