REMARK  Name = 
REMARK  4 active torsions:
REMARK  status: ('A' for Active; 'I' for Inactive)
REMARK    1  A    between atoms: N_1  and  C_4
REMARK    2  A    between atoms: C_4  and  C_7
REMARK    3  A    between atoms: N_8  and  C_9
REMARK    4  A    between atoms: C_9  and  C_11
REMARK                            x       y       z     vdW  Elec       q    Type
REMARK                         _______ _______ _______ _____ _____    ______ ____
ROOT
ATOM      1  N   UNL     1      -0.753   0.396   0.000  0.00  0.00    +0.000 N 
ATOM      2  C   UNL     1      -0.086   0.881   0.000  0.00  0.00    +0.000 A 
ATOM      3  C   UNL     1      -1.421   0.881   0.000  0.00  0.00    +0.000 A 
ATOM      4  C   UNL     1      -0.341   1.666   0.000  0.00  0.00    +0.000 A 
ATOM      5  N   UNL     1      -1.166   1.666   0.000  0.00  0.00    +0.000 NA
ATOM      6  N   UNL     1      -2.205   0.626   0.000  0.00  0.00    +0.000 N 
ATOM      7  O   UNL     1      -2.377  -0.180   0.000  0.00  0.00    +0.000 OA
ATOM      8  O   UNL     1      -2.819   1.178   0.000  0.00  0.00    +0.000 OA
ENDROOT
BRANCH   1   9
ATOM      9  C   UNL     1      -0.753  -0.428   0.000  0.00  0.00    +0.000 C 
BRANCH   9  10
ATOM     10  C   UNL     1      -0.039  -0.841   0.000  0.00  0.00    +0.000 C 
ATOM     11  N   UNL     1       0.675  -0.428   0.000  0.00  0.00    +0.000 NA
ATOM     12  O   UNL     1      -0.039  -1.666   0.000  0.00  0.00    +0.000 OA
BRANCH  11  13
ATOM     13  C   UNL     1       1.390  -0.841   0.000  0.00  0.00    +0.000 C 
BRANCH  13  14
ATOM     14  C   UNL     1       2.104  -0.428   0.000  0.00  0.00    +0.000 C 
ATOM     15  O   UNL     1       2.819  -0.841   0.000  0.00  0.00    +0.000 OA
ENDBRANCH  13  14
ENDBRANCH  11  13
ENDBRANCH   9  10
ENDBRANCH   1   9
TORSDOF 4
