REMARK  Name = 
REMARK  8 active torsions:
REMARK  status: ('A' for Active; 'I' for Inactive)
REMARK    1  A    between atoms: C_6  and  C_7
REMARK    2  A    between atoms: C_6  and  C_10
REMARK    3  A    between atoms: C_7  and  C_14
REMARK    4  A    between atoms: C_10  and  N_18
REMARK    5  A    between atoms: C_13  and  O_20
REMARK    6  A    between atoms: C_14  and  C_17
REMARK    7  A    between atoms: C_15  and  O_21
REMARK    8  A    between atoms: C_16  and  O_22
REMARK                            x       y       z     vdW  Elec       q    Type
REMARK                         _______ _______ _______ _____ _____    ______ ____
ROOT
ATOM      1  C   UNL     1      -1.429   2.475   0.000  0.00  0.00    +0.000 A 
ATOM      2  C   UNL     1      -0.715   1.238   0.000  0.00  0.00    +0.000 A 
ATOM      3  C   UNL     1      -1.429   1.650   0.000  0.00  0.00    +0.000 A 
ATOM      4  C   UNL     1      -0.715   2.888   0.000  0.00  0.00    +0.000 A 
ATOM      5  C   UNL     1       0.000   1.650   0.000  0.00  0.00    +0.000 A 
ATOM      6  C   UNL     1       0.000   2.475   0.000  0.00  0.00    +0.000 A 
ENDROOT
BRANCH   5   8
ATOM      7  C   UNL     1       1.429   1.650   0.000  0.00  0.00    +0.000 C 
ATOM      8  O   UNL     1       0.715   1.238   0.000  0.00  0.00    +0.000 OA
ENDBRANCH   5   8
BRANCH   4  10
ATOM      9  C   UNL     1       0.000   4.125   0.000  0.00  0.00    +0.000 C 
ATOM     10  O   UNL     1      -0.715   3.712   0.000  0.00  0.00    +0.000 OA
ENDBRANCH   4  10
BRANCH   6  11
ATOM     11  C   UNL     1       0.715   2.888   0.000  0.00  0.00    +0.000 C 
ATOM     12  O   UNL     1       0.715   3.712   0.000  0.00  0.00    +0.000 OA
BRANCH  11  13
ATOM     13  C   UNL     1       1.429   2.475   0.000  0.00  0.00    +0.000 C 
BRANCH  13  14
ATOM     14  C   UNL     1       2.143   2.888   0.000  0.00  0.00    +0.000 C 
BRANCH  14  15
ATOM     15  C   UNL     1       2.858   2.475   0.000  0.00  0.00    +0.000 C 
BRANCH  15  20
ATOM     16  C   UNL     1       4.878   3.165   0.000  0.00  0.00    +0.000 C 
ATOM     17  C   UNL     1       4.466   3.880   0.000  0.00  0.00    +0.000 C 
ATOM     18  C   UNL     1       4.326   2.552   0.000  0.00  0.00    +0.000 C 
ATOM     19  C   UNL     1       3.659   3.708   0.000  0.00  0.00    +0.000 C 
ATOM     20  N   UNL     1       3.572   2.888   0.000  0.00  0.00    +0.000 NA
ENDBRANCH  15  20
ENDBRANCH  14  15
ENDBRANCH  13  14
ENDBRANCH  11  13
ENDBRANCH   6  11
BRANCH   3  22
ATOM     21  C   UNL     1      -2.143   0.412   0.000  0.00  0.00    +0.000 C 
ATOM     22  O   UNL     1      -2.143   1.238   0.000  0.00  0.00    +0.000 OA
ENDBRANCH   3  22
TORSDOF 8
