REMARK  Name = 
REMARK  2 active torsions:
REMARK  status: ('A' for Active; 'I' for Inactive)
REMARK    1  A    between atoms: C_6  and  N_8
REMARK    2  A    between atoms: N_14  and  C_15
REMARK                            x       y       z     vdW  Elec       q    Type
REMARK                         _______ _______ _______ _____ _____    ______ ____
ROOT
ATOM      1  N   UNL     1      -0.715   0.825   0.000  0.00  0.00    +0.000 NA
ATOM      2  C   UNL     1       0.000   0.412   0.000  0.00  0.00    +0.000 C 
ATOM      3  N   UNL     1       0.000  -0.412   0.000  0.00  0.00    +0.000 NA
ATOM      4  N   UNL     1       0.715   0.825   0.000  0.00  0.00    +0.000 NA
ATOM      5  C   UNL     1       1.429   0.412   0.000  0.00  0.00    +0.000 C 
ATOM      6  N   UNL     1       1.429  -0.412   0.000  0.00  0.00    +0.000 NA
ATOM      7  N   UNL     1       2.144   0.825   0.000  0.00  0.00    +0.000 NA
ENDROOT
BRANCH   1  13
ATOM      8  C   UNL     1      -2.143   0.825   0.000  0.00  0.00    +0.000 A 
ATOM      9  C   UNL     1      -2.858   0.412   0.000  0.00  0.00    +0.000 A 
ATOM     10  C   UNL     1      -2.858  -0.412   0.000  0.00  0.00    +0.000 A 
ATOM     11  C   UNL     1      -2.143  -0.825   0.000  0.00  0.00    +0.000 A 
ATOM     12  C   UNL     1      -1.429  -0.412   0.000  0.00  0.00    +0.000 A 
ATOM     13  C   UNL     1      -1.429   0.412   0.000  0.00  0.00    +0.000 A 
ATOM     14 CL   UNL     1      -3.573  -0.825   0.000  0.00  0.00    +0.000 Cl
ENDBRANCH   1  13
BRANCH   7  15
ATOM     15  C   UNL     1       2.858   0.412   0.000  0.00  0.00    +0.000 C 
ATOM     16  C   UNL     1       3.573   0.825   0.000  0.00  0.00    +0.000 C 
ATOM     17  C   UNL     1       2.858  -0.412   0.000  0.00  0.00    +0.000 C 
ENDBRANCH   7  15
TORSDOF 2
