REMARK  Name = 
REMARK  3 active torsions:
REMARK  status: ('A' for Active; 'I' for Inactive)
REMARK    1  A    between atoms: C_6  and  N_17
REMARK    2  A    between atoms: C_18  and  C_19
REMARK    3  A    between atoms: C_23  and  O_26
REMARK                            x       y       z     vdW  Elec       q    Type
REMARK                         _______ _______ _______ _____ _____    ______ ____
ROOT
ATOM      1  C   UNL     1       0.142   2.998   0.000  0.00  0.00    +0.000 C 
ATOM      2  C   UNL     1       0.922   2.844   0.000  0.00  0.00    +0.000 C 
ATOM      3  C   UNL     1       1.845   2.071   0.000  0.00  0.00    +0.000 C 
ATOM      4  C   UNL     1       1.845   1.365   0.000  0.00  0.00    +0.000 C 
ATOM      5  C   UNL     1       1.312   0.904   0.000  0.00  0.00    +0.000 C 
ATOM      6  C   UNL     1       0.039   1.381   0.000  0.00  0.00    +0.000 C 
ATOM      7  C   UNL     1      -0.477   1.917   0.000  0.00  0.00    +0.000 A 
ATOM      8  C   UNL     1      -0.477   2.639   0.000  0.00  0.00    +0.000 A 
ATOM      9  N   UNL     1      -1.100   2.998   0.000  0.00  0.00    +0.000 NA
ATOM     10  C   UNL     1      -1.715   2.639   0.000  0.00  0.00    +0.000 A 
ATOM     11  C   UNL     1      -1.715   1.917   0.000  0.00  0.00    +0.000 A 
ATOM     12  C   UNL     1      -1.100   1.558   0.000  0.00  0.00    +0.000 A 
ATOM     13  O   UNL     1      -2.431   3.050   0.000  0.00  0.00    +0.000 OA
ATOM     14  C   UNL     1       0.768   1.929   0.000  0.00  0.00    +0.000 C 
ATOM     15  C   UNL     1       1.473   1.500   0.000  0.00  0.00    +0.000 C 
ATOM     16  C   UNL     1       2.197   1.896   0.000  0.00  0.00    +0.000 C 
ATOM     17  C   UNL     1       2.595   1.022   0.000  0.00  0.00    +0.000 C 
ENDROOT
BRANCH   6  18
ATOM     18  N   UNL     1      -0.413   0.691   0.000  0.00  0.00    +0.000 NA
ATOM     19  C   UNL     1      -0.043  -0.046   0.000  0.00  0.00    +0.000 C 
BRANCH  19  20
ATOM     20  C   UNL     1      -0.495  -0.735   0.000  0.00  0.00    +0.000 A 
ATOM     21  C   UNL     1      -1.319  -0.688   0.000  0.00  0.00    +0.000 A 
ATOM     22  C   UNL     1      -1.772  -1.378   0.000  0.00  0.00    +0.000 A 
ATOM     23  C   UNL     1      -1.401  -2.115   0.000  0.00  0.00    +0.000 A 
ATOM     24  C   UNL     1      -0.577  -2.162   0.000  0.00  0.00    +0.000 A 
ATOM     25  C   UNL     1      -0.124  -1.472   0.000  0.00  0.00    +0.000 A 
ATOM     26  O   UNL     1       0.699  -1.520   0.000  0.00  0.00    +0.000 OA
ATOM     27 CL   UNL     1      -2.595  -1.331   0.000  0.00  0.00    +0.000 Cl
BRANCH  24  28
ATOM     28  O   UNL     1      -0.206  -2.899   0.000  0.00  0.00    +0.000 OA
ATOM     29  C   UNL     1      -0.659  -3.589   0.000  0.00  0.00    +0.000 C 
ENDBRANCH  24  28
ENDBRANCH  19  20
ENDBRANCH   6  18
TORSDOF 3
