REMARK  Name = 
REMARK  11 active torsions:
REMARK  status: ('A' for Active; 'I' for Inactive)
REMARK    1  A    between atoms: C_1  and  C_2
REMARK    2  A    between atoms: C_2  and  C_3
REMARK    3  A    between atoms: C_2  and  N_15
REMARK    4  A    between atoms: C_3  and  C_4
REMARK    5  A    between atoms: C_5  and  C_6
REMARK    6  A    between atoms: C_6  and  N_9
REMARK    7  A    between atoms: N_15  and  S_16
REMARK    8  A    between atoms: S_16  and  C_19
REMARK    9  A    between atoms: C_22  and  N_25
REMARK   10  A    between atoms: C_26  and  C_27
REMARK   11  A    between atoms: C_30  and  O_34
REMARK                            x       y       z     vdW  Elec       q    Type
REMARK                         _______ _______ _______ _____ _____    ______ ____
ROOT
ATOM      1  S   UNL     1      -0.357   1.031   0.000  0.00  0.00    +0.000 S 
ATOM      2  O   UNL     1      -0.770   0.317   0.000  0.00  0.00    +0.000 OA
ATOM      3  O   UNL     1       0.055   1.746   0.000  0.00  0.00    +0.000 OA
ENDROOT
BRANCH   1   4
ATOM      4  C   UNL     1       0.357   0.619   0.000  0.00  0.00    +0.000 A 
ATOM      5  C   UNL     1       1.072   1.031   0.000  0.00  0.00    +0.000 A 
ATOM      6  C   UNL     1       1.786   0.619   0.000  0.00  0.00    +0.000 A 
ATOM      7  C   UNL     1       1.786  -0.206   0.000  0.00  0.00    +0.000 A 
ATOM      8  C   UNL     1       1.072  -0.619   0.000  0.00  0.00    +0.000 A 
ATOM      9  C   UNL     1       0.357  -0.206   0.000  0.00  0.00    +0.000 A 
BRANCH   7  10
ATOM     10  N   UNL     1       2.501  -0.619   0.000  0.00  0.00    +0.000 NA
ATOM     11  C   UNL     1       3.215  -0.206   0.000  0.00  0.00    +0.000 C 
ATOM     12  O   UNL     1       3.215   0.619   0.000  0.00  0.00    +0.000 OA
BRANCH  11  13
ATOM     13  C   UNL     1       3.930  -0.619   0.000  0.00  0.00    +0.000 A 
ATOM     14  C   UNL     1       4.644  -0.206   0.000  0.00  0.00    +0.000 A 
ATOM     15  C   UNL     1       5.358  -0.619   0.000  0.00  0.00    +0.000 A 
ATOM     16  C   UNL     1       5.358  -1.444   0.000  0.00  0.00    +0.000 A 
ATOM     17  C   UNL     1       4.644  -1.856   0.000  0.00  0.00    +0.000 A 
ATOM     18  C   UNL     1       3.930  -1.444   0.000  0.00  0.00    +0.000 A 
BRANCH  16  19
ATOM     19  O   UNL     1       6.073  -1.856   0.000  0.00  0.00    +0.000 OA
ATOM     20  C   UNL     1       6.787  -1.444   0.000  0.00  0.00    +0.000 C 
ENDBRANCH  16  19
ENDBRANCH  11  13
ENDBRANCH   7  10
ENDBRANCH   1   4
BRANCH   1  21
ATOM     21  N   UNL     1      -1.072   1.444   0.000  0.00  0.00    +0.000 NA
BRANCH  21  22
ATOM     22  C   UNL     1      -1.786   1.031   0.000  0.00  0.00    +0.000 C 
BRANCH  22  23
ATOM     23  C   UNL     1      -1.786   0.206   0.000  0.00  0.00    +0.000 C 
ATOM     24  O   UNL     1      -2.501  -0.206   0.000  0.00  0.00    +0.000 OA
ATOM     25  O   UNL     1      -1.072  -0.206   0.000  0.00  0.00    +0.000 OA
ENDBRANCH  22  23
BRANCH  22  26
ATOM     26  C   UNL     1      -2.501   1.444   0.000  0.00  0.00    +0.000 C 
BRANCH  26  27
ATOM     27  C   UNL     1      -3.215   1.031   0.000  0.00  0.00    +0.000 C 
ATOM     28  C   UNL     1      -3.930   0.619   0.000  0.00  0.00    +0.000 C 
BRANCH  28  29
ATOM     29  C   UNL     1      -4.644   0.206   0.000  0.00  0.00    +0.000 C 
BRANCH  29  30
ATOM     30  N   UNL     1      -5.358   0.619   0.000  0.00  0.00    +0.000 NA
ATOM     31  C   UNL     1      -6.073   0.206   0.000  0.00  0.00    +0.000 C 
ATOM     32  C   UNL     1      -6.787   0.619   0.000  0.00  0.00    +0.000 C 
ATOM     33  O   UNL     1      -6.787   1.444   0.000  0.00  0.00    +0.000 OA
ATOM     34  C   UNL     1      -6.073   1.856   0.000  0.00  0.00    +0.000 C 
ATOM     35  C   UNL     1      -5.358   1.444   0.000  0.00  0.00    +0.000 C 
ENDBRANCH  29  30
ENDBRANCH  28  29
ENDBRANCH  26  27
ENDBRANCH  22  26
ENDBRANCH  21  22
ENDBRANCH   1  21
TORSDOF 11
