REMARK  Name = 
REMARK  1 active torsions:
REMARK  status: ('A' for Active; 'I' for Inactive)
REMARK    1  A    between atoms: S_4  and  S_5
REMARK                            x       y       z     vdW  Elec       q    Type
REMARK                         _______ _______ _______ _____ _____    ______ ____
ROOT
ATOM      1 NA   UNL     1       1.481   0.802   0.000  0.00  0.00    +0.000 Na
ENDROOT
TORSDOF 0
REMARK  Name = 
REMARK  1 active torsions:
REMARK  status: ('A' for Active; 'I' for Inactive)
REMARK    1  A    between atoms: S_4  and  S_5
REMARK                            x       y       z     vdW  Elec       q    Type
REMARK                         _______ _______ _______ _____ _____    ______ ____
ROOT
ATOM      1 NA   UNL     1       1.524  -0.072   0.000  0.00  0.00    +0.000 Na
ENDROOT
TORSDOF 0
REMARK  Name = 
REMARK  1 active torsions:
REMARK  status: ('A' for Active; 'I' for Inactive)
REMARK    1  A    between atoms: S_4  and  S_5
REMARK                            x       y       z     vdW  Elec       q    Type
REMARK                         _______ _______ _______ _____ _____    ______ ____
ROOT
ATOM      1  S   UNL     1      -0.286   0.000   0.000  0.00  0.00    +0.000 S 
ATOM      2  O   UNL     1      -0.286   0.825   0.000  0.00  0.00    +0.000 OA
ATOM      3  O   UNL     1      -0.286  -0.825   0.000  0.00  0.00    +0.000 OA
ATOM      4  O   UNL     1       0.539   0.000   0.000  0.00  0.00    +0.000 OA
ENDROOT
BRANCH   1   6
ATOM      5  O   UNL     1      -1.524  -0.714   0.000  0.00  0.00    +0.000 OA
ATOM      6  S   UNL     1      -1.111   0.000   0.000  0.00  0.00    +0.000 S 
ATOM      7  O   UNL     1      -1.524   0.715   0.000  0.00  0.00    +0.000 OA
ENDBRANCH   1   6
TORSDOF 1
