REMARK  Name = 
REMARK  2 active torsions:
REMARK  status: ('A' for Active; 'I' for Inactive)
REMARK    1  A    between atoms: N_7  and  C1*_12
REMARK    2  A    between atoms: C4*_13  and  C5*_14
REMARK                            x       y       z     vdW  Elec       q    Type
REMARK                         _______ _______ _______ _____ _____    ______ ____
ROOT
ATOM      1  O   UNL     1       1.336  -0.073   0.000  0.00  0.00    +0.000 OA
ATOM      2  O   UNL     1      -0.808   2.815   0.000  0.00  0.00    +0.000 OA
ATOM      3  N   UNL     1      -0.093  -0.073   0.000  0.00  0.00    +0.000 N 
ATOM      4  N   UNL     1       0.621   1.165   0.000  0.00  0.00    +0.000 NA
ATOM      5  N   UNL     1      -0.093   2.402   0.000  0.00  0.00    +0.000 NA
ATOM      6  C   UNL     1      -0.808   0.340   0.000  0.00  0.00    +0.000 A 
ATOM      7  C   UNL     1       0.621   0.340   0.000  0.00  0.00    +0.000 A 
ATOM      8  C   UNL     1      -0.808   1.165   0.000  0.00  0.00    +0.000 A 
ATOM      9  C   UNL     1      -0.093   1.577   0.000  0.00  0.00    +0.000 A 
ENDROOT
BRANCH   3  15
ATOM     10  O4* UNL     1       0.574  -1.383   0.000  0.00  0.00    +0.000 OA
ATOM     11  O2* UNL     1      -1.545  -1.128   0.000  0.00  0.00    +0.000 OA
ATOM     12  O3* UNL     1      -0.991  -2.835   0.000  0.00  0.00    +0.000 OA
ATOM     13  C2* UNL     1      -0.761  -1.383   0.000  0.00  0.00    +0.000 C 
ATOM     14  C3* UNL     1      -0.506  -2.167   0.000  0.00  0.00    +0.000 C 
ATOM     15  C1* UNL     1      -0.093  -0.898   0.000  0.00  0.00    +0.000 C 
ATOM     16  C4* UNL     1       0.319  -2.167   0.000  0.00  0.00    +0.000 C 
BRANCH  16  18
ATOM     17  O5* UNL     1       1.625  -2.748   0.000  0.00  0.00    +0.000 OA
ATOM     18  C5* UNL     1       0.804  -2.835   0.000  0.00  0.00    +0.000 C 
ENDBRANCH  16  18
ENDBRANCH   3  15
TORSDOF 2
