REMARK  Name = 
REMARK  9 active torsions:
REMARK  status: ('A' for Active; 'I' for Inactive)
REMARK    1  A    between atoms: C_4  and  C_7
REMARK    2  A    between atoms: C_4  and  C_8
REMARK    3  A    between atoms: C_7  and  C_21
REMARK    4  A    between atoms: C_8  and  N_9
REMARK    5  A    between atoms: C_10  and  O_11
REMARK    6  A    between atoms: O_11  and  C_13
REMARK    7  A    between atoms: C_13  and  O_14
REMARK    8  A    between atoms: O_14  and  C_16
REMARK    9  A    between atoms: C_16  and  C_17
REMARK                            x       y       z     vdW  Elec       q    Type
REMARK                         _______ _______ _______ _____ _____    ______ ____
ROOT
ATOM      1  N   UNL     1      -0.533  -0.247   0.000  0.00  0.00    +0.000 NA
ATOM      2  C   UNL     1       0.050   0.337   0.000  0.00  0.00    +0.000 C 
ATOM      3  O   UNL     1      -0.164   1.133   0.000  0.00  0.00    +0.000 OA
ENDROOT
BRANCH   1   4
ATOM      4  C   UNL     1      -1.330  -0.033   0.000  0.00  0.00    +0.000 C 
BRANCH   4   8
ATOM      5  C   UNL     1      -1.914  -2.267   0.000  0.00  0.00    +0.000 C 
ATOM      6  C   UNL     1      -1.199  -1.854   0.000  0.00  0.00    +0.000 C 
ATOM      7  C   UNL     1      -1.199  -1.029   0.000  0.00  0.00    +0.000 C 
ATOM      8  C   UNL     1      -1.914  -0.617   0.000  0.00  0.00    +0.000 C 
ATOM      9  C   UNL     1      -2.628  -1.029   0.000  0.00  0.00    +0.000 C 
ATOM     10  C   UNL     1      -2.628  -1.854   0.000  0.00  0.00    +0.000 C 
BRANCH   8  11
ATOM     11  C   UNL     1      -2.497  -0.033   0.000  0.00  0.00    +0.000 C 
BRANCH  11  12
ATOM     12  C   UNL     1      -3.322  -0.033   0.000  0.00  0.00    +0.000 C 
ATOM     13  O   UNL     1      -3.734   0.681   0.000  0.00  0.00    +0.000 OA
ATOM     14  O   UNL     1      -3.734  -0.748   0.000  0.00  0.00    +0.000 OA
ENDBRANCH  11  12
ENDBRANCH   8  11
ENDBRANCH   4   8
ENDBRANCH   1   4
BRANCH   2  15
ATOM     15  O   UNL     1       0.847   0.123   0.000  0.00  0.00    +0.000 OA
BRANCH  15  16
ATOM     16  C   UNL     1       1.259   0.838   0.000  0.00  0.00    +0.000 C 
ATOM     17  C   UNL     1       0.847   1.552   0.000  0.00  0.00    +0.000 C 
BRANCH  16  18
ATOM     18  O   UNL     1       2.084   0.838   0.000  0.00  0.00    +0.000 OA
BRANCH  18  19
ATOM     19  C   UNL     1       2.497   1.552   0.000  0.00  0.00    +0.000 C 
ATOM     20  O   UNL     1       2.084   2.267   0.000  0.00  0.00    +0.000 OA
BRANCH  19  21
ATOM     21  C   UNL     1       3.322   1.552   0.000  0.00  0.00    +0.000 C 
ATOM     22  C   UNL     1       3.734   2.267   0.000  0.00  0.00    +0.000 C 
ATOM     23  C   UNL     1       3.734   0.838   0.000  0.00  0.00    +0.000 C 
ENDBRANCH  19  21
ENDBRANCH  18  19
ENDBRANCH  16  18
ENDBRANCH  15  16
ENDBRANCH   2  15
TORSDOF 9
