REMARK  Name = 
REMARK  4 active torsions:
REMARK  status: ('A' for Active; 'I' for Inactive)
REMARK    1  A    between atoms: C_7  and  C_10
REMARK    2  A    between atoms: C_8  and  C_10
REMARK    3  A    between atoms: C_8  and  C_22
REMARK    4  A    between atoms: C_10  and  C_11
REMARK                            x       y       z     vdW  Elec       q    Type
REMARK                         _______ _______ _______ _____ _____    ______ ____
ROOT
ATOM      1  C   UNL     1      -2.143  -0.412   0.000  0.00  0.00    +0.000 A 
ATOM      2  C   UNL     1      -2.858  -0.825   0.000  0.00  0.00    +0.000 A 
ATOM      3  C   UNL     1      -2.858  -1.650   0.000  0.00  0.00    +0.000 A 
ATOM      4  C   UNL     1      -2.143  -2.062   0.000  0.00  0.00    +0.000 A 
ATOM      5  C   UNL     1      -1.429  -0.825   0.000  0.00  0.00    +0.000 A 
ATOM      6  C   UNL     1      -1.429  -1.650   0.000  0.00  0.00    +0.000 A 
ATOM      7  C   UNL     1       0.000  -0.825   0.000  0.00  0.00    +0.000 A 
ATOM      8  C   UNL     1      -0.715  -0.412   0.000  0.00  0.00    +0.000 A 
ATOM      9  O   UNL     1      -0.715   0.412   0.000  0.00  0.00    +0.000 OA
ATOM     10  O   UNL     1      -0.715  -2.062   0.000  0.00  0.00    +0.000 OA
ATOM     11  C   UNL     1       0.000  -1.650   0.000  0.00  0.00    +0.000 A 
ATOM     12  O   UNL     1       0.715  -2.062   0.000  0.00  0.00    +0.000 OA
ENDROOT
BRANCH   7  13
ATOM     13  C   UNL     1       0.715  -0.412   0.000  0.00  0.00    +0.000 C 
BRANCH  13  14
ATOM     14  C   UNL     1       0.715   0.412   0.000  0.00  0.00    +0.000 A 
ATOM     15  C   UNL     1       0.715   2.062   0.000  0.00  0.00    +0.000 A 
ATOM     16  C   UNL     1       0.000   1.650   0.000  0.00  0.00    +0.000 A 
ATOM     17  C   UNL     1       0.000   0.825   0.000  0.00  0.00    +0.000 A 
ATOM     18  C   UNL     1       1.429   0.825   0.000  0.00  0.00    +0.000 A 
ATOM     19  C   UNL     1       1.429   1.650   0.000  0.00  0.00    +0.000 A 
ENDBRANCH  13  14
BRANCH  13  20
ATOM     20  C   UNL     1       1.429  -0.825   0.000  0.00  0.00    +0.000 C 
BRANCH  20  22
ATOM     21  C   UNL     1       2.858  -0.825   0.000  0.00  0.00    +0.000 C 
ATOM     22  C   UNL     1       2.143  -0.412   0.000  0.00  0.00    +0.000 C 
ATOM     23  O   UNL     1       2.143   0.412   0.000  0.00  0.00    +0.000 OA
ENDBRANCH  20  22
ENDBRANCH  13  20
ENDBRANCH   7  13
TORSDOF 4
