REMARK  Name = 
REMARK  3 active torsions:
REMARK  status: ('A' for Active; 'I' for Inactive)
REMARK    1  A    between atoms: C_9  and  C_14
REMARK    2  A    between atoms: N_16  and  C_17
REMARK    3  A    between atoms: C_20  and  C_24
REMARK                            x       y       z     vdW  Elec       q    Type
REMARK                         _______ _______ _______ _____ _____    ______ ____
ROOT
ATOM      1  C   UNL     1       0.530   0.632   0.000  0.00  0.00    +0.000 C 
ATOM      2  C   UNL     1       0.000   0.000   0.000  0.00  0.00    +0.000 C 
ATOM      3  C   UNL     1      -0.715  -0.412   0.000  0.00  0.00    +0.000 C 
ATOM      4  C   UNL     1      -0.715  -1.238   0.000  0.00  0.00    +0.000 C 
ATOM      5  C   UNL     1       0.000  -1.650   0.000  0.00  0.00    +0.000 C 
ATOM      6  C   UNL     1       0.715  -1.238   0.000  0.00  0.00    +0.000 A 
ATOM      7  C   UNL     1       0.715  -0.412   0.000  0.00  0.00    +0.000 A 
ATOM      8  C   UNL     1       1.429   0.000   0.000  0.00  0.00    +0.000 A 
ATOM      9  C   UNL     1       2.143  -0.412   0.000  0.00  0.00    +0.000 A 
ATOM     10  C   UNL     1       2.143  -1.238   0.000  0.00  0.00    +0.000 A 
ATOM     11  C   UNL     1       1.429  -1.650   0.000  0.00  0.00    +0.000 A 
ATOM     12 CL   UNL     1       1.429  -2.475   0.000  0.00  0.00    +0.000 Cl
ATOM     13  O   UNL     1       2.858  -1.650   0.000  0.00  0.00    +0.000 OA
ATOM     14  C   UNL     1      -0.387  -2.378   0.000  0.00  0.00    +0.000 C 
ATOM     15  C   UNL     1       0.387  -2.378   0.000  0.00  0.00    +0.000 C 
ATOM     16  C   UNL     1      -0.530   0.632   0.000  0.00  0.00    +0.000 C 
ENDROOT
BRANCH   9  17
ATOM     17  C   UNL     1       2.858   0.000   0.000  0.00  0.00    +0.000 C 
ATOM     18  O   UNL     1       3.572  -0.412   0.000  0.00  0.00    +0.000 OA
ATOM     19  N   UNL     1       2.858   0.825   0.000  0.00  0.00    +0.000 NA
BRANCH  19  20
ATOM     20  C   UNL     1       3.572   1.238   0.000  0.00  0.00    +0.000 A 
ATOM     21  C   UNL     1       3.572   2.062   0.000  0.00  0.00    +0.000 A 
ATOM     22  C   UNL     1       4.287   2.475   0.000  0.00  0.00    +0.000 A 
ATOM     23  C   UNL     1       5.001   2.062   0.000  0.00  0.00    +0.000 A 
ATOM     24  C   UNL     1       5.001   1.238   0.000  0.00  0.00    +0.000 A 
ATOM     25  C   UNL     1       4.287   0.825   0.000  0.00  0.00    +0.000 A 
ATOM     26  F   UNL     1       5.716   0.825   0.000  0.00  0.00    +0.000 F 
ATOM     27  F   UNL     1       4.287   3.300   0.000  0.00  0.00    +0.000 F 
BRANCH  23  28
ATOM     28  C   UNL     1       5.716   2.475   0.000  0.00  0.00    +0.000 C 
ATOM     29  O   UNL     1       5.716   3.300   0.000  0.00  0.00    +0.000 OA
ATOM     30  O   UNL     1       6.430   2.062   0.000  0.00  0.00    +0.000 OA
ENDBRANCH  23  28
ENDBRANCH  19  20
ENDBRANCH   9  17
TORSDOF 3
