REMARK  Name = 
REMARK  5 active torsions:
REMARK  status: ('A' for Active; 'I' for Inactive)
REMARK    1  A    between atoms: N_7  and  C_11
REMARK    2  A    between atoms: C_11  and  C_12
REMARK    3  A    between atoms: C_12  and  O_13
REMARK    4  A    between atoms: O_13  and  C_14
REMARK    5  A    between atoms: C_14  and  P_15
REMARK                            x       y       z     vdW  Elec       q    Type
REMARK                         _______ _______ _______ _____ _____    ______ ____
ROOT
ATOM      1  C   UNL     1      -0.565   2.803   0.000  0.00  0.00    +0.000 A 
ATOM      2  N   UNL     1      -1.280   2.390   0.000  0.00  0.00    +0.000 NA
ATOM      3  C   UNL     1      -1.280   1.565   0.000  0.00  0.00    +0.000 A 
ATOM      4  N   UNL     1      -0.565   1.153   0.000  0.00  0.00    +0.000 NA
ATOM      5  C   UNL     1       0.149   1.565   0.000  0.00  0.00    +0.000 A 
ATOM      6  C   UNL     1       0.149   2.390   0.000  0.00  0.00    +0.000 A 
ATOM      7  N   UNL     1       0.934   1.310   0.000  0.00  0.00    +0.000 N 
ATOM      8  N   UNL     1       0.934   2.645   0.000  0.00  0.00    +0.000 NA
ATOM      9  C   UNL     1       1.419   1.978   0.000  0.00  0.00    +0.000 A 
ATOM     10  N   UNL     1      -1.994   1.153   0.000  0.00  0.00    +0.000 NA
ENDROOT
BRANCH   7  11
ATOM     11  C   UNL     1       1.189   0.526   0.000  0.00  0.00    +0.000 C 
BRANCH  11  12
ATOM     12  C   UNL     1       0.637  -0.087   0.000  0.00  0.00    +0.000 C 
ATOM     13  C   UNL     1      -0.063   0.350   0.000  0.00  0.00    +0.000 C 
ATOM     14  C   UNL     1      -0.091  -0.475   0.000  0.00  0.00    +0.000 C 
BRANCH  12  15
ATOM     15  O   UNL     1       1.145  -0.738   0.000  0.00  0.00    +0.000 OA
BRANCH  15  16
ATOM     16  C   UNL     1       0.836  -1.503   0.000  0.00  0.00    +0.000 C 
BRANCH  16  17
ATOM     17  P   UNL     1       1.344  -2.153   0.000  0.00  0.00    +0.000 P 
ATOM     18  O   UNL     1       0.694  -2.661   0.000  0.00  0.00    +0.000 OA
ATOM     19  O   UNL     1       1.852  -2.803   0.000  0.00  0.00    +0.000 OA
ATOM     20  O   UNL     1       1.994  -1.645   0.000  0.00  0.00    +0.000 OA
ENDBRANCH  16  17
ENDBRANCH  15  16
ENDBRANCH  12  15
ENDBRANCH  11  12
ENDBRANCH   7  11
TORSDOF 5
