REMARK  Name = 
REMARK  7 active torsions:
REMARK  status: ('A' for Active; 'I' for Inactive)
REMARK    1  A    between atoms: C_5  and  O_7
REMARK    2  A    between atoms: O_7  and  C_8
REMARK    3  A    between atoms: C_13  and  O_16
REMARK    4  A    between atoms: O_16  and  C_17
REMARK    5  A    between atoms: C_17  and  C_18
REMARK    6  A    between atoms: N_21  and  C_24
REMARK    7  A    between atoms: C_24  and  C_25
REMARK                            x       y       z     vdW  Elec       q    Type
REMARK                         _______ _______ _______ _____ _____    ______ ____
ROOT
ATOM      1  O   UNL     1      -0.398   2.975   0.000  0.00  0.00    +0.000 OA
ENDROOT
BRANCH   1   8
ATOM      2  C   UNL     1       2.070   1.110   0.000  0.00  0.00    +0.000 A 
ATOM      3  C   UNL     1       1.356   0.698   0.000  0.00  0.00    +0.000 A 
ATOM      4  C   UNL     1       0.641   1.110   0.000  0.00  0.00    +0.000 A 
ATOM      5  C   UNL     1       0.641   1.935   0.000  0.00  0.00    +0.000 A 
ATOM      6  C   UNL     1       1.356   2.348   0.000  0.00  0.00    +0.000 A 
ATOM      7  C   UNL     1       2.070   1.935   0.000  0.00  0.00    +0.000 A 
ATOM      8  C   UNL     1      -0.143   2.190   0.000  0.00  0.00    +0.000 A 
ATOM      9  N   UNL     1      -0.628   1.523   0.000  0.00  0.00    +0.000 NA
ATOM     10  O   UNL     1      -0.143   0.856   0.000  0.00  0.00    +0.000 OA
BRANCH   6  11
ATOM     11  O   UNL     1       1.356   3.173   0.000  0.00  0.00    +0.000 OA
BRANCH  11  12
ATOM     12  C   UNL     1       2.070   3.585   0.000  0.00  0.00    +0.000 C 
ATOM     13  C   UNL     1       2.156   4.406   0.000  0.00  0.00    +0.000 C 
ATOM     14  C   UNL     1       2.963   4.577   0.000  0.00  0.00    +0.000 C 
ATOM     15  O   UNL     1       3.376   3.863   0.000  0.00  0.00    +0.000 OA
ATOM     16  C   UNL     1       2.824   3.250   0.000  0.00  0.00    +0.000 C 
ENDBRANCH  11  12
ENDBRANCH   6  11
ENDBRANCH   1   8
BRANCH   1  17
ATOM     17  C   UNL     1      -1.205   3.147   0.000  0.00  0.00    +0.000 C 
BRANCH  17  18
ATOM     18  C   UNL     1      -1.460   3.931   0.000  0.00  0.00    +0.000 C 
ATOM     19  C   UNL     1      -2.267   4.103   0.000  0.00  0.00    +0.000 C 
ATOM     20  C   UNL     1      -2.522   4.887   0.000  0.00  0.00    +0.000 C 
ATOM     21  N   UNL     1      -1.970   5.500   0.000  0.00  0.00    +0.000 NA
ATOM     22  C   UNL     1      -1.163   5.329   0.000  0.00  0.00    +0.000 C 
ATOM     23  C   UNL     1      -0.908   4.544   0.000  0.00  0.00    +0.000 C 
BRANCH  21  24
ATOM     24  C   UNL     1      -2.225   6.285   0.000  0.00  0.00    +0.000 C 
BRANCH  24  25
ATOM     25  C   UNL     1      -3.032   6.457   0.000  0.00  0.00    +0.000 C 
ATOM     26  C   UNL     1      -3.849   6.342   0.000  0.00  0.00    +0.000 C 
ATOM     27  C   UNL     1      -4.357   6.992   0.000  0.00  0.00    +0.000 C 
ATOM     28  O   UNL     1      -4.048   7.757   0.000  0.00  0.00    +0.000 OA
ATOM     29  C   UNL     1      -3.231   7.872   0.000  0.00  0.00    +0.000 C 
ATOM     30  C   UNL     1      -2.723   7.221   0.000  0.00  0.00    +0.000 C 
ATOM     31  O   UNL     1      -3.061   5.632   0.000  0.00  0.00    +0.000 OA
ENDBRANCH  24  25
ENDBRANCH  21  24
ENDBRANCH  17  18
ENDBRANCH   1  17
TORSDOF 7
