REMARK  Name = 
REMARK  3 active torsions:
REMARK  status: ('A' for Active; 'I' for Inactive)
REMARK    1  A    between atoms: C_2  and  S_3
REMARK    2  A    between atoms: S_3  and  C_6
REMARK    3  A    between atoms: C_13  and  C_15
REMARK                            x       y       z     vdW  Elec       q    Type
REMARK                         _______ _______ _______ _____ _____    ______ ____
ROOT
ATOM      1  C   UNL     1      -2.131  -3.357   0.000  0.00  0.00    +0.000 A 
ATOM      2  C   UNL     1      -2.543  -2.642   0.000  0.00  0.00    +0.000 A 
ATOM      3  C   UNL     1      -2.131  -1.927   0.000  0.00  0.00    +0.000 A 
ATOM      4  C   UNL     1      -1.306  -1.927   0.000  0.00  0.00    +0.000 A 
ATOM      5  C   UNL     1      -0.893  -2.642   0.000  0.00  0.00    +0.000 A 
ATOM      6  C   UNL     1      -1.306  -3.357   0.000  0.00  0.00    +0.000 A 
ATOM      7  N   UNL     1      -0.086  -2.470   0.000  0.00  0.00    +0.000 NA
ATOM      8  C   UNL     1       0.000  -1.650   0.000  0.00  0.00    +0.000 A 
ATOM      9  O   UNL     1      -0.754  -1.314   0.000  0.00  0.00    +0.000 OA
ENDROOT
BRANCH   8  10
ATOM     10  C   UNL     1       0.715  -1.238   0.000  0.00  0.00    +0.000 A 
ATOM     11  C   UNL     1       0.715  -0.412   0.000  0.00  0.00    +0.000 A 
ATOM     12  C   UNL     1       1.429   0.000   0.000  0.00  0.00    +0.000 A 
ATOM     13  C   UNL     1       2.143  -0.412   0.000  0.00  0.00    +0.000 A 
ATOM     14  C   UNL     1       2.858   0.000   0.000  0.00  0.00    +0.000 A 
ATOM     15  C   UNL     1       3.572  -0.412   0.000  0.00  0.00    +0.000 A 
ATOM     16  C   UNL     1       3.572  -1.238   0.000  0.00  0.00    +0.000 A 
ATOM     17  C   UNL     1       2.858  -1.650   0.000  0.00  0.00    +0.000 A 
ATOM     18  C   UNL     1       2.143  -1.238   0.000  0.00  0.00    +0.000 A 
ATOM     19  C   UNL     1       1.429  -1.650   0.000  0.00  0.00    +0.000 A 
ENDBRANCH   8  10
BRANCH   1  20
ATOM     20  S   UNL     1      -2.543  -4.071   0.000  0.00  0.00    +0.000 S 
ATOM     21  O   UNL     1      -1.829  -4.483   0.000  0.00  0.00    +0.000 OA
ATOM     22  O   UNL     1      -3.258  -3.658   0.000  0.00  0.00    +0.000 OA
BRANCH  20  24
ATOM     23  C   UNL     1      -3.781  -4.785   0.000  0.00  0.00    +0.000 C 
ATOM     24  C   UNL     1      -2.956  -4.785   0.000  0.00  0.00    +0.000 C 
ENDBRANCH  20  24
ENDBRANCH   1  20
TORSDOF 3
