REMARK  Name = 
REMARK  3 active torsions:
REMARK  status: ('A' for Active; 'I' for Inactive)
REMARK    1  A    between atoms: N_1  and  C_2
REMARK    2  A    between atoms: C_2  and  C_4
REMARK    3  A    between atoms: C_2  and  C_7
REMARK                            x       y       z     vdW  Elec       q    Type
REMARK                         _______ _______ _______ _____ _____    ______ ____
ROOT
ATOM      1  C   UNL     1       0.043  -0.033   0.000  0.00  0.00    +0.000 C 
ENDROOT
BRANCH   1   2
ATOM      2  N   UNL     1       0.758   0.362   0.000  0.00  0.00    +0.000 NA
ATOM      3  N   UNL     1       2.189   1.190   0.000  0.00  0.00    +0.000 NA
ATOM      4  C   UNL     1       0.758   1.190   0.000  0.00  0.00    +0.000 C 
ATOM      5  C   UNL     1       1.475  -0.033   0.000  0.00  0.00    +0.000 C 
ATOM      6  C   UNL     1       1.475   1.603   0.000  0.00  0.00    +0.000 C 
ATOM      7  C   UNL     1       2.189   0.362   0.000  0.00  0.00    +0.000 C 
ATOM      8  C   UNL     1       2.909   1.603   0.000  0.00  0.00    +0.000 C 
ENDBRANCH   1   2
BRANCH   1   9
ATOM      9  C   UNL     1      -0.665   0.362   0.000  0.00  0.00    +0.000 A 
ATOM     10  C   UNL     1      -1.385  -0.033   0.000  0.00  0.00    +0.000 A 
ATOM     11  C   UNL     1      -0.665   1.190   0.000  0.00  0.00    +0.000 A 
ATOM     12  C   UNL     1      -2.096   1.190   0.000  0.00  0.00    +0.000 A 
ATOM     13  C   UNL     1      -1.385   1.603   0.000  0.00  0.00    +0.000 A 
ATOM     14  C   UNL     1      -2.096   0.362   0.000  0.00  0.00    +0.000 A 
ATOM     15 CL   UNL     1      -2.811   1.603   0.000  0.00  0.00    +0.000 Cl
ENDBRANCH   1   9
BRANCH   1  16
ATOM     16  C   UNL     1       0.043  -0.859   0.000  0.00  0.00    +0.000 A 
ATOM     17  C   UNL     1      -0.665  -1.280   0.000  0.00  0.00    +0.000 A 
ATOM     18  C   UNL     1       0.758  -1.280   0.000  0.00  0.00    +0.000 A 
ATOM     19  C   UNL     1      -0.665  -2.106   0.000  0.00  0.00    +0.000 A 
ATOM     20  C   UNL     1       0.758  -2.106   0.000  0.00  0.00    +0.000 A 
ATOM     21  C   UNL     1       0.043  -2.518   0.000  0.00  0.00    +0.000 A 
ENDBRANCH   1  16
TORSDOF 3
