REMARK  Name = 
REMARK  5 active torsions:
REMARK  status: ('A' for Active; 'I' for Inactive)
REMARK    1  A    between atoms: C_2  and  C_4
REMARK    2  A    between atoms: N_6  and  C_9
REMARK    3  A    between atoms: N_13  and  C_14
REMARK    4  A    between atoms: C_14  and  C_15
REMARK    5  A    between atoms: C_15  and  C_20
REMARK                            x       y       z     vdW  Elec       q    Type
REMARK                         _______ _______ _______ _____ _____    ______ ____
ROOT
ATOM      1  C   UNL     1      -2.003   1.053   0.000  0.00  0.00    +0.000 A 
ATOM      2  C   UNL     1      -1.206   1.267   0.000  0.00  0.00    +0.000 A 
ATOM      3  N   UNL     1      -0.623   0.683   0.000  0.00  0.00    +0.000 NA
ATOM      4  C   UNL     1      -0.837  -0.113   0.000  0.00  0.00    +0.000 A 
ATOM      5  N   UNL     1      -0.253  -0.697   0.000  0.00  0.00    +0.000 NA
ATOM      6  N   UNL     1      -1.633  -0.327   0.000  0.00  0.00    +0.000 NA
ATOM      7  C   UNL     1      -2.217   0.256   0.000  0.00  0.00    +0.000 A 
ENDROOT
BRANCH   1  10
ATOM      8  C   UNL     1      -3.193   2.826   0.000  0.00  0.00    +0.000 A 
ATOM      9  C   UNL     1      -2.458   2.451   0.000  0.00  0.00    +0.000 A 
ATOM     10  N   UNL     1      -2.587   1.637   0.000  0.00  0.00    +0.000 N 
ATOM     11  C   UNL     1      -3.402   1.508   0.000  0.00  0.00    +0.000 A 
ATOM     12  C   UNL     1      -3.776   2.243   0.000  0.00  0.00    +0.000 A 
BRANCH   8  14
ATOM     13  N   UNL     1      -4.092   3.937   0.000  0.00  0.00    +0.000 NA
ATOM     14  C   UNL     1      -3.322   3.641   0.000  0.00  0.00    +0.000 C 
ATOM     15  O   UNL     1      -2.681   4.160   0.000  0.00  0.00    +0.000 OA
ENDBRANCH   8  14
ENDBRANCH   1  10
BRANCH   5  16
ATOM     16  C   UNL     1       0.544  -0.483   0.000  0.00  0.00    +0.000 C 
BRANCH  16  17
ATOM     17  C   UNL     1       1.127  -1.067   0.000  0.00  0.00    +0.000 C 
ATOM     18  C   UNL     1       1.710  -1.650   0.000  0.00  0.00    +0.000 C 
ATOM     19  C   UNL     1       1.127  -2.233   0.000  0.00  0.00    +0.000 C 
ATOM     20  F   UNL     1       1.127  -3.058   0.000  0.00  0.00    +0.000 F 
ATOM     21  C   UNL     1       0.544  -1.650   0.000  0.00  0.00    +0.000 C 
BRANCH  17  22
ATOM     22  C   UNL     1       1.710  -0.483   0.000  0.00  0.00    +0.000 A 
ATOM     23  N   UNL     1       1.497   0.314   0.000  0.00  0.00    +0.000 NA
ATOM     24  C   UNL     1       2.080   0.897   0.000  0.00  0.00    +0.000 A 
ATOM     25  C   UNL     1       2.877   0.683   0.000  0.00  0.00    +0.000 A 
ATOM     26  C   UNL     1       3.091  -0.113   0.000  0.00  0.00    +0.000 A 
ATOM     27  C   UNL     1       2.507  -0.697   0.000  0.00  0.00    +0.000 A 
ATOM     28  F   UNL     1       2.721  -1.494   0.000  0.00  0.00    +0.000 F 
ENDBRANCH  17  22
ENDBRANCH  16  17
ENDBRANCH   5  16
TORSDOF 5
