REMARK  Name = 
REMARK  4 active torsions:
REMARK  status: ('A' for Active; 'I' for Inactive)
REMARK    1  A    between atoms: O_2  and  C_3
REMARK    2  A    between atoms: C_5  and  C_12
REMARK    3  A    between atoms: C_7  and  O_10
REMARK    4  A    between atoms: C_12  and  C_13
REMARK                            x       y       z     vdW  Elec       q    Type
REMARK                         _______ _______ _______ _____ _____    ______ ____
ROOT
ATOM      1  C   UNL     1       2.143  -1.238   0.000  0.00  0.00    +0.000 A 
ATOM      2  C   UNL     1       2.858  -1.650   0.000  0.00  0.00    +0.000 A 
ATOM      3  C   UNL     1       2.858  -2.475   0.000  0.00  0.00    +0.000 A 
ATOM      4  C   UNL     1       2.143  -2.888   0.000  0.00  0.00    +0.000 A 
ATOM      5  C   UNL     1       1.429  -2.475   0.000  0.00  0.00    +0.000 A 
ATOM      6  C   UNL     1       1.429  -1.650   0.000  0.00  0.00    +0.000 A 
ATOM      7 BR   UNL     1       0.715  -1.238   0.000  0.00  0.00    +0.000 Br
ENDROOT
BRANCH   1   9
ATOM      8  C   UNL     1       1.429   0.000   0.000  0.00  0.00    +0.000 C 
ATOM      9  O   UNL     1       2.143  -0.412   0.000  0.00  0.00    +0.000 OA
ENDBRANCH   1   9
BRANCH   5  10
ATOM     10  O   UNL     1       0.715  -2.888   0.000  0.00  0.00    +0.000 OA
ATOM     11  C   UNL     1       0.000  -2.475   0.000  0.00  0.00    +0.000 C 
ENDBRANCH   5  10
BRANCH   3  12
ATOM     12  C   UNL     1       3.572  -2.888   0.000  0.00  0.00    +0.000 C 
BRANCH  12  13
ATOM     13  C   UNL     1       3.572  -3.712   0.000  0.00  0.00    +0.000 A 
ATOM     14  C   UNL     1       4.287  -4.125   0.000  0.00  0.00    +0.000 A 
ATOM     15  N   UNL     1       4.287  -4.950   0.000  0.00  0.00    +0.000 NA
ATOM     16  C   UNL     1       3.572  -5.362   0.000  0.00  0.00    +0.000 A 
ATOM     17  N   UNL     1       2.858  -4.950   0.000  0.00  0.00    +0.000 NA
ATOM     18  C   UNL     1       2.858  -4.125   0.000  0.00  0.00    +0.000 A 
ATOM     19  N   UNL     1       2.143  -3.712   0.000  0.00  0.00    +0.000 NA
ATOM     20  N   UNL     1       3.572  -6.188   0.000  0.00  0.00    +0.000 NA
ENDBRANCH  12  13
ENDBRANCH   3  12
TORSDOF 4
