REMARK  Name = 
REMARK  5 active torsions:
REMARK  status: ('A' for Active; 'I' for Inactive)
REMARK    1  A    between atoms: C_7  and  O_8
REMARK    2  A    between atoms: O_8  and  C_9
REMARK    3  A    between atoms: C_9  and  O_10
REMARK    4  A    between atoms: O_10  and  P_11
REMARK    5  A    between atoms: C_15  and  C_31
REMARK                            x       y       z     vdW  Elec       q    Type
REMARK                         _______ _______ _______ _____ _____    ______ ____
ROOT
ATOM      1  C   UNL     1       3.330   0.792   0.000  0.00  0.00    +0.000 C 
ATOM      2  C   UNL     1       3.105  -0.002   0.000  0.00  0.00    +0.000 C 
ATOM      3  C   UNL     1       2.305  -0.204   0.000  0.00  0.00    +0.000 C 
ATOM      4  O   UNL     1       1.506  -0.407   0.000  0.00  0.00    +0.000 OA
ATOM      5  C   UNL     1       1.730   0.387   0.000  0.00  0.00    +0.000 C 
ATOM      6  C   UNL     1       0.930   0.184   0.000  0.00  0.00    +0.000 C 
ATOM      7  C   UNL     1       0.355   0.776   0.000  0.00  0.00    +0.000 C 
ATOM      8  O   UNL     1      -0.220   1.367   0.000  0.00  0.00    +0.000 OA
ATOM      9  C   UNL     1       0.580   1.570   0.000  0.00  0.00    +0.000 C 
ATOM     10  C   UNL     1       1.379   1.772   0.000  0.00  0.00    +0.000 C 
ATOM     11  O   UNL     1       2.179   1.975   0.000  0.00  0.00    +0.000 OA
ATOM     12  C   UNL     1       1.955   1.181   0.000  0.00  0.00    +0.000 C 
ATOM     13  C   UNL     1       2.754   1.384   0.000  0.00  0.00    +0.000 C 
ATOM     14  C   UNL     1       2.636   2.200   0.000  0.00  0.00    +0.000 C 
ATOM     15  C   UNL     1       2.979   2.178   0.000  0.00  0.00    +0.000 C 
ATOM     16  C   UNL     1       3.779   2.380   0.000  0.00  0.00    +0.000 C 
ATOM     17  C   UNL     1       4.354   1.789   0.000  0.00  0.00    +0.000 C 
ATOM     18  C   UNL     1       4.129   0.995   0.000  0.00  0.00    +0.000 C 
ATOM     19  C   UNL     1       4.815   0.536   0.000  0.00  0.00    +0.000 C 
ATOM     20  O   UNL     1       5.463   1.047   0.000  0.00  0.00    +0.000 OA
ATOM     21  C   UNL     1       5.178   1.821   0.000  0.00  0.00    +0.000 C 
ATOM     22  O   UNL     1       5.637   2.506   0.000  0.00  0.00    +0.000 OA
ENDROOT
BRANCH   7  23
ATOM     23  C   UNL     1      -0.236   0.200   0.000  0.00  0.00    +0.000 C 
ATOM     24  C   UNL     1      -1.030   0.425   0.000  0.00  0.00    +0.000 C 
ATOM     25  C   UNL     1      -0.034  -0.599   0.000  0.00  0.00    +0.000 C 
ENDBRANCH   7  23
BRANCH   6  26
ATOM     26  O   UNL     1       0.706  -0.609   0.000  0.00  0.00    +0.000 OA
BRANCH  26  27
ATOM     27  C   UNL     1       1.281  -1.201   0.000  0.00  0.00    +0.000 C 
BRANCH  27  28
ATOM     28  O   UNL     1       2.081  -0.998   0.000  0.00  0.00    +0.000 OA
BRANCH  28  29
ATOM     29  P   UNL     1       2.656  -1.589   0.000  0.00  0.00    +0.000 P 
ATOM     30  O   UNL     1       3.232  -2.181   0.000  0.00  0.00    +0.000 OA
ATOM     31  O   UNL     1       3.248  -1.014   0.000  0.00  0.00    +0.000 OA
ATOM     32  O   UNL     1       2.065  -2.165   0.000  0.00  0.00    +0.000 OA
ENDBRANCH  28  29
ENDBRANCH  27  28
ENDBRANCH  26  27
ENDBRANCH   6  26
TORSDOF 5
