REMARK  Name = 
REMARK  3 active torsions:
REMARK  status: ('A' for Active; 'I' for Inactive)
REMARK    1  A    between atoms: S_1  and  N_2
REMARK    2  A    between atoms: S_1  and  C_5
REMARK    3  A    between atoms: C_6  and  C_9
REMARK                            x       y       z     vdW  Elec       q    Type
REMARK                         _______ _______ _______ _____ _____    ______ ____
ROOT
ATOM      1  S   UNL     1      -0.356   0.412   0.000  0.00  0.00    +0.000 S 
ATOM      2  O   UNL     1       0.055   1.129   0.000  0.00  0.00    +0.000 OA
ATOM      3  O   UNL     1      -0.770   1.129   0.000  0.00  0.00    +0.000 OA
ENDROOT
BRANCH   1   4
ATOM      4  C   UNL     1      -1.071   0.001   0.000  0.00  0.00    +0.000 A 
ATOM      5  C   UNL     1      -1.785   0.412   0.000  0.00  0.00    +0.000 A 
ATOM      6  C   UNL     1      -1.071  -0.824   0.000  0.00  0.00    +0.000 A 
ATOM      7  C   UNL     1      -2.502   0.001   0.000  0.00  0.00    +0.000 A 
ATOM      8  C   UNL     1      -1.785  -1.238   0.000  0.00  0.00    +0.000 A 
ATOM      9  C   UNL     1      -2.502  -0.824   0.000  0.00  0.00    +0.000 A 
ATOM     10  N   UNL     1      -3.216  -1.238   0.000  0.00  0.00    +0.000 NA
ENDBRANCH   1   4
BRANCH   1  11
ATOM     11  N   UNL     1       0.358   0.001   0.000  0.00  0.00    +0.000 NA
ATOM     12  C   UNL     1       1.073   0.412   0.000  0.00  0.00    +0.000 C 
ATOM     13  O   UNL     1       1.073   1.238   0.000  0.00  0.00    +0.000 OA
BRANCH  12  14
ATOM     14  C   UNL     1       1.787   0.001   0.000  0.00  0.00    +0.000 C 
ATOM     15  C   UNL     1       2.502   0.412   0.000  0.00  0.00    +0.000 C 
ATOM     16  C   UNL     1       3.216   0.001   0.000  0.00  0.00    +0.000 C 
ATOM     17  C   UNL     1       2.502   1.238   0.000  0.00  0.00    +0.000 C 
ENDBRANCH  12  14
ENDBRANCH   1  11
TORSDOF 3
