REMARK  Name = 
REMARK  3 active torsions:
REMARK  status: ('A' for Active; 'I' for Inactive)
REMARK    1  A    between atoms: C_3  and  C_4
REMARK    2  A    between atoms: C_4  and  C_9
REMARK    3  A    between atoms: C_4  and  C_10
REMARK                            x       y       z     vdW  Elec       q    Type
REMARK                         _______ _______ _______ _____ _____    ______ ____
ROOT
ATOM      1  O   UNL     1      -1.484   0.000   0.000  0.00  0.00    +0.000 OA
ATOM      2  C   UNL     1      -0.659   0.000   0.000  0.00  0.00    +0.000 C 
ENDROOT
BRANCH   2   4
ATOM      3  N   UNL     1      -1.373  -1.238   0.000  0.00  0.00    +0.000 NA
ATOM      4  C   UNL     1      -0.659  -0.825   0.000  0.00  0.00    +0.000 C 
ATOM      5  C   UNL     1       0.056  -1.238   0.000  0.00  0.00    +0.000 C 
ATOM      6  C   UNL     1       0.056  -2.062   0.000  0.00  0.00    +0.000 C 
ATOM      7  C   UNL     1      -0.659  -2.475   0.000  0.00  0.00    +0.000 C 
ATOM      8  C   UNL     1      -1.373  -2.062   0.000  0.00  0.00    +0.000 C 
ATOM      9  H   UNL     1      -1.816  -0.982   0.000  0.00  0.00    +0.000 HD
ENDBRANCH   2   4
BRANCH   2  10
ATOM     10  C   UNL     1      -0.659   0.825   0.000  0.00  0.00    +0.000 A 
ATOM     11  C   UNL     1      -1.373   1.238   0.000  0.00  0.00    +0.000 A 
ATOM     12  C   UNL     1       0.056   1.238   0.000  0.00  0.00    +0.000 A 
ATOM     13  C   UNL     1      -1.373   2.062   0.000  0.00  0.00    +0.000 A 
ATOM     14  C   UNL     1       0.056   2.062   0.000  0.00  0.00    +0.000 A 
ATOM     15  C   UNL     1      -0.659   2.475   0.000  0.00  0.00    +0.000 A 
ENDBRANCH   2  10
BRANCH   2  16
ATOM     16  C   UNL     1       0.166   0.000   0.000  0.00  0.00    +0.000 A 
ATOM     17  C   UNL     1       0.579  -0.714   0.000  0.00  0.00    +0.000 A 
ATOM     18  C   UNL     1       0.579   0.714   0.000  0.00  0.00    +0.000 A 
ATOM     19  C   UNL     1       1.404  -0.714   0.000  0.00  0.00    +0.000 A 
ATOM     20  C   UNL     1       1.404   0.714   0.000  0.00  0.00    +0.000 A 
ATOM     21  C   UNL     1       1.816   0.000   0.000  0.00  0.00    +0.000 A 
ENDBRANCH   2  16
TORSDOF 3
