REMARK  Name = 
REMARK  23 active torsions:
REMARK  status: ('A' for Active; 'I' for Inactive)
REMARK    1  A    between atoms: C_16  and  C_36
REMARK    2  A    between atoms: C_17  and  C_19
REMARK    3  A    between atoms: C_18  and  C_21
REMARK    4  A    between atoms: C_20  and  C_24
REMARK    5  A    between atoms: C_22  and  C_25
REMARK    6  A    between atoms: C_23  and  C_29
REMARK    7  A    between atoms: C_26  and  C_38
REMARK    8  A    between atoms: C_27  and  C_39
REMARK    9  A    between atoms: C_29  and  N_60
REMARK   10  A    between atoms: C_31  and  C_41
REMARK   11  A    between atoms: C_32  and  C_46
REMARK   12  A    between atoms: C_33  and  C_46
REMARK   13  A    between atoms: C_33  and  C_47
REMARK   14  A    between atoms: C_36  and  C_54
REMARK   15  A    between atoms: C_36  and  C_59
REMARK   16  A    between atoms: C_46  and  O_72
REMARK   17  A    between atoms: C_48  and  O_73
REMARK   18  A    between atoms: C_49  and  O_79
REMARK   19  A    between atoms: C_50  and  O_74
REMARK   20  A    between atoms: C_51  and  O_75
REMARK   21  A    between atoms: C_53  and  O_80
REMARK   22  A    between atoms: C_56  and  O_80
REMARK   23  A    between atoms: C_57  and  O_79
REMARK                            x       y       z     vdW  Elec       q    Type
REMARK                         _______ _______ _______ _____ _____    ______ ____
ROOT
ATOM      1  C   UNL     1      -0.287   1.691   0.000  0.00  0.00    +0.000 C 
ENDROOT
BRANCH   1   8
ATOM      2  C   UNL     1       0.568  -1.290   0.000  0.00  0.00    +0.000 C 
ATOM      3  C   UNL     1      -0.490  -1.216   0.000  0.00  0.00    +0.000 C 
ATOM      4  C   UNL     1      -0.601  -0.161   0.000  0.00  0.00    +0.000 C 
ATOM      5  C   UNL     1       0.882   0.563   0.000  0.00  0.00    +0.000 C 
ATOM      6  C   UNL     1       0.825  -0.260   0.000  0.00  0.00    +0.000 C 
ATOM      7  C   UNL     1       0.083  -0.622   0.000  0.00  0.00    +0.000 C 
ATOM      8  C   UNL     1       0.198   1.024   0.000  0.00  0.00    +0.000 C 
ATOM      9  O   UNL     1       1.623   0.924   0.000  0.00  0.00    +0.000 OA
ATOM     10  O   UNL     1       0.771   1.617   0.000  0.00  0.00    +0.000 OA
ATOM     11  O   UNL     1      -0.543   0.662   0.000  0.00  0.00    +0.000 OA
BRANCH   4  13
ATOM     12  C   UNL     1      -2.026  -0.061   0.000  0.00  0.00    +0.000 C 
ATOM     13  C   UNL     1      -1.343  -0.522   0.000  0.00  0.00    +0.000 C 
BRANCH  12  16
ATOM     14  C   UNL     1      -4.193  -0.323   0.000  0.00  0.00    +0.000 C 
ATOM     15  C   UNL     1      -3.452   0.039   0.000  0.00  0.00    +0.000 C 
ATOM     16  C   UNL     1      -2.768  -0.423   0.000  0.00  0.00    +0.000 C 
ENDBRANCH  12  16
ENDBRANCH   4  13
BRANCH   6  17
ATOM     17  O   UNL     1       1.508  -0.722   0.000  0.00  0.00    +0.000 OA
BRANCH  17  23
ATOM     18  C   UNL     1       3.107   1.647   0.000  0.00  0.00    +0.000 C 
ATOM     19  C   UNL     1       3.049   0.825   0.000  0.00  0.00    +0.000 C 
ATOM     20  C   UNL     1       2.934  -0.821   0.000  0.00  0.00    +0.000 C 
ATOM     21  C   UNL     1       3.733   0.363   0.000  0.00  0.00    +0.000 C 
ATOM     22  C   UNL     1       3.675  -0.460   0.000  0.00  0.00    +0.000 C 
ATOM     23  C   UNL     1       2.250  -0.360   0.000  0.00  0.00    +0.000 C 
ATOM     24  O   UNL     1       2.876  -1.644   0.000  0.00  0.00    +0.000 OA
ATOM     25  O   UNL     1       2.308   0.463   0.000  0.00  0.00    +0.000 OA
BRANCH  22  27
ATOM     26  C   UNL     1       4.302  -1.744   0.000  0.00  0.00    +0.000 C 
ATOM     27  O   UNL     1       4.359  -0.921   0.000  0.00  0.00    +0.000 OA
ENDBRANCH  22  27
BRANCH  21  28
ATOM     28  O   UNL     1       4.474   0.725   0.000  0.00  0.00    +0.000 OA
BRANCH  28  34
ATOM     29  C   UNL     1       5.727  -1.844   0.000  0.00  0.00    +0.000 C 
ATOM     30  C   UNL     1       5.785  -1.021   0.000  0.00  0.00    +0.000 C 
ATOM     31  C   UNL     1       6.584   0.164   0.000  0.00  0.00    +0.000 C 
ATOM     32  C   UNL     1       6.526  -0.659   0.000  0.00  0.00    +0.000 C 
ATOM     33  C   UNL     1       5.900   0.625   0.000  0.00  0.00    +0.000 C 
ATOM     34  C   UNL     1       5.158   0.264   0.000  0.00  0.00    +0.000 C 
ATOM     35  O   UNL     1       7.325   0.525   0.000  0.00  0.00    +0.000 OA
ATOM     36  O   UNL     1       5.101  -0.559   0.000  0.00  0.00    +0.000 OA
BRANCH  32  38
ATOM     37  C   UNL     1       7.952  -0.759   0.000  0.00  0.00    +0.000 C 
ATOM     38  O   UNL     1       7.210  -1.121   0.000  0.00  0.00    +0.000 OA
ENDBRANCH  32  38
BRANCH  33  40
ATOM     39  C   UNL     1       6.699   1.810   0.000  0.00  0.00    +0.000 C 
ATOM     40  O   UNL     1       5.957   1.448   0.000  0.00  0.00    +0.000 OA
ENDBRANCH  33  40
ENDBRANCH  28  34
ENDBRANCH  21  28
ENDBRANCH  17  23
ENDBRANCH   6  17
ENDBRANCH   1   8
BRANCH   1  41
ATOM     41  C   UNL     1       0.049   2.445   0.000  0.00  0.00    +0.000 C 
ATOM     42  N   UNL     1      -0.436   3.112   0.000  0.00  0.00    +0.000 NA
ATOM     43  O   UNL     1       0.869   2.531   0.000  0.00  0.00    +0.000 OA
BRANCH  42  44
ATOM     44  C   UNL     1      -0.101   3.866   0.000  0.00  0.00    +0.000 C 
BRANCH  44  46
ATOM     45  C   UNL     1      -0.250   5.287   0.000  0.00  0.00    +0.000 C 
ATOM     46  C   UNL     1      -0.586   4.534   0.000  0.00  0.00    +0.000 C 
BRANCH  45  48
ATOM     47  C   UNL     1       0.421   6.795   0.000  0.00  0.00    +0.000 C 
ATOM     48  C   UNL     1      -0.735   5.955   0.000  0.00  0.00    +0.000 C 
ATOM     49  C   UNL     1      -0.399   6.708   0.000  0.00  0.00    +0.000 C 
BRANCH  49  50
ATOM     50  C   UNL     1      -0.884   7.376   0.000  0.00  0.00    +0.000 C 
BRANCH  50  52
ATOM     51  C   UNL     1       0.272   8.216   0.000  0.00  0.00    +0.000 C 
ATOM     52  O   UNL     1      -0.549   8.130   0.000  0.00  0.00    +0.000 OA
ENDBRANCH  50  52
BRANCH  50  54
ATOM     53  C   UNL     1      -2.040   6.536   0.000  0.00  0.00    +0.000 C 
ATOM     54  C   UNL     1      -1.705   7.290   0.000  0.00  0.00    +0.000 C 
BRANCH  54  58
ATOM     55  C   UNL     1      -3.270   8.742   0.000  0.00  0.00    +0.000 C 
ATOM     56  C   UNL     1      -2.602   9.226   0.000  0.00  0.00    +0.000 C 
ATOM     57  C   UNL     1      -1.935   8.742   0.000  0.00  0.00    +0.000 C 
ATOM     58  C   UNL     1      -2.190   7.957   0.000  0.00  0.00    +0.000 C 
ATOM     59  O   UNL     1      -2.602  10.052   0.000  0.00  0.00    +0.000 OA
ATOM     60  O   UNL     1      -1.150   8.996   0.000  0.00  0.00    +0.000 OA
ATOM     61  O   UNL     1      -3.015   7.957   0.000  0.00  0.00    +0.000 OA
BRANCH  55  63
ATOM     62  C   UNL     1      -4.667   8.444   0.000  0.00  0.00    +0.000 C 
ATOM     63  C   UNL     1      -4.054   8.996   0.000  0.00  0.00    +0.000 C 
BRANCH  62  64
ATOM     64  C   UNL     1      -5.452   8.700   0.000  0.00  0.00    +0.000 C 
ATOM     65  C   UNL     1      -6.065   8.147   0.000  0.00  0.00    +0.000 C 
BRANCH  65  67
ATOM     66  C   UNL     1      -6.408   9.761   0.000  0.00  0.00    +0.000 C 
ATOM     67  C   UNL     1      -6.850   8.402   0.000  0.00  0.00    +0.000 C 
ATOM     68  C   UNL     1      -7.021   9.209   0.000  0.00  0.00    +0.000 C 
BRANCH  68  74
ATOM     69  C   UNL     1      -8.689   6.746   0.000  0.00  0.00    +0.000 C 
ATOM     70  C   UNL     1      -9.817   8.615   0.000  0.00  0.00    +0.000 C 
ATOM     71  C   UNL     1      -9.645   7.808   0.000  0.00  0.00    +0.000 C 
ATOM     72  C   UNL     1      -9.204   9.167   0.000  0.00  0.00    +0.000 C 
ATOM     73  C   UNL     1      -8.419   8.912   0.000  0.00  0.00    +0.000 C 
ATOM     74  C   UNL     1      -7.806   9.464   0.000  0.00  0.00    +0.000 C 
ATOM     75  C   UNL     1      -8.247   8.105   0.000  0.00  0.00    +0.000 C 
ATOM     76  N   UNL     1      -8.861   7.553   0.000  0.00  0.00    +0.000 N 
ATOM     77  O   UNL     1      -9.375   9.974   0.000  0.00  0.00    +0.000 OA
ATOM     78  O   UNL     1      -7.977  10.271   0.000  0.00  0.00    +0.000 OA
ATOM     79  O   UNL     1      -7.463   7.850   0.000  0.00  0.00    +0.000 OA
ENDBRANCH  68  74
ENDBRANCH  65  67
ENDBRANCH  62  64
ENDBRANCH  55  63
ENDBRANCH  54  58
ENDBRANCH  50  54
ENDBRANCH  49  50
ENDBRANCH  45  48
ENDBRANCH  44  46
ENDBRANCH  42  44
ENDBRANCH   1  41
BRANCH   1  81
ATOM     80  C   UNL     1      -1.592   2.272   0.000  0.00  0.00    +0.000 C 
ATOM     81  C   UNL     1      -1.107   1.605   0.000  0.00  0.00    +0.000 C 
ENDBRANCH   1  81
TORSDOF 23
