REMARK  Name = 
REMARK  6 active torsions:
REMARK  status: ('A' for Active; 'I' for Inactive)
REMARK    1  A    between atoms: C_2  and  C_3
REMARK    2  A    between atoms: C_2  and  O_7
REMARK    3  A    between atoms: O_7  and  C_8
REMARK    4  A    between atoms: C_11  and  C_18
REMARK    5  A    between atoms: C_13  and  C_14
REMARK    6  A    between atoms: C_20  and  C_23
REMARK                            x       y       z     vdW  Elec       q    Type
REMARK                         _______ _______ _______ _____ _____    ______ ____
ROOT
ATOM      1  C   UNL     1       7.834   2.367   0.000  0.00  0.00    +0.000 A 
ATOM      2  C   UNL     1       7.349   1.699   0.000  0.00  0.00    +0.000 A 
ATOM      3  C   UNL     1       6.529   1.786   0.000  0.00  0.00    +0.000 A 
ATOM      4  C   UNL     1       6.193   2.539   0.000  0.00  0.00    +0.000 A 
ATOM      5  C   UNL     1       6.678   3.207   0.000  0.00  0.00    +0.000 A 
ATOM      6  C   UNL     1       7.498   3.120   0.000  0.00  0.00    +0.000 A 
ENDROOT
BRANCH   4   7
ATOM      7  C   UNL     1       5.372   2.626   0.000  0.00  0.00    +0.000 A 
ATOM      8  N   UNL     1       4.820   2.012   0.000  0.00  0.00    +0.000 NA
ATOM      9  C   UNL     1       4.067   2.348   0.000  0.00  0.00    +0.000 A 
ATOM     10  N   UNL     1       4.153   3.168   0.000  0.00  0.00    +0.000 NA
ATOM     11  O   UNL     1       4.960   3.340   0.000  0.00  0.00    +0.000 OA
BRANCH   9  12
ATOM     12  C   UNL     1       3.352   1.935   0.000  0.00  0.00    +0.000 A 
ATOM     13  C   UNL     1       3.352   1.110   0.000  0.00  0.00    +0.000 A 
ATOM     14  C   UNL     1       2.638   0.698   0.000  0.00  0.00    +0.000 A 
ATOM     15  C   UNL     1       1.923   1.110   0.000  0.00  0.00    +0.000 A 
ATOM     16  C   UNL     1       1.923   1.935   0.000  0.00  0.00    +0.000 A 
ATOM     17  C   UNL     1       2.638   2.348   0.000  0.00  0.00    +0.000 A 
ATOM     18  N   UNL     1       1.139   2.190   0.000  0.00  0.00    +0.000 NA
ATOM     19  C   UNL     1       0.654   1.523   0.000  0.00  0.00    +0.000 A 
ATOM     20  N   UNL     1       1.139   0.856   0.000  0.00  0.00    +0.000 NA
ENDBRANCH   9  12
ENDBRANCH   4   7
BRANCH   6  21
ATOM     21  C   UNL     1       7.983   3.788   0.000  0.00  0.00    +0.000 C 
ATOM     22  F   UNL     1       8.468   4.455   0.000  0.00  0.00    +0.000 F 
ATOM     23  F   UNL     1       8.651   3.303   0.000  0.00  0.00    +0.000 F 
ATOM     24  F   UNL     1       7.316   4.273   0.000  0.00  0.00    +0.000 F 
ENDBRANCH   6  21
BRANCH   1  25
ATOM     25  O   UNL     1       8.654   2.280   0.000  0.00  0.00    +0.000 OA
BRANCH  25  27
ATOM     26  C   UNL     1       8.505   0.859   0.000  0.00  0.00    +0.000 C 
ATOM     27  C   UNL     1       8.990   1.527   0.000  0.00  0.00    +0.000 C 
BRANCH  27  28
ATOM     28  C   UNL     1       9.810   1.441   0.000  0.00  0.00    +0.000 C 
ATOM     29  F   UNL     1      10.631   1.354   0.000  0.00  0.00    +0.000 F 
ATOM     30  F   UNL     1       9.897   2.261   0.000  0.00  0.00    +0.000 F 
ATOM     31  F   UNL     1       9.724   0.620   0.000  0.00  0.00    +0.000 F 
ENDBRANCH  27  28
ENDBRANCH  25  27
ENDBRANCH   1  25
TORSDOF 6
