REMARK  Name = 
REMARK  7 active torsions:
REMARK  status: ('A' for Active; 'I' for Inactive)
REMARK    1  A    between atoms: N_2  and  C_6
REMARK    2  A    between atoms: C_4  and  C_10
REMARK    3  A    between atoms: C_5  and  O_11
REMARK    4  A    between atoms: C_6  and  C_12
REMARK    5  A    between atoms: O_11  and  C_16
REMARK    6  A    between atoms: C_22  and  C_23
REMARK    7  A    between atoms: C_24  and  C_26
REMARK                            x       y       z     vdW  Elec       q    Type
REMARK                         _______ _______ _______ _____ _____    ______ ____
ROOT
ATOM      1  C   UNL     1       0.574   1.576   0.000  0.00  0.00    +0.000 A 
ATOM      2  C   UNL     1      -0.151   1.978   0.000  0.00  0.00    +0.000 A 
ATOM      3  C   UNL     1       0.591   0.765   0.000  0.00  0.00    +0.000 A 
ATOM      4  C   UNL     1      -0.859   1.552   0.000  0.00  0.00    +0.000 A 
ATOM      5  C   UNL     1      -0.124   0.325   0.000  0.00  0.00    +0.000 A 
ATOM      6  C   UNL     1      -0.839   0.727   0.000  0.00  0.00    +0.000 A 
ENDROOT
BRANCH   6   7
ATOM      7  C   UNL     1      -1.550   0.304   0.000  0.00  0.00    +0.000 A 
ATOM      8  C   UNL     1      -2.276   0.703   0.000  0.00  0.00    +0.000 A 
ATOM      9  C   UNL     1      -1.536  -0.521   0.000  0.00  0.00    +0.000 A 
ATOM     10  C   UNL     1      -2.980   0.280   0.000  0.00  0.00    +0.000 A 
ATOM     11  C   UNL     1      -2.245  -0.947   0.000  0.00  0.00    +0.000 A 
ATOM     12  C   UNL     1      -2.963  -0.548   0.000  0.00  0.00    +0.000 A 
BRANCH   8  13
ATOM     13  C   UNL     1      -2.289   1.531   0.000  0.00  0.00    +0.000 A 
ATOM     14  N   UNL     1      -2.956   2.006   0.000  0.00  0.00    +0.000 NA
ATOM     15  N   UNL     1      -1.623   2.030   0.000  0.00  0.00    +0.000 NA
ATOM     16  N   UNL     1      -2.716   2.796   0.000  0.00  0.00    +0.000 NA
ATOM     17  N   UNL     1      -1.890   2.810   0.000  0.00  0.00    +0.000 NA
ENDBRANCH   8  13
ENDBRANCH   6   7
BRANCH   1  18
ATOM     18  C   UNL     1       1.282   2.002   0.000  0.00  0.00    +0.000 C 
BRANCH  18  20
ATOM     19  C   UNL     1       2.265   0.816   0.000  0.00  0.00    +0.000 A 
ATOM     20  N   UNL     1       2.004   1.597   0.000  0.00  0.00    +0.000 N 
ATOM     21  C   UNL     1       3.087   0.813   0.000  0.00  0.00    +0.000 A 
ATOM     22  C   UNL     1       1.853   0.105   0.000  0.00  0.00    +0.000 A 
ATOM     23  C   UNL     1       2.674   2.088   0.000  0.00  0.00    +0.000 A 
ATOM     24  N   UNL     1       3.345   1.597   0.000  0.00  0.00    +0.000 NA
ATOM     25  C   UNL     1       3.496   0.101   0.000  0.00  0.00    +0.000 A 
ATOM     26  C   UNL     1       2.262  -0.607   0.000  0.00  0.00    +0.000 A 
ATOM     27  C   UNL     1       3.083  -0.610   0.000  0.00  0.00    +0.000 A 
BRANCH  22  28
ATOM     28  C   UNL     1       1.433  -0.603   0.000  0.00  0.00    +0.000 C 
ATOM     29  O   UNL     1       0.608  -0.596   0.000  0.00  0.00    +0.000 OA
ATOM     30  O   UNL     1       1.836  -1.318   0.000  0.00  0.00    +0.000 OA
ENDBRANCH  22  28
BRANCH  23  31
ATOM     31  O   UNL     1       2.674   2.913   0.000  0.00  0.00    +0.000 OA
BRANCH  31  32
ATOM     32  C   UNL     1       3.389   3.326   0.000  0.00  0.00    +0.000 C 
ATOM     33  C   UNL     1       3.389   4.151   0.000  0.00  0.00    +0.000 C 
ENDBRANCH  31  32
ENDBRANCH  23  31
ENDBRANCH  18  20
ENDBRANCH   1  18
TORSDOF 7
