REMARK  Name = 
REMARK  11 active torsions:
REMARK  status: ('A' for Active; 'I' for Inactive)
REMARK    1  A    between atoms: N_5  and  C_40
REMARK    2  A    between atoms: C_6  and  O_18
REMARK    3  A    between atoms: C_12  and  O_18
REMARK    4  A    between atoms: C_17  and  C_29
REMARK    5  A    between atoms: C_19  and  N_31
REMARK    6  A    between atoms: C_20  and  O_39
REMARK    7  A    between atoms: C_21  and  C_47
REMARK    8  A    between atoms: N_24  and  C_46
REMARK    9  A    between atoms: C_40  and  C_55
REMARK   10  A    between atoms: C_46  and  C_56
REMARK   11  A    between atoms: C_55  and  C_56
REMARK                            x       y       z     vdW  Elec       q    Type
REMARK                         _______ _______ _______ _____ _____    ______ ____
ROOT
ATOM      1  C   UNL     1      -0.173   0.367   0.000  0.00  0.00    +0.000 C 
ATOM      2  C   UNL     1       0.237   1.079   0.000  0.00  0.00    +0.000 C 
ATOM      3  C   UNL     1      -1.072   1.353   0.000  0.00  0.00    +0.000 C 
ATOM      4  O   UNL     1      -0.976   0.541   0.000  0.00  0.00    +0.000 OA
ATOM      5  N   UNL     1      -0.319   1.690   0.000  0.00  0.00    +0.000 N 
ATOM      6  C   UNL     1       0.844   1.293   0.000  0.00  0.00    +0.000 C 
ATOM      7  C   UNL     1       0.529  -1.700   0.000  0.00  0.00    +0.000 C 
ATOM      8  C   UNL     1       1.953  -1.690   0.000  0.00  0.00    +0.000 C 
ATOM      9  C   UNL     1       1.241  -2.115   0.000  0.00  0.00    +0.000 C 
ATOM     10  C   UNL     1       2.664  -0.454   0.000  0.00  0.00    +0.000 C 
ATOM     11  C   UNL     1       1.953  -0.869   0.000  0.00  0.00    +0.000 C 
ATOM     12  C   UNL     1       1.264   2.005   0.000  0.00  0.00    +0.000 C 
ATOM     13  O   UNL     1       0.529  -0.869   0.000  0.00  0.00    +0.000 OA
ATOM     14  C   UNL     1       2.660   0.376   0.000  0.00  0.00    +0.000 C 
ATOM     15  C   UNL     1      -0.182  -0.459   0.000  0.00  0.00    +0.000 C 
ATOM     16  C   UNL     1       1.939   1.608   0.000  0.00  0.00    +0.000 C 
ATOM     17  C   UNL     1       1.939   0.787   0.000  0.00  0.00    +0.000 C 
ATOM     18  O   UNL     1      -1.788   1.759   0.000  0.00  0.00    +0.000 OA
ATOM     19  O   UNL     1      -0.187  -2.110   0.000  0.00  0.00    +0.000 OA
ATOM     20  O   UNL     1       2.674  -2.101   0.000  0.00  0.00    +0.000 OA
ATOM     21  O   UNL     1       1.268   2.831   0.000  0.00  0.00    +0.000 OA
ATOM     22  C   UNL     1      -0.762  -0.212   0.000  0.00  0.00    +0.000 C 
ATOM     23  C   UNL     1       1.255   0.582   0.000  0.00  0.00    +0.000 C 
ATOM     24  C   UNL     1       1.241  -2.936   0.000  0.00  0.00    +0.000 C 
ATOM     25  C   UNL     1       1.236  -0.459   0.000  0.00  0.00    +0.000 C 
ATOM     26  C   UNL     1       3.486   0.376   0.000  0.00  0.00    +0.000 C 
ATOM     27  C   UNL     1       2.651   2.023   0.000  0.00  0.00    +0.000 C 
ENDROOT
BRANCH  14  28
ATOM     28  O   UNL     1       3.071   1.088   0.000  0.00  0.00    +0.000 OA
ATOM     29  C   UNL     1       3.896   1.088   0.000  0.00  0.00    +0.000 C 
ENDBRANCH  14  28
BRANCH  15  30
ATOM     30  C   UNL     1      -0.894  -0.869   0.000  0.00  0.00    +0.000 C 
ATOM     31  C   UNL     1      -1.611  -0.459   0.000  0.00  0.00    +0.000 C 
ENDBRANCH  15  30
BRANCH  10  32
ATOM     32  O   UNL     1       3.385  -0.856   0.000  0.00  0.00    +0.000 OA
BRANCH  32  33
ATOM     33  C   UNL     1       4.088  -0.445   0.000  0.00  0.00    +0.000 C 
ATOM     34  C   UNL     1       4.800  -0.851   0.000  0.00  0.00    +0.000 C 
ATOM     35  C   UNL     1       5.511  -0.431   0.000  0.00  0.00    +0.000 C 
ATOM     36  O   UNL     1       4.074   0.376   0.000  0.00  0.00    +0.000 OA
ATOM     37  C   UNL     1       5.507   0.390   0.000  0.00  0.00    +0.000 C 
ATOM     38  C   UNL     1       4.786   0.791   0.000  0.00  0.00    +0.000 C 
ATOM     39  O   UNL     1       4.809  -1.677   0.000  0.00  0.00    +0.000 OA
ATOM     40  C   UNL     1       4.786   1.622   0.000  0.00  0.00    +0.000 C 
BRANCH  35  41
ATOM     41  N   UNL     1       6.223  -0.842   0.000  0.00  0.00    +0.000 NA
ATOM     42  C   UNL     1       6.232  -1.672   0.000  0.00  0.00    +0.000 C 
ATOM     43  C   UNL     1       6.944  -0.426   0.000  0.00  0.00    +0.000 C 
ENDBRANCH  35  41
ENDBRANCH  32  33
ENDBRANCH  10  32
BRANCH   5  44
ATOM     44  C   UNL     1      -0.324   2.516   0.000  0.00  0.00    +0.000 C 
BRANCH  44  45
ATOM     45  C   UNL     1      -1.045   2.927   0.000  0.00  0.00    +0.000 C 
BRANCH  45  46
ATOM     46  C   UNL     1      -1.757   2.525   0.000  0.00  0.00    +0.000 C 
BRANCH  46  47
ATOM     47  C   UNL     1      -2.473   2.936   0.000  0.00  0.00    +0.000 C 
BRANCH  47  51
ATOM     48  N   UNL     1      -3.988   1.449   0.000  0.00  0.00    +0.000 NA
ATOM     49  C   UNL     1      -4.471   2.128   0.000  0.00  0.00    +0.000 A 
ATOM     50  C   UNL     1      -3.988   2.790   0.000  0.00  0.00    +0.000 A 
ATOM     51  N   UNL     1      -3.194   2.530   0.000  0.00  0.00    +0.000 N 
ATOM     52  C   UNL     1      -3.194   1.704   0.000  0.00  0.00    +0.000 A 
BRANCH  49  53
ATOM     53  C   UNL     1      -5.302   2.128   0.000  0.00  0.00    +0.000 A 
ATOM     54  N   UNL     1      -6.534   1.417   0.000  0.00  0.00    +0.000 NA
ATOM     55  C   UNL     1      -5.712   1.417   0.000  0.00  0.00    +0.000 A 
ATOM     56  C   UNL     1      -5.703   2.840   0.000  0.00  0.00    +0.000 A 
ATOM     57  C   UNL     1      -6.944   2.133   0.000  0.00  0.00    +0.000 A 
ATOM     58  C   UNL     1      -6.524   2.845   0.000  0.00  0.00    +0.000 A 
ENDBRANCH  49  53
ENDBRANCH  47  51
ENDBRANCH  46  47
ENDBRANCH  45  46
ENDBRANCH  44  45
ENDBRANCH   5  44
TORSDOF 11
