REMARK  Name = 
REMARK  5 active torsions:
REMARK  status: ('A' for Active; 'I' for Inactive)
REMARK    1  A    between atoms: C_10  and  S_11
REMARK    2  A    between atoms: S_11  and  N_14
REMARK    3  A    between atoms: N_14  and  C_15
REMARK    4  A    between atoms: N_20  and  C_21
REMARK    5  A    between atoms: C_21  and  C_23
REMARK                            x       y       z     vdW  Elec       q    Type
REMARK                         _______ _______ _______ _____ _____    ______ ____
ROOT
ATOM      1  C   UNL     1      -0.691  -1.001   0.000  0.00  0.00    +0.000 C 
ATOM      2  C   UNL     1      -1.512  -0.914   0.000  0.00  0.00    +0.000 C 
ATOM      3  O   UNL     1      -2.064  -1.527   0.000  0.00  0.00    +0.000 OA
ATOM      4  C   UNL     1      -0.356  -0.247   0.000  0.00  0.00    +0.000 C 
ATOM      5  C   UNL     1      -0.969   0.305   0.000  0.00  0.00    +0.000 C 
ATOM      6  N   UNL     1      -1.683  -0.107   0.000  0.00  0.00    +0.000 N 
ENDROOT
BRANCH   6   7
ATOM      7  C   UNL     1      -2.437   0.228   0.000  0.00  0.00    +0.000 C 
ATOM      8  C   UNL     1      -3.104  -0.257   0.000  0.00  0.00    +0.000 C 
BRANCH   7   9
ATOM      9  C   UNL     1      -2.523   1.049   0.000  0.00  0.00    +0.000 C 
ATOM     10  O   UNL     1      -1.856   1.534   0.000  0.00  0.00    +0.000 OA
ATOM     11  N   UNL     1      -3.277   1.384   0.000  0.00  0.00    +0.000 N 
ATOM     12  C   UNL     1      -3.363   2.205   0.000  0.00  0.00    +0.000 C 
ATOM     13  C   UNL     1      -4.117   2.540   0.000  0.00  0.00    +0.000 C 
ATOM     14  O   UNL     1      -4.784   2.055   0.000  0.00  0.00    +0.000 OA
ATOM     15  C   UNL     1      -4.698   1.235   0.000  0.00  0.00    +0.000 C 
ATOM     16  C   UNL     1      -3.944   0.899   0.000  0.00  0.00    +0.000 C 
ENDBRANCH   7   9
ENDBRANCH   6   7
BRANCH   1  17
ATOM     17  N   UNL     1      -0.279  -1.715   0.000  0.00  0.00    +0.000 NA
BRANCH  17  18
ATOM     18  S   UNL     1       0.546  -1.715   0.000  0.00  0.00    +0.000 S 
ATOM     19  O   UNL     1       0.546  -0.890   0.000  0.00  0.00    +0.000 OA
ATOM     20  O   UNL     1       0.546  -2.540   0.000  0.00  0.00    +0.000 OA
BRANCH  18  30
ATOM     21 CL   UNL     1       4.784  -0.890   0.000  0.00  0.00    +0.000 Cl
ATOM     22  C   UNL     1       4.070  -1.303   0.000  0.00  0.00    +0.000 A 
ATOM     23  C   UNL     1       4.070  -2.128   0.000  0.00  0.00    +0.000 A 
ATOM     24  C   UNL     1       3.355  -2.540   0.000  0.00  0.00    +0.000 A 
ATOM     25  C   UNL     1       2.641  -2.128   0.000  0.00  0.00    +0.000 A 
ATOM     26  N   UNL     1       1.856  -2.383   0.000  0.00  0.00    +0.000 NA
ATOM     27  C   UNL     1       2.641  -1.303   0.000  0.00  0.00    +0.000 A 
ATOM     28  C   UNL     1       3.355  -0.890   0.000  0.00  0.00    +0.000 A 
ATOM     29  C   UNL     1       1.856  -1.048   0.000  0.00  0.00    +0.000 A 
ATOM     30  C   UNL     1       1.371  -1.715   0.000  0.00  0.00    +0.000 A 
ENDBRANCH  18  30
ENDBRANCH  17  18
ENDBRANCH   1  17
TORSDOF 5
