REMARK  Name = 
REMARK  4 active torsions:
REMARK  status: ('A' for Active; 'I' for Inactive)
REMARK    1  A    between atoms: C_1  and  C_2
REMARK    2  A    between atoms: C_3  and  C_8
REMARK    3  A    between atoms: C_10  and  O_16
REMARK    4  A    between atoms: C_18  and  C_22
REMARK                            x       y       z     vdW  Elec       q    Type
REMARK                         _______ _______ _______ _____ _____    ______ ____
ROOT
ATOM      1  C   UNL     1       1.791   0.614   0.000  0.00  0.00    +0.000 C 
ATOM      2  C   UNL     1       1.795   1.442   0.000  0.00  0.00    +0.000 C 
ATOM      3  O   UNL     1       1.073   0.201   0.000  0.00  0.00    +0.000 OA
ATOM      4  O   UNL     1       1.079   1.855   0.000  0.00  0.00    +0.000 OA
ATOM      5  C   UNL     1       0.358   0.621   0.000  0.00  0.00    +0.000 A 
ATOM      6  C   UNL     1       0.361   1.446   0.000  0.00  0.00    +0.000 A 
ATOM      7  C   UNL     1      -0.354   0.204   0.000  0.00  0.00    +0.000 A 
ATOM      8  C   UNL     1      -0.354   1.858   0.000  0.00  0.00    +0.000 A 
ATOM      9  C   UNL     1      -1.066   0.621   0.000  0.00  0.00    +0.000 A 
ATOM     10  C   UNL     1      -1.066   1.446   0.000  0.00  0.00    +0.000 A 
ENDROOT
BRANCH   9  11
ATOM     11  C   UNL     1      -1.784   0.204   0.000  0.00  0.00    +0.000 C 
ATOM     12  O   UNL     1      -2.499   0.621   0.000  0.00  0.00    +0.000 OA
ATOM     13  C   UNL     1      -1.781  -0.621   0.000  0.00  0.00    +0.000 C 
ATOM     14  C   UNL     1      -3.214   0.201   0.000  0.00  0.00    +0.000 A 
ATOM     15  C   UNL     1      -2.496  -1.033   0.000  0.00  0.00    +0.000 C 
ATOM     16  O   UNL     1      -1.066  -1.030   0.000  0.00  0.00    +0.000 OA
ATOM     17  C   UNL     1      -3.214  -0.621   0.000  0.00  0.00    +0.000 A 
ATOM     18  C   UNL     1      -3.929   0.617   0.000  0.00  0.00    +0.000 A 
ATOM     19  O   UNL     1      -2.496  -1.858   0.000  0.00  0.00    +0.000 OA
ATOM     20  C   UNL     1      -3.926  -1.030   0.000  0.00  0.00    +0.000 A 
ATOM     21  C   UNL     1      -4.641   0.201   0.000  0.00  0.00    +0.000 A 
ATOM     22  C   UNL     1      -4.641  -0.621   0.000  0.00  0.00    +0.000 A 
ATOM     23  O   UNL     1      -3.926  -1.858   0.000  0.00  0.00    +0.000 OA
ATOM     24  O   UNL     1      -5.359   0.617   0.000  0.00  0.00    +0.000 OA
ENDBRANCH   9  11
BRANCH   1  25
ATOM     25  C   UNL     1       2.506   0.194   0.000  0.00  0.00    +0.000 A 
ATOM     26  C   UNL     1       3.218   0.610   0.000  0.00  0.00    +0.000 A 
ATOM     27  C   UNL     1       2.496  -0.631   0.000  0.00  0.00    +0.000 A 
ATOM     28  C   UNL     1       3.933   0.191   0.000  0.00  0.00    +0.000 A 
ATOM     29  C   UNL     1       3.211  -1.043   0.000  0.00  0.00    +0.000 A 
ATOM     30  C   UNL     1       3.929  -0.638   0.000  0.00  0.00    +0.000 A 
ATOM     31  O   UNL     1       4.644  -1.050   0.000  0.00  0.00    +0.000 OA
BRANCH  28  32
ATOM     32  O   UNL     1       4.651   0.603   0.000  0.00  0.00    +0.000 OA
ATOM     33  C   UNL     1       5.359   0.187   0.000  0.00  0.00    +0.000 C 
ENDBRANCH  28  32
ENDBRANCH   1  25
BRANCH   2  34
ATOM     34  C   UNL     1       2.506   1.858   0.000  0.00  0.00    +0.000 C 
ATOM     35  O   UNL     1       3.221   1.446   0.000  0.00  0.00    +0.000 OA
ENDBRANCH   2  34
TORSDOF 4
