REMARK  Name = 
REMARK  9 active torsions:
REMARK  status: ('A' for Active; 'I' for Inactive)
REMARK    1  A    between atoms: C_2  and  N_3
REMARK    2  A    between atoms: N_3  and  C_4
REMARK    3  A    between atoms: N_3  and  C_6
REMARK    4  A    between atoms: C_6  and  C_7
REMARK    5  A    between atoms: C_7  and  N_8
REMARK    6  A    between atoms: C_9  and  C_11
REMARK    7  A    between atoms: C_15  and  C_16
REMARK    8  A    between atoms: C_24  and  C_27
REMARK    9  A    between atoms: C_30  and  C_32
REMARK                            x       y       z     vdW  Elec       q    Type
REMARK                         _______ _______ _______ _____ _____    ______ ____
ROOT
ATOM      1  C   UNL     1      13.186  -3.141   0.000  0.00  0.00    +0.000 C 
ATOM      2  C   UNL     1      13.671  -2.474   0.000  0.00  0.00    +0.000 C 
ATOM      3  C   UNL     1      13.416  -1.689   0.000  0.00  0.00    +0.000 C 
ATOM      4  O   UNL     1      12.632  -1.434   0.000  0.00  0.00    +0.000 OA
ATOM      5  N   UNL     1      14.084  -1.204   0.000  0.00  0.00    +0.000 NA
ATOM      6  C   UNL     1      14.751  -1.689   0.000  0.00  0.00    +0.000 A 
ATOM      7  C   UNL     1      15.558  -1.518   0.000  0.00  0.00    +0.000 A 
ATOM      8  C   UNL     1      16.110  -2.131   0.000  0.00  0.00    +0.000 A 
ATOM      9  C   UNL     1      15.855  -2.915   0.000  0.00  0.00    +0.000 A 
ATOM     10  C   UNL     1      15.048  -3.087   0.000  0.00  0.00    +0.000 A 
ATOM     11  C   UNL     1      14.496  -2.474   0.000  0.00  0.00    +0.000 A 
ENDROOT
BRANCH   1  16
ATOM     12  C   UNL     1      11.060  -3.332   0.000  0.00  0.00    +0.000 A 
ATOM     13  C   UNL     1      11.146  -2.512   0.000  0.00  0.00    +0.000 A 
ATOM     14  C   UNL     1      10.533  -1.960   0.000  0.00  0.00    +0.000 C 
ATOM     15  N   UNL     1      11.953  -2.340   0.000  0.00  0.00    +0.000 NA
ATOM     16  C   UNL     1      12.366  -3.055   0.000  0.00  0.00    +0.000 A 
ATOM     17  C   UNL     1      11.814  -3.668   0.000  0.00  0.00    +0.000 A 
ATOM     18  C   UNL     1      11.985  -4.475   0.000  0.00  0.00    +0.000 C 
BRANCH  12  20
ATOM     19  N   UNL     1       9.631  -3.332   0.000  0.00  0.00    +0.000 NA
ATOM     20  C   UNL     1      10.346  -3.745   0.000  0.00  0.00    +0.000 C 
ATOM     21  O   UNL     1      10.346  -4.570   0.000  0.00  0.00    +0.000 OA
BRANCH  19  22
ATOM     22  C   UNL     1       8.917  -3.745   0.000  0.00  0.00    +0.000 C 
BRANCH  22  23
ATOM     23  C   UNL     1       8.202  -3.332   0.000  0.00  0.00    +0.000 C 
BRANCH  23  24
ATOM     24  N   UNL     1       7.488  -3.745   0.000  0.00  0.00    +0.000 NA
BRANCH  24  25
ATOM     25  C   UNL     1       7.488  -4.570   0.000  0.00  0.00    +0.000 C 
ATOM     26  C   UNL     1       6.773  -4.982   0.000  0.00  0.00    +0.000 C 
ENDBRANCH  24  25
BRANCH  24  28
ATOM     27  C   UNL     1       6.059  -3.745   0.000  0.00  0.00    +0.000 C 
ATOM     28  C   UNL     1       6.773  -3.332   0.000  0.00  0.00    +0.000 C 
ENDBRANCH  24  28
ENDBRANCH  23  24
ENDBRANCH  22  23
ENDBRANCH  19  22
ENDBRANCH  12  20
ENDBRANCH   1  16
BRANCH   9  29
ATOM     29  C   UNL     1      16.407  -3.528   0.000  0.00  0.00    +0.000 A 
ATOM     30  C   UNL     1      17.228  -3.442   0.000  0.00  0.00    +0.000 A 
ATOM     31  S   UNL     1      17.563  -4.196   0.000  0.00  0.00    +0.000 S 
ATOM     32  C   UNL     1      16.950  -4.748   0.000  0.00  0.00    +0.000 A 
ATOM     33  N   UNL     1      16.236  -4.335   0.000  0.00  0.00    +0.000 NA
BRANCH  32  34
ATOM     34  C   UNL     1      17.037  -5.568   0.000  0.00  0.00    +0.000 A 
ATOM     35  C   UNL     1      17.790  -5.904   0.000  0.00  0.00    +0.000 A 
ATOM     36  C   UNL     1      17.877  -6.724   0.000  0.00  0.00    +0.000 A 
ATOM     37  C   UNL     1      17.209  -7.209   0.000  0.00  0.00    +0.000 A 
ATOM     38  C   UNL     1      16.455  -6.874   0.000  0.00  0.00    +0.000 A 
ATOM     39  C   UNL     1      16.369  -6.053   0.000  0.00  0.00    +0.000 A 
ENDBRANCH  32  34
ENDBRANCH   9  29
TORSDOF 9
