REMARK  Name = 
REMARK  0 active torsions:
REMARK  status: ('A' for Active; 'I' for Inactive)
REMARK                            x       y       z     vdW  Elec       q    Type
REMARK                         _______ _______ _______ _____ _____    ______ ____
ROOT
ATOM      1  C   UNL     1      -3.457  -1.885   0.000  0.00  0.00    +0.000 C 
ATOM      2  C   UNL     1      -3.457  -1.060   0.000  0.00  0.00    +0.000 C 
ATOM      3  C   UNL     1      -2.745  -0.647   0.000  0.00  0.00    +0.000 C 
ATOM      4  C   UNL     1      -2.745  -2.297   0.000  0.00  0.00    +0.000 C 
ATOM      5  C   UNL     1      -2.029  -1.885   0.000  0.00  0.00    +0.000 C 
ATOM      6  C   UNL     1      -1.313  -2.297   0.000  0.00  0.00    +0.000 C 
ATOM      7  C   UNL     1      -0.598  -1.885   0.000  0.00  0.00    +0.000 C 
ATOM      8  C   UNL     1      -0.598  -1.060   0.000  0.00  0.00    +0.000 C 
ATOM      9  C   UNL     1       0.114  -0.647   0.000  0.00  0.00    +0.000 C 
ATOM     10  C   UNL     1       0.899  -0.904   0.000  0.00  0.00    +0.000 C 
ATOM     11  C   UNL     1       1.383  -0.235   0.000  0.00  0.00    +0.000 C 
ATOM     12  O   UNL     1       2.168   0.018   0.000  0.00  0.00    +0.000 OA
ATOM     13  C   UNL     1       0.899   0.431   0.000  0.00  0.00    +0.000 C 
ATOM     14  C   UNL     1       1.383   1.100   0.000  0.00  0.00    +0.000 C 
ATOM     15  C   UNL     1       2.168   0.843   0.000  0.00  0.00    +0.000 C 
ATOM     16  O   UNL     1       2.922   0.510   0.000  0.00  0.00    +0.000 OA
ATOM     17  C   UNL     1       2.083   1.665   0.000  0.00  0.00    +0.000 C 
ATOM     18  C   UNL     1       2.753   2.150   0.000  0.00  0.00    +0.000 C 
ATOM     19  C   UNL     1       3.503   1.812   0.000  0.00  0.00    +0.000 C 
ATOM     20  C   UNL     1       3.588   0.994   0.000  0.00  0.00    +0.000 C 
ATOM     21  C   UNL     1       4.173   2.297   0.000  0.00  0.00    +0.000 C 
ATOM     22  C   UNL     1       1.131   1.885   0.000  0.00  0.00    +0.000 C 
ATOM     23  C   UNL     1       0.114   0.178   0.000  0.00  0.00    +0.000 C 
ATOM     24  C   UNL     1      -0.069   1.119   0.000  0.00  0.00    +0.000 C 
ATOM     25  C   UNL     1      -0.598   0.590   0.000  0.00  0.00    +0.000 C 
ATOM     26  C   UNL     1      -1.313   0.178   0.000  0.00  0.00    +0.000 C 
ATOM     27  C   UNL     1      -1.313  -0.647   0.000  0.00  0.00    +0.000 C 
ATOM     28  C   UNL     1      -2.029  -1.060   0.000  0.00  0.00    +0.000 C 
ATOM     29  C   UNL     1      -2.029  -0.235   0.000  0.00  0.00    +0.000 C 
ATOM     30  O   UNL     1      -2.745   0.178   0.000  0.00  0.00    +0.000 OA
ATOM     31  O   UNL     1      -4.173  -2.297   0.000  0.00  0.00    +0.000 OA
ENDROOT
TORSDOF 0
