REMARK  Name = 
REMARK  4 active torsions:
REMARK  status: ('A' for Active; 'I' for Inactive)
REMARK    1  A    between atoms: C_3  and  C_7
REMARK    2  A    between atoms: N_12  and  C_13
REMARK    3  A    between atoms: C_13  and  C_14
REMARK    4  A    between atoms: C_17  and  C_20
REMARK                            x       y       z     vdW  Elec       q    Type
REMARK                         _______ _______ _______ _____ _____    ______ ____
ROOT
ATOM      1  C   UNL     1       1.436  -2.763   0.000  0.00  0.00    +0.000 C 
ATOM      2  O   UNL     1       2.243  -2.592   0.000  0.00  0.00    +0.000 OA
ATOM      3  N   UNL     1       0.884  -2.150   0.000  0.00  0.00    +0.000 NA
ATOM      4  C   UNL     1       1.139  -1.365   0.000  0.00  0.00    +0.000 A 
ATOM      5  N   UNL     1       0.654  -0.698   0.000  0.00  0.00    +0.000 NA
ATOM      6  N   UNL     1       1.139  -0.030   0.000  0.00  0.00    +0.000 N 
ATOM      7  C   UNL     1       1.923  -0.285   0.000  0.00  0.00    +0.000 A 
ATOM      8  C   UNL     1       2.638   0.127   0.000  0.00  0.00    +0.000 A 
ATOM      9  C   UNL     1       3.352  -0.285   0.000  0.00  0.00    +0.000 A 
ATOM     10  C   UNL     1       3.352  -1.110   0.000  0.00  0.00    +0.000 A 
ATOM     11  C   UNL     1       2.638  -1.523   0.000  0.00  0.00    +0.000 A 
ATOM     12  C   UNL     1       1.923  -1.110   0.000  0.00  0.00    +0.000 A 
ENDROOT
BRANCH   1  15
ATOM     13  C   UNL     1      -0.271  -3.318   0.000  0.00  0.00    +0.000 C 
ATOM     14  C   UNL     1       0.396  -3.803   0.000  0.00  0.00    +0.000 A 
ATOM     15  C   UNL     1       1.181  -3.548   0.000  0.00  0.00    +0.000 A 
ATOM     16  C   UNL     1       1.666  -4.215   0.000  0.00  0.00    +0.000 A 
ATOM     17  C   UNL     1       1.181  -4.883   0.000  0.00  0.00    +0.000 A 
ATOM     18  O   UNL     1       0.396  -4.628   0.000  0.00  0.00    +0.000 OA
ENDBRANCH   1  15
BRANCH   6  19
ATOM     19  C   UNL     1       0.884   0.754   0.000  0.00  0.00    +0.000 C 
BRANCH  19  20
ATOM     20  C   UNL     1       1.436   1.367   0.000  0.00  0.00    +0.000 A 
ATOM     21  C   UNL     1       1.181   2.152   0.000  0.00  0.00    +0.000 A 
ATOM     22  C   UNL     1       1.733   2.765   0.000  0.00  0.00    +0.000 A 
ATOM     23  C   UNL     1       2.540   2.593   0.000  0.00  0.00    +0.000 A 
ATOM     24  C   UNL     1       2.795   1.809   0.000  0.00  0.00    +0.000 A 
ATOM     25  C   UNL     1       2.243   1.196   0.000  0.00  0.00    +0.000 A 
BRANCH  23  26
ATOM     26  C   UNL     1       3.092   3.207   0.000  0.00  0.00    +0.000 C 
ATOM     27  F   UNL     1       3.644   3.820   0.000  0.00  0.00    +0.000 F 
ATOM     28  F   UNL     1       3.705   2.655   0.000  0.00  0.00    +0.000 F 
ATOM     29  F   UNL     1       2.479   3.759   0.000  0.00  0.00    +0.000 F 
ENDBRANCH  23  26
ENDBRANCH  19  20
ENDBRANCH   6  19
TORSDOF 4
