REMARK  Name = 
REMARK  7 active torsions:
REMARK  status: ('A' for Active; 'I' for Inactive)
REMARK    1  A    between atoms: C_2  and  C_3
REMARK    2  A    between atoms: N_9  and  C_10
REMARK    3  A    between atoms: C_10  and  C_11
REMARK    4  A    between atoms: C_11  and  C_12
REMARK    5  A    between atoms: C_12  and  C_13
REMARK    6  A    between atoms: C_17  and  C_18
REMARK    7  A    between atoms: C_18  and  N_19
REMARK                            x       y       z     vdW  Elec       q    Type
REMARK                         _______ _______ _______ _____ _____    ______ ____
ROOT
ATOM      1  C   UNL     1       4.082  -4.034   0.000  0.00  0.00    +0.000 A 
ATOM      2  C   UNL     1       3.886  -3.233   0.000  0.00  0.00    +0.000 A 
ATOM      3  C   UNL     1       3.094  -3.002   0.000  0.00  0.00    +0.000 A 
ATOM      4  C   UNL     1       2.498  -3.573   0.000  0.00  0.00    +0.000 A 
ATOM      5  C   UNL     1       2.695  -4.374   0.000  0.00  0.00    +0.000 A 
ATOM      6  C   UNL     1       3.487  -4.605   0.000  0.00  0.00    +0.000 A 
ATOM      7  N   UNL     1       1.772  -3.183   0.000  0.00  0.00    +0.000 N 
ATOM      8  C   UNL     1       1.918  -2.371   0.000  0.00  0.00    +0.000 A 
ATOM      9  N   UNL     1       2.736  -2.259   0.000  0.00  0.00    +0.000 NA
ENDROOT
BRANCH   1  11
ATOM     10  N   UNL     1       5.470  -3.694   0.000  0.00  0.00    +0.000 NA
ATOM     11  C   UNL     1       4.875  -4.265   0.000  0.00  0.00    +0.000 C 
ENDBRANCH   1  11
BRANCH   7  12
ATOM     12  C   UNL     1       1.028  -3.541   0.000  0.00  0.00    +0.000 C 
BRANCH  12  13
ATOM     13  C   UNL     1       0.968  -4.364   0.000  0.00  0.00    +0.000 C 
BRANCH  13  14
ATOM     14  C   UNL     1       0.225  -4.722   0.000  0.00  0.00    +0.000 C 
BRANCH  14  15
ATOM     15  C   UNL     1      -0.458  -4.258   0.000  0.00  0.00    +0.000 C 
ATOM     16  F   UNL     1       0.007  -3.576   0.000  0.00  0.00    +0.000 F 
ATOM     17  F   UNL     1      -0.922  -4.940   0.000  0.00  0.00    +0.000 F 
ATOM     18  F   UNL     1      -1.139  -3.794   0.000  0.00  0.00    +0.000 F 
ENDBRANCH  14  15
ENDBRANCH  13  14
ENDBRANCH  12  13
ENDBRANCH   7  12
BRANCH   8  19
ATOM     19  C   UNL     1       1.347  -1.775   0.000  0.00  0.00    +0.000 C 
BRANCH  19  20
ATOM     20  N   UNL     1       1.578  -0.983   0.000  0.00  0.00    +0.000 N 
ATOM     21  C   UNL     1       2.355  -0.704   0.000  0.00  0.00    +0.000 C 
ATOM     22  O   UNL     1       3.037  -1.168   0.000  0.00  0.00    +0.000 OA
ATOM     23  C   UNL     1       2.329   0.121   0.000  0.00  0.00    +0.000 C 
ATOM     24  C   UNL     1       2.642   0.884   0.000  0.00  0.00    +0.000 C 
ATOM     25  C   UNL     1       3.147   0.232   0.000  0.00  0.00    +0.000 C 
ATOM     26  C   UNL     1       1.537   0.351   0.000  0.00  0.00    +0.000 A 
ATOM     27  C   UNL     1       1.073  -0.331   0.000  0.00  0.00    +0.000 A 
ATOM     28  C   UNL     1       0.250  -0.270   0.000  0.00  0.00    +0.000 A 
ATOM     29  C   UNL     1      -0.108   0.473   0.000  0.00  0.00    +0.000 A 
ATOM     30  F   UNL     1      -0.931   0.534   0.000  0.00  0.00    +0.000 F 
ATOM     31  C   UNL     1       0.356   1.155   0.000  0.00  0.00    +0.000 A 
ATOM     32  C   UNL     1       1.179   1.095   0.000  0.00  0.00    +0.000 A 
ENDBRANCH  19  20
ENDBRANCH   8  19
TORSDOF 7
