REMARK  Name = 
REMARK  16 active torsions:
REMARK  status: ('A' for Active; 'I' for Inactive)
REMARK    1  A    between atoms: C_3  and  N_7
REMARK    2  A    between atoms: C_6  and  C_8
REMARK    3  A    between atoms: C_10  and  C_23
REMARK    4  A    between atoms: C_13  and  C_15
REMARK    5  A    between atoms: C_18  and  N_45
REMARK    6  A    between atoms: C_20  and  N_26
REMARK    7  A    between atoms: C_27  and  C_28
REMARK    8  A    between atoms: C_34  and  C_35
REMARK    9  A    between atoms: C_35  and  C_37
REMARK   10  A    between atoms: C_35  and  N_40
REMARK   11  A    between atoms: C_41  and  O_42
REMARK   12  A    between atoms: C_46  and  C_47
REMARK   13  A    between atoms: C_53  and  C_54
REMARK   14  A    between atoms: C_54  and  C_56
REMARK   15  A    between atoms: C_54  and  N_59
REMARK   16  A    between atoms: C_60  and  O_61
REMARK                            x       y       z     vdW  Elec       q    Type
REMARK                         _______ _______ _______ _____ _____    ______ ____
ROOT
ATOM      1  N   UNL     1      -0.021  -0.743   0.000  0.00  0.00    +0.000 N 
ATOM      2  C   UNL     1      -0.681  -1.238   0.000  0.00  0.00    +0.000 C 
ATOM      3  C   UNL     1      -0.433  -2.021   0.000  0.00  0.00    +0.000 C 
ATOM      4  C   UNL     1       0.392  -2.021   0.000  0.00  0.00    +0.000 C 
ATOM      5  C   UNL     1       0.681  -1.238   0.000  0.00  0.00    +0.000 C 
ENDROOT
BRANCH   1   8
ATOM      6  C   UNL     1      -0.722   1.320   0.000  0.00  0.00    +0.000 A 
ATOM      7  C   UNL     1      -0.722   0.495   0.000  0.00  0.00    +0.000 A 
ATOM      8  C   UNL     1      -0.021   0.082   0.000  0.00  0.00    +0.000 A 
ATOM      9  C   UNL     1       0.722   0.495   0.000  0.00  0.00    +0.000 A 
ATOM     10  C   UNL     1       0.722   1.320   0.000  0.00  0.00    +0.000 A 
ATOM     11  C   UNL     1      -0.021   1.732   0.000  0.00  0.00    +0.000 A 
BRANCH  11  12
ATOM     12  C   UNL     1      -0.021   2.558   0.000  0.00  0.00    +0.000 C 
ATOM     13  C   UNL     1      -0.021   3.383   0.000  0.00  0.00    +0.000 C 
ATOM     14  C   UNL     1       0.694   2.970   0.000  0.00  0.00    +0.000 C 
ATOM     15  C   UNL     1      -0.735   2.970   0.000  0.00  0.00    +0.000 C 
ENDBRANCH  11  12
ENDBRANCH   1   8
BRANCH   2  19
ATOM     16  C   UNL     1      -2.826   0.000   0.000  0.00  0.00    +0.000 A 
ATOM     17  C   UNL     1      -2.826  -0.825   0.000  0.00  0.00    +0.000 A 
ATOM     18  C   UNL     1      -2.124  -1.238   0.000  0.00  0.00    +0.000 A 
ATOM     19  C   UNL     1      -1.382  -0.825   0.000  0.00  0.00    +0.000 A 
ATOM     20  C   UNL     1      -1.382   0.000   0.000  0.00  0.00    +0.000 A 
ATOM     21  C   UNL     1      -2.124   0.412   0.000  0.00  0.00    +0.000 A 
BRANCH  16  22
ATOM     22  N   UNL     1      -3.527   0.412   0.000  0.00  0.00    +0.000 NA
ATOM     23  C   UNL     1      -4.228   0.000   0.000  0.00  0.00    +0.000 C 
ATOM     24  O   UNL     1      -4.228  -0.825   0.000  0.00  0.00    +0.000 OA
BRANCH  23  25
ATOM     25  C   UNL     1      -4.929   0.412   0.000  0.00  0.00    +0.000 C 
ATOM     26  N   UNL     1      -5.631  -0.083   0.000  0.00  0.00    +0.000 N 
ATOM     27  C   UNL     1      -6.291   0.412   0.000  0.00  0.00    +0.000 C 
ATOM     28  C   UNL     1      -6.043   1.196   0.000  0.00  0.00    +0.000 C 
ATOM     29  C   UNL     1      -5.218   1.196   0.000  0.00  0.00    +0.000 C 
ATOM     30  C   UNL     1      -5.631  -0.908   0.000  0.00  0.00    +0.000 C 
ATOM     31  O   UNL     1      -4.929  -1.320   0.000  0.00  0.00    +0.000 OA
BRANCH  30  32
ATOM     32  C   UNL     1      -6.373  -1.320   0.000  0.00  0.00    +0.000 C 
BRANCH  32  33
ATOM     33  C   UNL     1      -7.074  -0.866   0.000  0.00  0.00    +0.000 C 
ATOM     34  C   UNL     1      -7.776  -1.279   0.000  0.00  0.00    +0.000 C 
ATOM     35  C   UNL     1      -7.074  -0.041   0.000  0.00  0.00    +0.000 C 
ENDBRANCH  32  33
BRANCH  32  36
ATOM     36  N   UNL     1      -6.373  -2.145   0.000  0.00  0.00    +0.000 NA
ATOM     37  C   UNL     1      -7.074  -2.558   0.000  0.00  0.00    +0.000 C 
ATOM     38  O   UNL     1      -7.074  -3.383   0.000  0.00  0.00    +0.000 OA
BRANCH  37  39
ATOM     39  O   UNL     1      -7.776  -2.145   0.000  0.00  0.00    +0.000 OA
ATOM     40  C   UNL     1      -8.518  -2.558   0.000  0.00  0.00    +0.000 C 
ENDBRANCH  37  39
ENDBRANCH  32  36
ENDBRANCH  30  32
ENDBRANCH  23  25
ENDBRANCH  16  22
ENDBRANCH   2  19
BRANCH   5  42
ATOM     41  C   UNL     1       1.382   0.000   0.000  0.00  0.00    +0.000 A 
ATOM     42  C   UNL     1       1.382  -0.825   0.000  0.00  0.00    +0.000 A 
ATOM     43  C   UNL     1       2.083  -1.238   0.000  0.00  0.00    +0.000 A 
ATOM     44  C   UNL     1       2.826  -0.825   0.000  0.00  0.00    +0.000 A 
ATOM     45  C   UNL     1       2.826   0.000   0.000  0.00  0.00    +0.000 A 
ATOM     46  C   UNL     1       2.083   0.412   0.000  0.00  0.00    +0.000 A 
BRANCH  45  47
ATOM     47  N   UNL     1       3.527   0.412   0.000  0.00  0.00    +0.000 NA
ATOM     48  C   UNL     1       4.228   0.000   0.000  0.00  0.00    +0.000 C 
ATOM     49  O   UNL     1       4.228  -0.825   0.000  0.00  0.00    +0.000 OA
BRANCH  48  50
ATOM     50  C   UNL     1       4.929   0.412   0.000  0.00  0.00    +0.000 C 
ATOM     51  N   UNL     1       5.631  -0.083   0.000  0.00  0.00    +0.000 N 
ATOM     52  C   UNL     1       6.291   0.412   0.000  0.00  0.00    +0.000 C 
ATOM     53  C   UNL     1       6.043   1.196   0.000  0.00  0.00    +0.000 C 
ATOM     54  C   UNL     1       5.218   1.196   0.000  0.00  0.00    +0.000 C 
ATOM     55  C   UNL     1       5.631  -0.908   0.000  0.00  0.00    +0.000 C 
ATOM     56  O   UNL     1       4.929  -1.320   0.000  0.00  0.00    +0.000 OA
BRANCH  55  57
ATOM     57  C   UNL     1       6.373  -1.320   0.000  0.00  0.00    +0.000 C 
BRANCH  57  58
ATOM     58  N   UNL     1       6.373  -2.145   0.000  0.00  0.00    +0.000 NA
ATOM     59  C   UNL     1       7.074  -2.558   0.000  0.00  0.00    +0.000 C 
ATOM     60  O   UNL     1       7.074  -3.383   0.000  0.00  0.00    +0.000 OA
BRANCH  59  61
ATOM     61  O   UNL     1       7.776  -2.145   0.000  0.00  0.00    +0.000 OA
ATOM     62  C   UNL     1       8.518  -2.558   0.000  0.00  0.00    +0.000 C 
ENDBRANCH  59  61
ENDBRANCH  57  58
BRANCH  57  63
ATOM     63  C   UNL     1       7.074  -0.866   0.000  0.00  0.00    +0.000 C 
ATOM     64  C   UNL     1       7.776  -1.279   0.000  0.00  0.00    +0.000 C 
ATOM     65  C   UNL     1       7.074  -0.041   0.000  0.00  0.00    +0.000 C 
ENDBRANCH  57  63
ENDBRANCH  55  57
ENDBRANCH  48  50
ENDBRANCH  45  47
ENDBRANCH   5  42
TORSDOF 16
