REMARK  Name = 
REMARK  0 active torsions:
REMARK  status: ('A' for Active; 'I' for Inactive)
REMARK                            x       y       z     vdW  Elec       q    Type
REMARK                         _______ _______ _______ _____ _____    ______ ____
ROOT
ATOM      1  C   UNL     1      -1.609   0.392   0.000  0.00  0.00    +0.000 A 
ATOM      2  C   UNL     1      -1.609  -0.433   0.000  0.00  0.00    +0.000 A 
ATOM      3  C   UNL     1      -0.908  -0.846   0.000  0.00  0.00    +0.000 A 
ATOM      4  C   UNL     1      -0.206  -0.433   0.000  0.00  0.00    +0.000 A 
ATOM      5  C   UNL     1      -0.206   0.392   0.000  0.00  0.00    +0.000 A 
ATOM      6  C   UNL     1      -0.908   0.804   0.000  0.00  0.00    +0.000 A 
ATOM      7  N   UNL     1       0.578  -0.681   0.000  0.00  0.00    +0.000 N 
ATOM      8  C   UNL     1       1.073  -0.021   0.000  0.00  0.00    +0.000 A 
ATOM      9  C   UNL     1       0.578   0.639   0.000  0.00  0.00    +0.000 A 
ATOM     10  C   UNL     1       1.898  -0.021   0.000  0.00  0.00    +0.000 C 
ATOM     11  C   UNL     1      -2.310   0.804   0.000  0.00  0.00    +0.000 C 
ATOM     12  C   UNL     1       1.031   1.423   0.000  0.00  0.00    +0.000 C 
ATOM     13  C   UNL     1       2.310   0.722   0.000  0.00  0.00    +0.000 C 
ATOM     14  C   UNL     1       1.856   1.423   0.000  0.00  0.00    +0.000 C 
ATOM     15  C   UNL     1       1.031  -1.423   0.000  0.00  0.00    +0.000 C 
ATOM     16  C   UNL     1       1.856  -1.423   0.000  0.00  0.00    +0.000 C 
ATOM     17  N   UNL     1       2.269  -0.722   0.000  0.00  0.00    +0.000 NA
ENDROOT
TORSDOF 0
