REMARK  Name = 
REMARK  2 active torsions:
REMARK  status: ('A' for Active; 'I' for Inactive)
REMARK    1  A    between atoms: C_8  and  C_11
REMARK    2  A    between atoms: N_13  and  C_14
REMARK                            x       y       z     vdW  Elec       q    Type
REMARK                         _______ _______ _______ _____ _____    ______ ____
ROOT
ATOM      1  C   UNL     1       2.143   1.238   0.000  0.00  0.00    +0.000 C 
ATOM      2  O   UNL     1       2.858   0.825   0.000  0.00  0.00    +0.000 OA
ATOM      3  N   UNL     1       2.143   2.062   0.000  0.00  0.00    +0.000 NA
ENDROOT
BRANCH   1  11
ATOM      4  C   UNL     1      -0.613  -0.552   0.000  0.00  0.00    +0.000 A 
ATOM      5  C   UNL     1      -0.278  -1.306   0.000  0.00  0.00    +0.000 A 
ATOM      6  S   UNL     1       0.543  -1.220   0.000  0.00  0.00    +0.000 S 
ATOM      7  C   UNL     1       0.715  -0.412   0.000  0.00  0.00    +0.000 A 
ATOM      8  C   UNL     1       0.000   0.000   0.000  0.00  0.00    +0.000 A 
ATOM      9  N   UNL     1       0.000   0.825   0.000  0.00  0.00    +0.000 NA
ATOM     10  C   UNL     1       0.715   1.238   0.000  0.00  0.00    +0.000 A 
ATOM     11  C   UNL     1       1.429   0.825   0.000  0.00  0.00    +0.000 A 
ATOM     12  C   UNL     1       1.429   0.000   0.000  0.00  0.00    +0.000 A 
ATOM     13  O   UNL     1       2.143  -0.412   0.000  0.00  0.00    +0.000 OA
ENDBRANCH   1  11
BRANCH   3  14
ATOM     14  C   UNL     1       2.858   2.475   0.000  0.00  0.00    +0.000 C 
ATOM     15  C   UNL     1       2.858   3.300   0.000  0.00  0.00    +0.000 C 
ATOM     16  N   UNL     1       3.572   3.712   0.000  0.00  0.00    +0.000 NA
ATOM     17  C   UNL     1       4.287   3.300   0.000  0.00  0.00    +0.000 C 
ATOM     18  C   UNL     1       4.287   2.475   0.000  0.00  0.00    +0.000 C 
ATOM     19  C   UNL     1       3.572   2.062   0.000  0.00  0.00    +0.000 C 
ATOM     20  C   UNL     1       3.710   2.612   0.000  0.00  0.00    +0.000 C 
ATOM     21  C   UNL     1       3.710   3.163   0.000  0.00  0.00    +0.000 C 
ENDBRANCH   3  14
TORSDOF 2
