REMARK  Name = 
REMARK  9 active torsions:
REMARK  status: ('A' for Active; 'I' for Inactive)
REMARK    1  A    between atoms: O_4  and  C_20
REMARK    2  A    between atoms: O_4  and  C_26
REMARK    3  A    between atoms: O_6  and  C_37
REMARK    4  A    between atoms: N_10  and  C_21
REMARK    5  A    between atoms: N_12  and  C_39
REMARK    6  A    between atoms: C_18  and  C_20
REMARK    7  A    between atoms: C_24  and  C_31
REMARK    8  A    between atoms: C_25  and  C_26
REMARK    9  A    between atoms: C_29  and  C_37
REMARK                            x       y       z     vdW  Elec       q    Type
REMARK                         _______ _______ _______ _____ _____    ______ ____
ROOT
ATOM      1  N   UNL     1       3.616  -2.282   0.000  0.00  0.00    +0.000 N 
ATOM      2  C   UNL     1       3.443  -0.641   0.000  0.00  0.00    +0.000 C 
ATOM      3  C   UNL     1       2.776  -1.126   0.000  0.00  0.00    +0.000 C 
ATOM      4  C   UNL     1       4.197  -0.976   0.000  0.00  0.00    +0.000 C 
ATOM      5  C   UNL     1       2.862  -1.946   0.000  0.00  0.00    +0.000 C 
ATOM      6  C   UNL     1       4.283  -1.797   0.000  0.00  0.00    +0.000 C 
ATOM      7  C   UNL     1       2.195  -2.431   0.000  0.00  0.00    +0.000 C 
ATOM      8  C   UNL     1       5.037  -2.132   0.000  0.00  0.00    +0.000 C 
ATOM      9  H   UNL     1       3.669  -2.790   0.000  0.00  0.00    +0.000 HD
ENDROOT
BRANCH   2  10
ATOM     10  C   UNL     1       3.357   0.180   0.000  0.00  0.00    +0.000 A 
ATOM     11  C   UNL     1       4.025   0.665   0.000  0.00  0.00    +0.000 A 
ATOM     12  C   UNL     1       2.603   0.515   0.000  0.00  0.00    +0.000 A 
ATOM     13  C   UNL     1       3.938   1.485   0.000  0.00  0.00    +0.000 A 
ATOM     14  C   UNL     1       2.517   1.336   0.000  0.00  0.00    +0.000 A 
ATOM     15  C   UNL     1       3.185   1.821   0.000  0.00  0.00    +0.000 A 
BRANCH  13  18
ATOM     16  O   UNL     1       4.520   2.790   0.000  0.00  0.00    +0.000 OA
ATOM     17  O   UNL     1       5.359   1.634   0.000  0.00  0.00    +0.000 OA
ATOM     18  N   UNL     1       4.606   1.970   0.000  0.00  0.00    +0.000 N 
ENDBRANCH  13  18
ENDBRANCH   2  10
BRANCH   3  20
ATOM     19  O   UNL     1       1.936   0.030   0.000  0.00  0.00    +0.000 OA
ATOM     20  C   UNL     1       2.022  -0.790   0.000  0.00  0.00    +0.000 C 
BRANCH  20  21
ATOM     21  O   UNL     1       1.355  -1.275   0.000  0.00  0.00    +0.000 OA
BRANCH  21  22
ATOM     22  C   UNL     1       0.601  -0.940   0.000  0.00  0.00    +0.000 C 
BRANCH  22  31
ATOM     23  O   UNL     1      -0.851  -1.169   0.000  0.00  0.00    +0.000 OA
ATOM     24  O   UNL     1      -0.851  -2.504   0.000  0.00  0.00    +0.000 OA
ATOM     25  N   UNL     1      -2.986  -1.837   0.000  0.00  0.00    +0.000 N 
ATOM     26  C   UNL     1      -1.336  -1.837   0.000  0.00  0.00    +0.000 C 
ATOM     27  C   UNL     1      -1.748  -1.122   0.000  0.00  0.00    +0.000 C 
ATOM     28  C   UNL     1      -1.748  -2.551   0.000  0.00  0.00    +0.000 C 
ATOM     29  C   UNL     1      -2.573  -1.122   0.000  0.00  0.00    +0.000 C 
ATOM     30  C   UNL     1      -2.573  -2.551   0.000  0.00  0.00    +0.000 C 
ATOM     31  C   UNL     1      -0.066  -1.424   0.000  0.00  0.00    +0.000 C 
ATOM     32  C   UNL     1      -0.066  -2.249   0.000  0.00  0.00    +0.000 C 
BRANCH  25  34
ATOM     33 CL   UNL     1      -6.286  -1.837   0.000  0.00  0.00    +0.000 Cl
ATOM     34  C   UNL     1      -3.811  -1.837   0.000  0.00  0.00    +0.000 A 
ATOM     35  C   UNL     1      -4.223  -1.122   0.000  0.00  0.00    +0.000 A 
ATOM     36  C   UNL     1      -4.223  -2.551   0.000  0.00  0.00    +0.000 A 
ATOM     37  C   UNL     1      -5.048  -1.122   0.000  0.00  0.00    +0.000 A 
ATOM     38  C   UNL     1      -5.048  -2.551   0.000  0.00  0.00    +0.000 A 
ATOM     39  C   UNL     1      -5.461  -1.837   0.000  0.00  0.00    +0.000 A 
ENDBRANCH  25  34
ENDBRANCH  22  31
ENDBRANCH  21  22
ENDBRANCH  20  21
ENDBRANCH   3  20
BRANCH   4  41
ATOM     40  O   UNL     1       4.778   0.329   0.000  0.00  0.00    +0.000 OA
ATOM     41  C   UNL     1       4.864  -0.491   0.000  0.00  0.00    +0.000 C 
BRANCH  41  42
ATOM     42  O   UNL     1       5.618  -0.827   0.000  0.00  0.00    +0.000 OA
ATOM     43  C   UNL     1       6.286  -0.342   0.000  0.00  0.00    +0.000 C 
ENDBRANCH  41  42
ENDBRANCH   4  41
TORSDOF 9
