REMARK  Name = 
REMARK  9 active torsions:
REMARK  status: ('A' for Active; 'I' for Inactive)
REMARK    1  A    between atoms: S_2  and  C_3
REMARK    2  A    between atoms: S_2  and  N_33
REMARK    3  A    between atoms: C_7  and  N_8
REMARK    4  A    between atoms: N_15  and  C_16
REMARK    5  A    between atoms: C_19  and  O_20
REMARK    6  A    between atoms: O_20  and  C_21
REMARK    7  A    between atoms: C_21  and  C_22
REMARK    8  A    between atoms: C_22  and  N_23
REMARK    9  A    between atoms: N_33  and  C_34
REMARK                            x       y       z     vdW  Elec       q    Type
REMARK                         _______ _______ _______ _____ _____    ______ ____
ROOT
ATOM      1  N   UNL     1      -1.309  -0.909   0.000  0.00  0.00    +0.000 NA
ATOM      2  C   UNL     1      -1.309  -0.085   0.000  0.00  0.00    +0.000 A 
ATOM      3  C   UNL     1      -2.024   0.326   0.000  0.00  0.00    +0.000 A 
ATOM      4  C   UNL     1      -2.738  -0.087   0.000  0.00  0.00    +0.000 C 
ATOM      5  C   UNL     1      -2.024   1.155   0.000  0.00  0.00    +0.000 A 
ATOM      6  N   UNL     1      -1.309   1.573   0.000  0.00  0.00    +0.000 NA
ATOM      7  C   UNL     1      -0.593   1.155   0.000  0.00  0.00    +0.000 A 
ATOM      8  N   UNL     1       0.122   1.565   0.000  0.00  0.00    +0.000 NA
ATOM      9  N   UNL     1      -0.593   0.326   0.000  0.00  0.00    +0.000 NA
ENDROOT
BRANCH   1  14
ATOM     10  C   UNL     1      -3.454  -1.326   0.000  0.00  0.00    +0.000 A 
ATOM     11  C   UNL     1      -3.454  -2.155   0.000  0.00  0.00    +0.000 A 
ATOM     12  C   UNL     1      -2.735  -2.563   0.000  0.00  0.00    +0.000 A 
ATOM     13  C   UNL     1      -2.023  -2.151   0.000  0.00  0.00    +0.000 A 
ATOM     14  C   UNL     1      -2.023  -1.322   0.000  0.00  0.00    +0.000 A 
ATOM     15  C   UNL     1      -2.740  -0.905   0.000  0.00  0.00    +0.000 A 
BRANCH  10  17
ATOM     16  O   UNL     1      -3.763  -0.201   0.000  0.00  0.00    +0.000 OA
ATOM     17  S   UNL     1      -4.171  -0.918   0.000  0.00  0.00    +0.000 S 
ATOM     18  O   UNL     1      -4.579  -1.634   0.000  0.00  0.00    +0.000 OA
BRANCH  17  19
ATOM     19  N   UNL     1      -4.888  -0.509   0.000  0.00  0.00    +0.000 NA
BRANCH  19  20
ATOM     20  C   UNL     1      -4.892   0.315   0.000  0.00  0.00    +0.000 C 
ATOM     21  C   UNL     1      -4.068   0.320   0.000  0.00  0.00    +0.000 C 
ATOM     22  C   UNL     1      -5.717   0.310   0.000  0.00  0.00    +0.000 C 
ATOM     23  C   UNL     1      -4.897   1.140   0.000  0.00  0.00    +0.000 C 
ENDBRANCH  19  20
ENDBRANCH  17  19
ENDBRANCH  10  17
ENDBRANCH   1  14
BRANCH   8  24
ATOM     24  C   UNL     1       0.835   1.151   0.000  0.00  0.00    +0.000 A 
ATOM     25  C   UNL     1       0.835   0.322   0.000  0.00  0.00    +0.000 A 
ATOM     26  C   UNL     1       1.551  -0.088   0.000  0.00  0.00    +0.000 A 
ATOM     27  C   UNL     1       2.269   0.326   0.000  0.00  0.00    +0.000 A 
ATOM     28  C   UNL     1       2.269   1.151   0.000  0.00  0.00    +0.000 A 
ATOM     29  C   UNL     1       1.553   1.565   0.000  0.00  0.00    +0.000 A 
BRANCH  27  30
ATOM     30  O   UNL     1       2.984  -0.085   0.000  0.00  0.00    +0.000 OA
BRANCH  30  31
ATOM     31  C   UNL     1       3.697   0.328   0.000  0.00  0.00    +0.000 C 
BRANCH  31  32
ATOM     32  C   UNL     1       3.697   1.153   0.000  0.00  0.00    +0.000 C 
BRANCH  32  33
ATOM     33  N   UNL     1       4.410   1.567   0.000  0.00  0.00    +0.000 NA
ATOM     34  C   UNL     1       5.168   1.232   0.000  0.00  0.00    +0.000 C 
ATOM     35  C   UNL     1       5.717   1.849   0.000  0.00  0.00    +0.000 C 
ATOM     36  C   UNL     1       5.302   2.563   0.000  0.00  0.00    +0.000 C 
ATOM     37  C   UNL     1       4.496   2.387   0.000  0.00  0.00    +0.000 C 
ENDBRANCH  32  33
ENDBRANCH  31  32
ENDBRANCH  30  31
ENDBRANCH  27  30
ENDBRANCH   8  24
TORSDOF 9
