REMARK  Name = 
REMARK  4 active torsions:
REMARK  status: ('A' for Active; 'I' for Inactive)
REMARK    1  A    between atoms: C_6  and  O_8
REMARK    2  A    between atoms: O_8  and  C_9
REMARK    3  A    between atoms: C_11  and  C_31
REMARK    4  A    between atoms: C_31  and  C_33
REMARK                            x       y       z     vdW  Elec       q    Type
REMARK                         _______ _______ _______ _____ _____    ______ ____
ROOT
ATOM      1  C   UNL     1       5.001   1.238   0.000  0.00  0.00    +0.000 C 
ATOM      2  C   UNL     1       5.716   0.825   0.000  0.00  0.00    +0.000 C 
ATOM      3  C   UNL     1       5.716   0.000   0.000  0.00  0.00    +0.000 C 
ATOM      4  C   UNL     1       5.001  -0.412   0.000  0.00  0.00    +0.000 C 
ATOM      5  C   UNL     1       4.287   0.000   0.000  0.00  0.00    +0.000 A 
ATOM      6  C   UNL     1       4.287   0.825   0.000  0.00  0.00    +0.000 A 
ATOM      7  C   UNL     1       3.572   1.238   0.000  0.00  0.00    +0.000 A 
ATOM      8  C   UNL     1       2.858   0.825   0.000  0.00  0.00    +0.000 A 
ATOM      9  C   UNL     1       2.858   0.000   0.000  0.00  0.00    +0.000 A 
ATOM     10  C   UNL     1       3.572  -0.412   0.000  0.00  0.00    +0.000 A 
ATOM     11  O   UNL     1       3.572  -1.238   0.000  0.00  0.00    +0.000 OA
ATOM     12  C   UNL     1       2.143  -0.412   0.000  0.00  0.00    +0.000 C 
ATOM     13  O   UNL     1       2.143  -1.238   0.000  0.00  0.00    +0.000 OA
ATOM     14  C   UNL     1       1.429   0.000   0.000  0.00  0.00    +0.000 A 
ATOM     15  C   UNL     1       0.715  -0.412   0.000  0.00  0.00    +0.000 A 
ATOM     16  C   UNL     1       0.000   0.000   0.000  0.00  0.00    +0.000 A 
ATOM     17  C   UNL     1       0.000   0.825   0.000  0.00  0.00    +0.000 A 
ATOM     18  C   UNL     1       0.715   1.238   0.000  0.00  0.00    +0.000 A 
ATOM     19  C   UNL     1       1.429   0.825   0.000  0.00  0.00    +0.000 A 
ATOM     20  C   UNL     1       2.143   1.238   0.000  0.00  0.00    +0.000 C 
ATOM     21  O   UNL     1       2.143   2.062   0.000  0.00  0.00    +0.000 OA
ATOM     22  O   UNL     1       3.572   2.062   0.000  0.00  0.00    +0.000 OA
ATOM     23  O   UNL     1       6.153  -0.700   0.000  0.00  0.00    +0.000 OA
ENDROOT
BRANCH   3  24
ATOM     24  C   UNL     1       6.540  -0.029   0.000  0.00  0.00    +0.000 C 
ATOM     25  O   UNL     1       6.928  -0.757   0.000  0.00  0.00    +0.000 OA
BRANCH  24  26
ATOM     26  C   UNL     1       6.977   0.671   0.000  0.00  0.00    +0.000 C 
ATOM     27  O   UNL     1       6.590   1.399   0.000  0.00  0.00    +0.000 OA
ENDBRANCH  24  26
ENDBRANCH   3  24
BRANCH   1  28
ATOM     28  O   UNL     1       5.001   2.062   0.000  0.00  0.00    +0.000 OA
BRANCH  28  34
ATOM     29  C   UNL     1       7.859   2.062   0.000  0.00  0.00    +0.000 C 
ATOM     30  C   UNL     1       7.145   2.475   0.000  0.00  0.00    +0.000 C 
ATOM     31  C   UNL     1       7.145   3.300   0.000  0.00  0.00    +0.000 C 
ATOM     32  C   UNL     1       6.430   3.712   0.000  0.00  0.00    +0.000 C 
ATOM     33  C   UNL     1       5.716   3.300   0.000  0.00  0.00    +0.000 C 
ATOM     34  C   UNL     1       5.716   2.475   0.000  0.00  0.00    +0.000 C 
ATOM     35  O   UNL     1       6.430   2.062   0.000  0.00  0.00    +0.000 OA
ATOM     36  I   UNL     1       5.001   3.712   0.000  0.00  0.00    +0.000 I 
ATOM     37  O   UNL     1       6.430   4.537   0.000  0.00  0.00    +0.000 OA
ATOM     38  O   UNL     1       7.859   3.712   0.000  0.00  0.00    +0.000 OA
ENDBRANCH  28  34
ENDBRANCH   1  28
TORSDOF 4
