REMARK  Name = 
REMARK  2 active torsions:
REMARK  status: ('A' for Active; 'I' for Inactive)
REMARK    1  A    between atoms: C_1  and  C_2
REMARK    2  A    between atoms: C_1  and  O_9
REMARK                            x       y       z     vdW  Elec       q    Type
REMARK                         _______ _______ _______ _____ _____    ______ ____
ROOT
ATOM      1  C   UNL     1       0.004   0.000   0.000  0.00  0.00    +0.000 A 
ATOM      2  C   UNL     1       0.719   0.408   0.000  0.00  0.00    +0.000 A 
ATOM      3  C   UNL     1       1.431  -0.008   0.000  0.00  0.00    +0.000 A 
ATOM      4  C   UNL     1       1.428  -0.833   0.000  0.00  0.00    +0.000 A 
ATOM      5  N   UNL     1       0.713  -1.242   0.000  0.00  0.00    +0.000 NA
ATOM      6  C   UNL     1       0.000  -0.825   0.000  0.00  0.00    +0.000 A 
ENDROOT
BRANCH   1   7
ATOM      7  C   UNL     1      -0.709   0.417   0.000  0.00  0.00    +0.000 C 
ATOM      8  O   UNL     1      -0.706   1.242   0.000  0.00  0.00    +0.000 OA
BRANCH   7   9
ATOM      9  O   UNL     1      -1.424   0.008   0.000  0.00  0.00    +0.000 OA
ATOM     10  C   UNL     1      -1.431  -0.816   0.000  0.00  0.00    +0.000 C 
ENDBRANCH   7   9
ENDBRANCH   1   7
TORSDOF 2
