REMARK  Name = 
REMARK  6 active torsions:
REMARK  status: ('A' for Active; 'I' for Inactive)
REMARK    1  A    between atoms: O_1  and  C_8
REMARK    2  A    between atoms: O_1  and  C_14
REMARK    3  A    between atoms: N_4  and  C_7
REMARK    4  A    between atoms: C_14  and  C_15
REMARK    5  A    between atoms: C_15  and  C_18
REMARK    6  A    between atoms: C_15  and  C_19
REMARK                            x       y       z     vdW  Elec       q    Type
REMARK                         _______ _______ _______ _____ _____    ______ ____
ROOT
ATOM      1  O   UNL     1       0.784   0.154   0.000  0.00  0.00    +0.000 OA
ENDROOT
BRANCH   1   5
ATOM      2  N   UNL     1      -1.255   2.110   0.000  0.00  0.00    +0.000 N 
ATOM      3  C   UNL     1      -0.695   1.670   0.000  0.00  0.00    +0.000 C 
ATOM      4  C   UNL     1      -1.115   1.297   0.000  0.00  0.00    +0.000 C 
ATOM      5  C   UNL     1       0.372   0.869   0.000  0.00  0.00    +0.000 C 
ATOM      6  C   UNL     1       0.234   1.686   0.000  0.00  0.00    +0.000 C 
ATOM      7  C   UNL     1      -0.144   1.297   0.000  0.00  0.00    +0.000 C 
ATOM      8  C   UNL     1      -1.015   0.962   0.000  0.00  0.00    +0.000 C 
ATOM      9  C   UNL     1      -1.635   0.585   0.000  0.00  0.00    +0.000 C 
ATOM     10  C   UNL     1      -2.019   2.421   0.000  0.00  0.00    +0.000 C 
BRANCH   2  11
ATOM     11  C   UNL     1      -1.165   2.930   0.000  0.00  0.00    +0.000 C 
ATOM     12  C   UNL     1      -1.830   3.418   0.000  0.00  0.00    +0.000 C 
ATOM     13  C   UNL     1      -0.410   3.262   0.000  0.00  0.00    +0.000 C 
ENDBRANCH   2  11
ENDBRANCH   1   5
BRANCH   1  15
ATOM     14  O   UNL     1      -0.454  -0.560   0.000  0.00  0.00    +0.000 OA
ATOM     15  C   UNL     1       0.371  -0.560   0.000  0.00  0.00    +0.000 C 
BRANCH  15  16
ATOM     16  C   UNL     1       0.783  -1.275   0.000  0.00  0.00    +0.000 C 
BRANCH  16  17
ATOM     17  C   UNL     1       0.369  -1.989   0.000  0.00  0.00    +0.000 A 
ATOM     18  C   UNL     1       0.781  -2.704   0.000  0.00  0.00    +0.000 A 
ATOM     19  C   UNL     1      -0.455  -1.989   0.000  0.00  0.00    +0.000 A 
ATOM     20  C   UNL     1       0.368  -3.418   0.000  0.00  0.00    +0.000 A 
ATOM     21  C   UNL     1      -0.869  -2.703   0.000  0.00  0.00    +0.000 A 
ATOM     22  C   UNL     1      -0.457  -3.417   0.000  0.00  0.00    +0.000 A 
ENDBRANCH  16  17
BRANCH  16  24
ATOM     23  O   UNL     1       2.019  -1.991   0.000  0.00  0.00    +0.000 OA
ATOM     24  C   UNL     1       1.608  -1.276   0.000  0.00  0.00    +0.000 C 
ENDBRANCH  16  24
ENDBRANCH  15  16
ENDBRANCH   1  15
TORSDOF 6
