REMARK  Name = 
REMARK  4 active torsions:
REMARK  status: ('A' for Active; 'I' for Inactive)
REMARK    1  A    between atoms: O_2  and  C_3
REMARK    2  A    between atoms: C_8  and  N_9
REMARK    3  A    between atoms: C_24  and  N_26
REMARK    4  A    between atoms: C_27  and  C_29
REMARK                            x       y       z     vdW  Elec       q    Type
REMARK                         _______ _______ _______ _____ _____    ______ ____
ROOT
ATOM      1  N   UNL     1       3.279   2.062   0.000  0.00  0.00    +0.000 NA
ATOM      2  C   UNL     1       3.279   1.238   0.000  0.00  0.00    +0.000 A 
ATOM      3  N   UNL     1       3.993   0.825   0.000  0.00  0.00    +0.000 NA
ATOM      4  C   UNL     1       3.993   0.000   0.000  0.00  0.00    +0.000 A 
ATOM      5  N   UNL     1       3.279  -0.412   0.000  0.00  0.00    +0.000 NA
ATOM      6  C   UNL     1       2.564   0.000   0.000  0.00  0.00    +0.000 A 
ATOM      7  C   UNL     1       2.564   0.825   0.000  0.00  0.00    +0.000 A 
ATOM      8  N   UNL     1       1.780   1.080   0.000  0.00  0.00    +0.000 NA
ATOM      9  C   UNL     1       1.295   0.412   0.000  0.00  0.00    +0.000 A 
ATOM     10  N   UNL     1       1.780  -0.255   0.000  0.00  0.00    +0.000 N 
ATOM     11  C   UNL     1       1.525  -1.040   0.000  0.00  0.00    +0.000 C 
ATOM     12  N   UNL     1       4.708  -0.412   0.000  0.00  0.00    +0.000 N 
ATOM     13  C   UNL     1       5.462  -0.077   0.000  0.00  0.00    +0.000 C 
ATOM     14  C   UNL     1       6.014  -0.690   0.000  0.00  0.00    +0.000 C 
ATOM     15  F   UNL     1       6.834  -0.604   0.000  0.00  0.00    +0.000 F 
ATOM     16  C   UNL     1       5.601  -1.405   0.000  0.00  0.00    +0.000 C 
ATOM     17  C   UNL     1       4.794  -1.233   0.000  0.00  0.00    +0.000 C 
ENDROOT
BRANCH   1  23
ATOM     18  C   UNL     1       2.478   3.296   0.000  0.00  0.00    +0.000 A 
ATOM     19  N   UNL     1       1.671   3.467   0.000  0.00  0.00    +0.000 NA
ATOM     20  N   UNL     1       1.259   2.752   0.000  0.00  0.00    +0.000 N 
ATOM     21  C   UNL     1       0.438   2.666   0.000  0.00  0.00    +0.000 C 
ATOM     22  C   UNL     1       1.811   2.139   0.000  0.00  0.00    +0.000 A 
ATOM     23  C   UNL     1       2.564   2.475   0.000  0.00  0.00    +0.000 A 
BRANCH  18  25
ATOM     24  C   UNL     1       3.876   3.593   0.000  0.00  0.00    +0.000 C 
ATOM     25  O   UNL     1       3.091   3.848   0.000  0.00  0.00    +0.000 OA
ENDBRANCH  18  25
ENDBRANCH   1  23
BRANCH  16  26
ATOM     26  N   UNL     1       5.937  -2.158   0.000  0.00  0.00    +0.000 NA
ATOM     27  C   UNL     1       6.757  -2.244   0.000  0.00  0.00    +0.000 C 
ATOM     28  O   UNL     1       7.242  -1.577   0.000  0.00  0.00    +0.000 OA
BRANCH  27  29
ATOM     29  C   UNL     1       7.093  -2.998   0.000  0.00  0.00    +0.000 C 
ATOM     30  C   UNL     1       7.913  -3.084   0.000  0.00  0.00    +0.000 C 
ENDBRANCH  27  29
ENDBRANCH  16  26
TORSDOF 4
