REMARK  Name = 
REMARK  10 active torsions:
REMARK  status: ('A' for Active; 'I' for Inactive)
REMARK    1  A    between atoms: C_2  and  C_3
REMARK    2  A    between atoms: C_3  and  C_4
REMARK    3  A    between atoms: C_3  and  C_20
REMARK    4  A    between atoms: C_3  and  N_26
REMARK    5  A    between atoms: C_4  and  O_5
REMARK    6  A    between atoms: O_5  and  C_6
REMARK    7  A    between atoms: C_6  and  C_8
REMARK    8  A    between atoms: C_10  and  O_18
REMARK    9  A    between atoms: C_11  and  O_16
REMARK   10  A    between atoms: C_12  and  O_14
REMARK                            x       y       z     vdW  Elec       q    Type
REMARK                         _______ _______ _______ _____ _____    ______ ____
ROOT
ATOM      1  O   UNL     1       3.572  -2.062   0.000  0.00  0.00    +0.000 OA
ENDROOT
BRANCH   1   2
ATOM      2  C   UNL     1       2.858  -2.475   0.000  0.00  0.00    +0.000 C 
ATOM      3  O   UNL     1       2.143  -2.062   0.000  0.00  0.00    +0.000 OA
BRANCH   2   4
ATOM      4  C   UNL     1       2.858  -3.300   0.000  0.00  0.00    +0.000 A 
ATOM      5  C   UNL     1       3.572  -3.712   0.000  0.00  0.00    +0.000 A 
ATOM      6  C   UNL     1       3.572  -4.537   0.000  0.00  0.00    +0.000 A 
ATOM      7  C   UNL     1       2.858  -4.950   0.000  0.00  0.00    +0.000 A 
ATOM      8  C   UNL     1       2.143  -4.537   0.000  0.00  0.00    +0.000 A 
ATOM      9  C   UNL     1       2.143  -3.712   0.000  0.00  0.00    +0.000 A 
BRANCH   7  10
ATOM     10  O   UNL     1       2.858  -5.775   0.000  0.00  0.00    +0.000 OA
ATOM     11  C   UNL     1       2.143  -6.188   0.000  0.00  0.00    +0.000 C 
ENDBRANCH   7  10
BRANCH   6  12
ATOM     12  O   UNL     1       4.287  -4.950   0.000  0.00  0.00    +0.000 OA
ATOM     13  C   UNL     1       4.287  -5.775   0.000  0.00  0.00    +0.000 C 
ENDBRANCH   6  12
BRANCH   8  14
ATOM     14  O   UNL     1       1.429  -4.950   0.000  0.00  0.00    +0.000 OA
ATOM     15  C   UNL     1       0.715  -4.537   0.000  0.00  0.00    +0.000 C 
ENDBRANCH   8  14
ENDBRANCH   2   4
ENDBRANCH   1   2
BRANCH   1  16
ATOM     16  C   UNL     1       3.572  -1.238   0.000  0.00  0.00    +0.000 C 
BRANCH  16  17
ATOM     17  C   UNL     1       4.287  -0.825   0.000  0.00  0.00    +0.000 C 
BRANCH  17  18
ATOM     18  C   UNL     1       5.001  -0.412   0.000  0.00  0.00    +0.000 A 
ATOM     19  C   UNL     1       5.001   0.412   0.000  0.00  0.00    +0.000 A 
ATOM     20  C   UNL     1       5.716   0.825   0.000  0.00  0.00    +0.000 A 
ATOM     21  C   UNL     1       6.430   0.412   0.000  0.00  0.00    +0.000 A 
ATOM     22  C   UNL     1       6.430  -0.412   0.000  0.00  0.00    +0.000 A 
ATOM     23  C   UNL     1       5.716  -0.825   0.000  0.00  0.00    +0.000 A 
ENDBRANCH  17  18
BRANCH  17  24
ATOM     24  N   UNL     1       4.699  -1.540   0.000  0.00  0.00    +0.000 NA
ATOM     25  C   UNL     1       4.287  -2.254   0.000  0.00  0.00    +0.000 C 
ATOM     26  C   UNL     1       5.524  -1.540   0.000  0.00  0.00    +0.000 C 
ENDBRANCH  17  24
BRANCH  17  28
ATOM     27  C   UNL     1       4.287   0.604   0.000  0.00  0.00    +0.000 C 
ATOM     28  C   UNL     1       3.874  -0.111   0.000  0.00  0.00    +0.000 C 
ENDBRANCH  17  28
ENDBRANCH  16  17
ENDBRANCH   1  16
TORSDOF 10
