REMARK  Name = 
REMARK  11 active torsions:
REMARK  status: ('A' for Active; 'I' for Inactive)
REMARK    1  A    between atoms: C_16  and  C_23
REMARK    2  A    between atoms: C_18  and  N_37
REMARK    3  A    between atoms: N_24  and  C_27
REMARK    4  A    between atoms: C_27  and  N_28
REMARK    5  A    between atoms: N_31  and  C_34
REMARK    6  A    between atoms: C_34  and  C_35
REMARK    7  A    between atoms: CA_45  and  N_58
REMARK    8  A    between atoms: CA_49  and  C_54
REMARK    9  A    between atoms: C_59  and  C_62
REMARK   10  A    between atoms: C_62  and  O_63
REMARK   11  A    between atoms: O_63  and  C_64
REMARK                            x       y       z     vdW  Elec       q    Type
REMARK                         _______ _______ _______ _____ _____    ______ ____
ROOT
ATOM      1  C   UNL     1      -6.106   2.762   0.000  0.00  0.00    +0.000 A 
ATOM      2  C   UNL     1      -6.106   1.931   0.000  0.00  0.00    +0.000 A 
ATOM      3  C   UNL     1      -5.358   1.516   0.000  0.00  0.00    +0.000 A 
ATOM      4  C   UNL     1      -4.652   1.931   0.000  0.00  0.00    +0.000 A 
ATOM      5  C   UNL     1      -4.652   2.762   0.000  0.00  0.00    +0.000 A 
ATOM      6  C   UNL     1      -5.358   3.178   0.000  0.00  0.00    +0.000 A 
ATOM      7  C   UNL     1      -3.946   1.516   0.000  0.00  0.00    +0.000 C 
ATOM      8  C   UNL     1      -3.198   1.931   0.000  0.00  0.00    +0.000 C 
ATOM      9  C   UNL     1      -3.198   2.762   0.000  0.00  0.00    +0.000 C 
ATOM     10  C   UNL     1      -3.946   3.178   0.000  0.00  0.00    +0.000 C 
ATOM     11  C   UNL     1      -2.492   1.516   0.000  0.00  0.00    +0.000 C 
ATOM     12  C   UNL     1      -1.786   1.931   0.000  0.00  0.00    +0.000 C 
ATOM     13  C   UNL     1      -1.786   2.762   0.000  0.00  0.00    +0.000 C 
ATOM     14  C   UNL     1      -2.492   3.178   0.000  0.00  0.00    +0.000 C 
ATOM     15  C   UNL     1      -1.038   1.516   0.000  0.00  0.00    +0.000 C 
ATOM     16  C   UNL     1      -0.332   1.931   0.000  0.00  0.00    +0.000 C 
ATOM     17  C   UNL     1      -0.332   2.762   0.000  0.00  0.00    +0.000 C 
ATOM     18  C   UNL     1      -1.038   3.178   0.000  0.00  0.00    +0.000 C 
ATOM     19  O   UNL     1      -5.358   0.685   0.000  0.00  0.00    +0.000 OA
ATOM     20  O   UNL     1      -2.492   0.685   0.000  0.00  0.00    +0.000 OA
ATOM     21  O   UNL     1      -3.946   0.685   0.000  0.00  0.00    +0.000 OA
ATOM     22  O   UNL     1      -1.038   0.685   0.000  0.00  0.00    +0.000 OA
ATOM     23  O   UNL     1       0.374   3.178   0.000  0.00  0.00    +0.000 OA
ATOM     24  O   UNL     1      -1.786   1.101   0.000  0.00  0.00    +0.000 OA
ATOM     25  C   UNL     1      -3.946   4.008   0.000  0.00  0.00    +0.000 C 
ATOM     26  O   UNL     1      -4.652   3.593   0.000  0.00  0.00    +0.000 OA
ENDROOT
BRANCH  16  27
ATOM     27  C   UNL     1       0.374   1.516   0.000  0.00  0.00    +0.000 C 
ATOM     28  N   UNL     1       1.121   1.931   0.000  0.00  0.00    +0.000 NA
ATOM     29  O   UNL     1       0.374   0.685   0.000  0.00  0.00    +0.000 OA
BRANCH  28  30
ATOM     30  C   UNL     1       1.828   1.516   0.000  0.00  0.00    +0.000 C 
BRANCH  30  31
ATOM     31  N   UNL     1       2.534   1.890   0.000  0.00  0.00    +0.000 NA
ATOM     32  C   UNL     1       3.240   1.516   0.000  0.00  0.00    +0.000 C 
ATOM     33  C   UNL     1       3.946   1.931   0.000  0.00  0.00    +0.000 C 
ATOM     34  N   UNL     1       3.946   2.762   0.000  0.00  0.00    +0.000 NA
ATOM     35  C   UNL     1       3.240   3.178   0.000  0.00  0.00    +0.000 C 
ATOM     36  C   UNL     1       2.534   2.762   0.000  0.00  0.00    +0.000 C 
BRANCH  34  37
ATOM     37  C   UNL     1       4.694   3.178   0.000  0.00  0.00    +0.000 C 
BRANCH  37  38
ATOM     38  C   UNL     1       5.400   2.762   0.000  0.00  0.00    +0.000 C 
ATOM     39  O   UNL     1       6.106   3.178   0.000  0.00  0.00    +0.000 OA
ENDBRANCH  37  38
ENDBRANCH  34  37
ENDBRANCH  30  31
ENDBRANCH  28  30
ENDBRANCH  16  27
BRANCH  18  40
ATOM     40  N   UNL     1      -1.038   4.008   0.000  0.00  0.00    +0.000 NA
ATOM     41  C   UNL     1      -1.786   4.423   0.000  0.00  0.00    +0.000 C 
ATOM     42  C   UNL     1      -0.332   4.423   0.000  0.00  0.00    +0.000 C 
ENDBRANCH  18  40
TORSDOF 6
REMARK  Name = 
REMARK  11 active torsions:
REMARK  status: ('A' for Active; 'I' for Inactive)
REMARK    1  A    between atoms: C_16  and  C_23
REMARK    2  A    between atoms: C_18  and  N_37
REMARK    3  A    between atoms: N_24  and  C_27
REMARK    4  A    between atoms: C_27  and  N_28
REMARK    5  A    between atoms: N_31  and  C_34
REMARK    6  A    between atoms: C_34  and  C_35
REMARK    7  A    between atoms: CA_45  and  N_58
REMARK    8  A    between atoms: CA_49  and  C_54
REMARK    9  A    between atoms: C_59  and  C_62
REMARK   10  A    between atoms: C_62  and  O_63
REMARK   11  A    between atoms: O_63  and  C_64
REMARK                            x       y       z     vdW  Elec       q    Type
REMARK                         _______ _______ _______ _____ _____    ______ ____
ROOT
ATOM      1  CA  UNL     1       1.214  -1.890   0.000  0.00  0.00    +0.000 C 
ATOM      2  C   UNL     1       1.214  -2.720   0.000  0.00  0.00    +0.000 C 
ATOM      3  N   UNL     1       2.045  -2.720   0.000  0.00  0.00    +0.000 N 
ATOM      4  C   UNL     1       2.045  -1.890   0.000  0.00  0.00    +0.000 C 
ATOM      5  CA  UNL     1       2.834  -2.970   0.000  0.00  0.00    +0.000 C 
ATOM      6  C   UNL     1       3.333  -2.305   0.000  0.00  0.00    +0.000 C 
ATOM      7  S   UNL     1       2.834  -1.641   0.000  0.00  0.00    +0.000 S 
ATOM      8  C   UNL     1       3.914  -2.887   0.000  0.00  0.00    +0.000 C 
ATOM      9  C   UNL     1       3.914  -1.724   0.000  0.00  0.00    +0.000 C 
ATOM     10  O   UNL     1       0.508  -3.136   0.000  0.00  0.00    +0.000 OA
ENDROOT
BRANCH   5  11
ATOM     11  C   UNL     1       3.125  -3.759   0.000  0.00  0.00    +0.000 C 
ATOM     12  O   UNL     1       3.956  -3.759   0.000  0.00  0.00    +0.000 OA
ATOM     13  OXT UNL     1       2.627  -4.423   0.000  0.00  0.00    +0.000 OA
ENDBRANCH   5  11
BRANCH   1  14
ATOM     14  N   UNL     1       0.508  -1.474   0.000  0.00  0.00    +0.000 NA
ATOM     15  C   UNL     1      -0.198  -1.890   0.000  0.00  0.00    +0.000 C 
ATOM     16  O   UNL     1      -0.198  -2.720   0.000  0.00  0.00    +0.000 OA
BRANCH  15  17
ATOM     17  C   UNL     1      -0.904  -1.474   0.000  0.00  0.00    +0.000 C 
BRANCH  17  18
ATOM     18  O   UNL     1      -1.610  -1.890   0.000  0.00  0.00    +0.000 OA
BRANCH  18  19
ATOM     19  C   UNL     1      -2.358  -1.474   0.000  0.00  0.00    +0.000 A 
ATOM     20  C   UNL     1      -2.358  -0.644   0.000  0.00  0.00    +0.000 A 
ATOM     21  C   UNL     1      -3.064  -0.228   0.000  0.00  0.00    +0.000 A 
ATOM     22  C   UNL     1      -3.770  -0.644   0.000  0.00  0.00    +0.000 A 
ATOM     23  C   UNL     1      -3.770  -1.474   0.000  0.00  0.00    +0.000 A 
ATOM     24  C   UNL     1      -3.064  -1.890   0.000  0.00  0.00    +0.000 A 
ENDBRANCH  18  19
ENDBRANCH  17  18
ENDBRANCH  15  17
ENDBRANCH   1  14
TORSDOF 5
