REMARK  Name = 
REMARK  7 active torsions:
REMARK  status: ('A' for Active; 'I' for Inactive)
REMARK    1  A    between atoms: CA_3  and  N_11
REMARK    2  A    between atoms: C_5  and  C_15
REMARK    3  A    between atoms: CA_6  and  C_16
REMARK    4  A    between atoms: C_7  and  C_9
REMARK    5  A    between atoms: N_8  and  C_15
REMARK    6  A    between atoms: C_9  and  C_12
REMARK    7  A    between atoms: N_21  and  O_29
REMARK                            x       y       z     vdW  Elec       q    Type
REMARK                         _______ _______ _______ _____ _____    ______ ____
ROOT
ATOM      1  N   UNL     1       0.277  -0.876   0.000  0.00  0.00    +0.000 N 
ATOM      2  C   UNL     1      -0.682  -0.876   0.000  0.00  0.00    +0.000 C 
ATOM      3  CA  UNL     1      -0.682  -0.064   0.000  0.00  0.00    +0.000 C 
ATOM      4  C   UNL     1       0.277  -0.050   0.000  0.00  0.00    +0.000 C 
ATOM      5  C   UNL     1       1.704  -0.876   0.000  0.00  0.00    +0.000 C 
ATOM      6  CA  UNL     1       0.988  -1.310   0.000  0.00  0.00    +0.000 C 
ATOM      7  S   UNL     1       0.988   0.313   0.000  0.00  0.00    +0.000 S 
ATOM      8  C   UNL     1       1.704  -0.074   0.000  0.00  0.00    +0.000 C 
ATOM      9  O   UNL     1      -1.198  -1.324   0.000  0.00  0.00    +0.000 OA
ENDROOT
BRANCH   3  10
ATOM     10  N   UNL     1      -1.413   0.356   0.000  0.00  0.00    +0.000 NA
ATOM     11  C   UNL     1      -2.129  -0.074   0.000  0.00  0.00    +0.000 C 
ATOM     12  O   UNL     1      -2.129  -0.718   0.000  0.00  0.00    +0.000 OA
BRANCH  11  13
ATOM     13  C   UNL     1      -2.816   0.356   0.000  0.00  0.00    +0.000 C 
ATOM     14  N   UNL     1      -2.816   1.124   0.000  0.00  0.00    +0.000 NA
BRANCH  13  15
ATOM     15  C   UNL     1      -3.532  -0.074   0.000  0.00  0.00    +0.000 A 
ATOM     16  N   UNL     1      -3.833  -0.823   0.000  0.00  0.00    +0.000 NA
ATOM     17  C   UNL     1      -4.625  -0.823   0.000  0.00  0.00    +0.000 A 
ATOM     18  C   UNL     1      -4.219   0.413   0.000  0.00  0.00    +0.000 A 
ATOM     19  S   UNL     1      -4.892  -0.064   0.000  0.00  0.00    +0.000 S 
ATOM     20  N   UNL     1      -5.141  -1.353   0.000  0.00  0.00    +0.000 NA
ENDBRANCH  13  15
BRANCH  14  21
ATOM     21  O   UNL     1      -2.119   1.515   0.000  0.00  0.00    +0.000 OA
ATOM     22  C   UNL     1      -2.119   2.456   0.000  0.00  0.00    +0.000 C 
ENDBRANCH  14  21
ENDBRANCH  11  13
ENDBRANCH   3  10
BRANCH   6  23
ATOM     23  C   UNL     1       0.978  -2.036   0.000  0.00  0.00    +0.000 C 
ATOM     24  O   UNL     1       1.704  -2.427   0.000  0.00  0.00    +0.000 OA
ATOM     25  OXT UNL     1       0.334  -2.456   0.000  0.00  0.00    +0.000 OA
ENDBRANCH   6  23
BRANCH   5  26
ATOM     26  C   UNL     1       2.353  -1.239   0.000  0.00  0.00    +0.000 C 
BRANCH  26  27
ATOM     27  N   UNL     1       2.969  -0.876   0.000  0.00  0.00    +0.000 N 
ATOM     28  C   UNL     1       3.795  -1.282   0.000  0.00  0.00    +0.000 A 
ATOM     29  C   UNL     1       4.487  -0.876   0.000  0.00  0.00    +0.000 A 
ATOM     30  C   UNL     1       2.969  -0.050   0.000  0.00  0.00    +0.000 A 
ATOM     31  C   UNL     1       4.038  -2.112   0.000  0.00  0.00    +0.000 C 
ATOM     32  C   UNL     1       3.771   0.327   0.000  0.00  0.00    +0.000 A 
ATOM     33  C   UNL     1       4.926  -2.112   0.000  0.00  0.00    +0.000 C 
ATOM     34  C   UNL     1       4.487  -0.050   0.000  0.00  0.00    +0.000 A 
ATOM     35  C   UNL     1       5.141  -1.282   0.000  0.00  0.00    +0.000 C 
ENDBRANCH  26  27
ENDBRANCH   5  26
TORSDOF 7
