REMARK  Name = 
REMARK  3 active torsions:
REMARK  status: ('A' for Active; 'I' for Inactive)
REMARK    1  A    between atoms: C_1  and  C_2
REMARK    2  A    between atoms: C_4  and  N_13
REMARK    3  A    between atoms: C_6  and  N_10
REMARK                            x       y       z     vdW  Elec       q    Type
REMARK                         _______ _______ _______ _____ _____    ______ ____
ROOT
ATOM      1  C   UNL     1       0.715  -0.586   0.000  0.00  0.00    +0.000 A 
ATOM      2  C   UNL     1       0.013  -1.020   0.000  0.00  0.00    +0.000 A 
ATOM      3  C   UNL     1      -0.715  -0.632   0.000  0.00  0.00    +0.000 A 
ATOM      4  C   UNL     1      -0.741   0.194   0.000  0.00  0.00    +0.000 A 
ATOM      5  C   UNL     1      -0.040   0.629   0.000  0.00  0.00    +0.000 A 
ATOM      6  C   UNL     1       0.688   0.237   0.000  0.00  0.00    +0.000 A 
ATOM      7  C   UNL     1       0.040  -1.843   0.000  0.00  0.00    +0.000 C 
ENDROOT
BRANCH   1   8
ATOM      8  C   UNL     1       1.444  -0.974   0.000  0.00  0.00    +0.000 C 
ATOM      9  O   UNL     1       1.469  -1.800   0.000  0.00  0.00    +0.000 OA
ATOM     10  N   UNL     1       2.144  -0.543   0.000  0.00  0.00    +0.000 NA
ENDBRANCH   1   8
BRANCH   5  11
ATOM     11  N   UNL     1      -0.065   1.455   0.000  0.00  0.00    +0.000 N 
ATOM     12  O   UNL     1      -0.793   1.843   0.000  0.00  0.00    +0.000 OA
ATOM     13  O   UNL     1       0.637   1.889   0.000  0.00  0.00    +0.000 OA
ENDBRANCH   5  11
BRANCH   3  14
ATOM     14  N   UNL     1      -1.416  -1.063   0.000  0.00  0.00    +0.000 N 
ATOM     15  O   UNL     1      -1.391  -1.889   0.000  0.00  0.00    +0.000 OA
ATOM     16  O   UNL     1      -2.144  -0.675   0.000  0.00  0.00    +0.000 OA
ENDBRANCH   3  14
TORSDOF 3
