REMARK  Name = 
REMARK  2 active torsions:
REMARK  status: ('A' for Active; 'I' for Inactive)
REMARK    1  A    between atoms: C_24  and  O_45
REMARK    2  A    between atoms: C_37  and  O_42
REMARK                            x       y       z     vdW  Elec       q    Type
REMARK                         _______ _______ _______ _____ _____    ______ ____
ROOT
ATOM      1  C   UNL     1       1.217   1.996   0.000  0.00  0.00    +0.000 A 
ATOM      2  C   UNL     1       1.216   3.648   0.000  0.00  0.00    +0.000 A 
ATOM      3  C   UNL     1       0.503   2.409   0.000  0.00  0.00    +0.000 A 
ATOM      4  C   UNL     1       0.507   3.236   0.000  0.00  0.00    +0.000 A 
ATOM      5  C   UNL     1      -0.203   3.650   0.000  0.00  0.00    +0.000 C 
ATOM      6  C   UNL     1      -0.921   3.243   0.000  0.00  0.00    +0.000 C 
ATOM      7  N   UNL     1      -0.925   2.416   0.000  0.00  0.00    +0.000 NA
ATOM      8  C   UNL     1      -0.211   1.997   0.000  0.00  0.00    +0.000 C 
ATOM      9  C   UNL     1       1.930   3.239   0.000  0.00  0.00    +0.000 A 
ATOM     10  C   UNL     1       1.935   2.413   0.000  0.00  0.00    +0.000 A 
ATOM     11  O   UNL     1       2.722   2.163   0.000  0.00  0.00    +0.000 OA
ATOM     12  C   UNL     1       3.204   2.834   0.000  0.00  0.00    +0.000 C 
ATOM     13  O   UNL     1       2.714   3.499   0.000  0.00  0.00    +0.000 OA
ATOM     14  C   UNL     1       0.018   1.127   0.000  0.00  0.00    +0.000 C 
ATOM     15  C   UNL     1      -0.450   0.402   0.000  0.00  0.00    +0.000 A 
ATOM     16  C   UNL     1      -1.249   0.622   0.000  0.00  0.00    +0.000 A 
ATOM     17  C   UNL     1      -1.835   0.040   0.000  0.00  0.00    +0.000 A 
ATOM     18  C   UNL     1      -1.624  -0.760   0.000  0.00  0.00    +0.000 A 
ATOM     19  C   UNL     1      -0.821  -0.976   0.000  0.00  0.00    +0.000 A 
ATOM     20  C   UNL     1      -0.238  -0.392   0.000  0.00  0.00    +0.000 A 
ATOM     21  O   UNL     1      -2.129  -1.270   0.000  0.00  0.00    +0.000 OA
ATOM     22  C   UNL     1      -1.555  -2.124   0.000  0.00  0.00    +0.000 A 
ATOM     23  C   UNL     1      -1.971  -2.833   0.000  0.00  0.00    +0.000 A 
ATOM     24  C   UNL     1      -1.563  -3.544   0.000  0.00  0.00    +0.000 A 
ATOM     25  C   UNL     1      -0.742  -3.547   0.000  0.00  0.00    +0.000 A 
ATOM     26  C   UNL     1      -0.330  -2.833   0.000  0.00  0.00    +0.000 A 
ATOM     27  C   UNL     1      -0.739  -2.124   0.000  0.00  0.00    +0.000 A 
ATOM     28  C   UNL     1       0.493  -2.832   0.000  0.00  0.00    +0.000 C 
ATOM     29  C   UNL     1       1.205  -2.415   0.000  0.00  0.00    +0.000 C 
ATOM     30  N   UNL     1       1.921  -2.826   0.000  0.00  0.00    +0.000 NA
ATOM     31  C   UNL     1       2.631  -2.413   0.000  0.00  0.00    +0.000 C 
ATOM     32  C   UNL     1       2.631  -1.588   0.000  0.00  0.00    +0.000 C 
ATOM     33  C   UNL     1       1.198  -1.592   0.000  0.00  0.00    +0.000 A 
ATOM     34  C   UNL     1       1.914  -1.178   0.000  0.00  0.00    +0.000 A 
ATOM     35  C   UNL     1       1.912  -0.353   0.000  0.00  0.00    +0.000 A 
ATOM     36  C   UNL     1       1.196   0.059   0.000  0.00  0.00    +0.000 A 
ATOM     37  C   UNL     1       0.479  -0.360   0.000  0.00  0.00    +0.000 A 
ATOM     38  C   UNL     1       0.484  -1.184   0.000  0.00  0.00    +0.000 A 
ATOM     39  C   UNL     1       1.924  -3.650   0.000  0.00  0.00    +0.000 C 
ATOM     40  O   UNL     1       0.489   0.944   0.000  0.00  0.00    +0.000 OA
ATOM     41  C   UNL     1      -1.642   2.012   0.000  0.00  0.00    +0.000 C 
ENDROOT
BRANCH  36  42
ATOM     42  O   UNL     1       1.188   0.886   0.000  0.00  0.00    +0.000 OA
ATOM     43  C   UNL     1       1.900   1.302   0.000  0.00  0.00    +0.000 C 
ENDBRANCH  36  42
BRANCH  23  44
ATOM     44  O   UNL     1      -2.795  -2.829   0.000  0.00  0.00    +0.000 OA
ATOM     45  C   UNL     1      -3.204  -2.113   0.000  0.00  0.00    +0.000 C 
ENDBRANCH  23  44
TORSDOF 2
