REMARK  Name = 
REMARK  4 active torsions:
REMARK  status: ('A' for Active; 'I' for Inactive)
REMARK    1  A    between atoms: N_2  and  N_3
REMARK    2  A    between atoms: N_3  and  C_7
REMARK    3  A    between atoms: C_4  and  C_5
REMARK    4  A    between atoms: C_6  and  C_7
REMARK                            x       y       z     vdW  Elec       q    Type
REMARK                         _______ _______ _______ _____ _____    ______ ____
ROOT
ATOM      1  O   UNL     1       1.072   1.031   0.000  0.00  0.00    +0.000 OA
ATOM      2  N   UNL     1       0.357  -0.206   0.000  0.00  0.00    +0.000 NA
ATOM      3  C   UNL     1       1.072   0.206   0.000  0.00  0.00    +0.000 C 
ENDROOT
BRANCH   3   4
ATOM      4  C   UNL     1       1.786  -0.206   0.000  0.00  0.00    +0.000 A 
ATOM      5  C   UNL     1       2.501   0.206   0.000  0.00  0.00    +0.000 A 
ATOM      6  C   UNL     1       1.786  -1.031   0.000  0.00  0.00    +0.000 A 
ATOM      7  C   UNL     1       3.215  -0.206   0.000  0.00  0.00    +0.000 A 
ATOM      8  C   UNL     1       2.501  -1.444   0.000  0.00  0.00    +0.000 A 
ATOM      9  C   UNL     1       3.215  -1.031   0.000  0.00  0.00    +0.000 A 
ENDBRANCH   3   4
BRANCH   2  10
ATOM     10  N   UNL     1      -0.357   0.206   0.000  0.00  0.00    +0.000 NA
BRANCH  10  11
ATOM     11  C   UNL     1      -1.072  -0.206   0.000  0.00  0.00    +0.000 C 
ATOM     12  C   UNL     1      -1.072  -1.031   0.000  0.00  0.00    +0.000 C 
BRANCH  11  13
ATOM     13  C   UNL     1      -1.786   0.206   0.000  0.00  0.00    +0.000 A 
ATOM     14  C   UNL     1      -2.501  -0.206   0.000  0.00  0.00    +0.000 A 
ATOM     15  C   UNL     1      -1.786   1.031   0.000  0.00  0.00    +0.000 A 
ATOM     16  C   UNL     1      -3.215   0.206   0.000  0.00  0.00    +0.000 A 
ATOM     17  C   UNL     1      -2.501   1.444   0.000  0.00  0.00    +0.000 A 
ATOM     18  C   UNL     1      -3.215   1.031   0.000  0.00  0.00    +0.000 A 
ENDBRANCH  11  13
ENDBRANCH  10  11
ENDBRANCH   2  10
TORSDOF 4
