REMARK  Name = 
REMARK  6 active torsions:
REMARK  status: ('A' for Active; 'I' for Inactive)
REMARK    1  A    between atoms: C_7  and  C_13
REMARK    2  A    between atoms: C_8  and  O_14
REMARK    3  A    between atoms: O_14  and  C_17
REMARK    4  A    between atoms: C_20  and  O_23
REMARK    5  A    between atoms: O_23  and  C_27
REMARK    6  A    between atoms: C_25  and  C_30
REMARK                            x       y       z     vdW  Elec       q    Type
REMARK                         _______ _______ _______ _____ _____    ______ ____
ROOT
ATOM      1  C   UNL     1      -2.096  -1.225   0.000  0.00  0.00    +0.000 C 
ATOM      2  C   UNL     1      -2.518  -0.513   0.000  0.00  0.00    +0.000 C 
ATOM      3  O   UNL     1      -2.513  -1.937   0.000  0.00  0.00    +0.000 OA
ATOM      4  C   UNL     1      -3.341  -0.517   0.000  0.00  0.00    +0.000 C 
ATOM      5  C   UNL     1      -3.336  -1.940   0.000  0.00  0.00    +0.000 C 
ATOM      6  C   UNL     1      -3.747  -1.232   0.000  0.00  0.00    +0.000 C 
ATOM      7  O   UNL     1      -3.759   0.195   0.000  0.00  0.00    +0.000 OA
ATOM      8  O   UNL     1      -4.571  -1.236   0.000  0.00  0.00    +0.000 OA
ENDROOT
BRANCH   5   9
ATOM      9  C   UNL     1      -3.746  -2.656   0.000  0.00  0.00    +0.000 C 
ATOM     10  O   UNL     1      -3.332  -3.371   0.000  0.00  0.00    +0.000 OA
ENDBRANCH   5   9
BRANCH   1  11
ATOM     11  O   UNL     1      -1.203  -1.204   0.000  0.00  0.00    +0.000 OA
BRANCH  11  19
ATOM     12  C   UNL     1       0.936  -1.629   0.000  0.00  0.00    +0.000 A 
ATOM     13  C   UNL     1       0.932  -2.450   0.000  0.00  0.00    +0.000 A 
ATOM     14  O   UNL     1       1.647  -1.215   0.000  0.00  0.00    +0.000 OA
ATOM     15  C   UNL     1       0.224  -1.209   0.000  0.00  0.00    +0.000 A 
ATOM     16  C   UNL     1       1.641  -2.873   0.000  0.00  0.00    +0.000 C 
ATOM     17  C   UNL     1       0.217  -2.868   0.000  0.00  0.00    +0.000 A 
ATOM     18  C   UNL     1       2.370  -1.635   0.000  0.00  0.00    +0.000 C 
ATOM     19  C   UNL     1      -0.495  -1.624   0.000  0.00  0.00    +0.000 A 
ATOM     20  C   UNL     1       2.366  -2.455   0.000  0.00  0.00    +0.000 C 
ATOM     21  O   UNL     1       1.638  -3.704   0.000  0.00  0.00    +0.000 OA
ATOM     22  C   UNL     1      -0.498  -2.444   0.000  0.00  0.00    +0.000 A 
ATOM     23  O   UNL     1       0.214  -3.698   0.000  0.00  0.00    +0.000 OA
BRANCH  18  24
ATOM     24  C   UNL     1       3.092  -1.220   0.000  0.00  0.00    +0.000 A 
ATOM     25  C   UNL     1       3.095  -0.390   0.000  0.00  0.00    +0.000 A 
ATOM     26  C   UNL     1       3.800  -1.640   0.000  0.00  0.00    +0.000 A 
ATOM     27  C   UNL     1       3.807   0.018   0.000  0.00  0.00    +0.000 A 
ATOM     28  C   UNL     1       4.522  -1.226   0.000  0.00  0.00    +0.000 A 
ATOM     29  C   UNL     1       4.525  -0.395   0.000  0.00  0.00    +0.000 A 
ATOM     30  O   UNL     1       5.240   0.012   0.000  0.00  0.00    +0.000 OA
ENDBRANCH  18  24
ENDBRANCH  11  19
ENDBRANCH   1  11
BRANCH   2  31
ATOM     31  O   UNL     1      -2.165   0.549   0.000  0.00  0.00    +0.000 OA
BRANCH  31  32
ATOM     32  C   UNL     1      -3.152   1.540   0.000  0.00  0.00    +0.000 C 
ATOM     33  C   UNL     1      -3.976   1.512   0.000  0.00  0.00    +0.000 C 
ATOM     34  O   UNL     1      -2.773   2.274   0.000  0.00  0.00    +0.000 OA
ATOM     35  C   UNL     1      -4.417   2.207   0.000  0.00  0.00    +0.000 C 
ATOM     36  O   UNL     1      -4.358   0.781   0.000  0.00  0.00    +0.000 OA
ATOM     37  C   UNL     1      -3.215   2.970   0.000  0.00  0.00    +0.000 C 
ATOM     38  C   UNL     1      -4.035   2.935   0.000  0.00  0.00    +0.000 C 
ATOM     39  O   UNL     1      -5.240   2.172   0.000  0.00  0.00    +0.000 OA
ATOM     40  C   UNL     1      -2.836   3.704   0.000  0.00  0.00    +0.000 C 
ATOM     41  O   UNL     1      -4.479   3.630   0.000  0.00  0.00    +0.000 OA
ENDBRANCH  31  32
ENDBRANCH   2  31
TORSDOF 6
