REMARK  Name = 
REMARK  5 active torsions:
REMARK  status: ('A' for Active; 'I' for Inactive)
REMARK    1  A    between atoms: N_8  and  C_12
REMARK    2  A    between atoms: N_9  and  C_13
REMARK    3  A    between atoms: C_14  and  C_19
REMARK    4  A    between atoms: C_17  and  C_20
REMARK    5  A    between atoms: C_18  and  C_21
REMARK                            x       y       z     vdW  Elec       q    Type
REMARK                         _______ _______ _______ _____ _____    ______ ____
ROOT
ATOM      1 CL   UNL     1       5.687  -5.410   0.000  0.00  0.00    +0.000 Cl
ATOM      2  C   UNL     1       5.687  -4.585   0.000  0.00  0.00    +0.000 A 
ATOM      3  C   UNL     1       6.384  -4.138   0.000  0.00  0.00    +0.000 A 
ATOM      4  C   UNL     1       4.990  -4.138   0.000  0.00  0.00    +0.000 A 
ATOM      5  C   UNL     1       5.687  -2.900   0.000  0.00  0.00    +0.000 A 
ATOM      6  C   UNL     1       6.384  -3.312   0.000  0.00  0.00    +0.000 A 
ATOM      7  C   UNL     1       4.990  -3.312   0.000  0.00  0.00    +0.000 A 
ENDROOT
BRANCH   3   9
ATOM      8  O   UNL     1       7.828  -3.312   0.000  0.00  0.00    +0.000 OA
ATOM      9  N   UNL     1       7.124  -4.585   0.000  0.00  0.00    +0.000 NA
ATOM     10  C   UNL     1       7.828  -4.180   0.000  0.00  0.00    +0.000 C 
BRANCH  10  13
ATOM     11  O   UNL     1       8.525  -5.410   0.000  0.00  0.00    +0.000 OA
ATOM     12  O   UNL     1       9.265  -4.180   0.000  0.00  0.00    +0.000 OA
ATOM     13  C   UNL     1       8.525  -4.585   0.000  0.00  0.00    +0.000 C 
ENDBRANCH  10  13
ENDBRANCH   3   9
BRANCH   4  15
ATOM     14  O   UNL     1       3.554  -3.312   0.000  0.00  0.00    +0.000 OA
ATOM     15  N   UNL     1       4.251  -4.585   0.000  0.00  0.00    +0.000 NA
ATOM     16  C   UNL     1       3.554  -4.180   0.000  0.00  0.00    +0.000 C 
BRANCH  16  19
ATOM     17  O   UNL     1       2.849  -5.410   0.000  0.00  0.00    +0.000 OA
ATOM     18  O   UNL     1       2.152  -4.180   0.000  0.00  0.00    +0.000 OA
ATOM     19  C   UNL     1       2.849  -4.550   0.000  0.00  0.00    +0.000 C 
ENDBRANCH  16  19
ENDBRANCH   4  15
BRANCH   5  21
ATOM     20  N   UNL     1       5.687  -1.257   0.000  0.00  0.00    +0.000 NA
ATOM     21  C   UNL     1       5.687  -2.082   0.000  0.00  0.00    +0.000 C 
ENDBRANCH   5  21
TORSDOF 5
