REMARK  Name = 
REMARK  6 active torsions:
REMARK  status: ('A' for Active; 'I' for Inactive)
REMARK    1  A    between atoms: C_2  and  N_4
REMARK    2  A    between atoms: C_8  and  C_9
REMARK    3  A    between atoms: C_10  and  C_11
REMARK    4  A    between atoms: C_11  and  O_12
REMARK    5  A    between atoms: O_12  and  C_13
REMARK    6  A    between atoms: C_19  and  C_20
REMARK                            x       y       z     vdW  Elec       q    Type
REMARK                         _______ _______ _______ _____ _____    ______ ____
ROOT
ATOM      1  C   UNL     1      -2.060  -1.652   0.000  0.00  0.00    +0.000 A 
ATOM      2  C   UNL     1      -2.673  -2.204   0.000  0.00  0.00    +0.000 A 
ATOM      3  C   UNL     1      -3.458  -1.949   0.000  0.00  0.00    +0.000 A 
ATOM      4  C   UNL     1      -3.629  -1.142   0.000  0.00  0.00    +0.000 A 
ATOM      5  C   UNL     1      -3.016  -0.590   0.000  0.00  0.00    +0.000 A 
ATOM      6  N   UNL     1      -2.231  -0.845   0.000  0.00  0.00    +0.000 NA
ENDROOT
BRANCH   1  11
ATOM      7  N   UNL     1      -0.608  -1.422   0.000  0.00  0.00    +0.000 N 
ATOM      8  N   UNL     1       0.060  -1.907   0.000  0.00  0.00    +0.000 NA
ATOM      9  C   UNL     1      -0.195  -2.692   0.000  0.00  0.00    +0.000 A 
ATOM     10  C   UNL     1      -1.020  -2.692   0.000  0.00  0.00    +0.000 A 
ATOM     11  C   UNL     1      -1.275  -1.907   0.000  0.00  0.00    +0.000 A 
BRANCH   7  13
ATOM     12  C   UNL     1       0.107  -0.185   0.000  0.00  0.00    +0.000 C 
ATOM     13  C   UNL     1      -0.608  -0.597   0.000  0.00  0.00    +0.000 C 
ATOM     14  C   UNL     1      -1.322  -0.185   0.000  0.00  0.00    +0.000 C 
ENDBRANCH   7  13
ENDBRANCH   1  11
BRANCH   2  15
ATOM     15  C   UNL     1      -2.501  -3.011   0.000  0.00  0.00    +0.000 C 
BRANCH  15  16
ATOM     16  O   UNL     1      -1.717  -3.266   0.000  0.00  0.00    +0.000 OA
BRANCH  16  17
ATOM     17  C   UNL     1      -1.545  -4.073   0.000  0.00  0.00    +0.000 A 
ATOM     18  C   UNL     1      -0.761  -4.328   0.000  0.00  0.00    +0.000 A 
ATOM     19  C   UNL     1      -0.589  -5.135   0.000  0.00  0.00    +0.000 A 
ATOM     20  C   UNL     1      -1.202  -5.687   0.000  0.00  0.00    +0.000 A 
ATOM     21  C   UNL     1      -1.987  -5.432   0.000  0.00  0.00    +0.000 A 
ATOM     22  O   UNL     1      -2.600  -5.984   0.000  0.00  0.00    +0.000 OA
ATOM     23  C   UNL     1      -2.158  -4.625   0.000  0.00  0.00    +0.000 A 
BRANCH  23  24
ATOM     24  C   UNL     1      -2.943  -4.370   0.000  0.00  0.00    +0.000 C 
ATOM     25  O   UNL     1      -3.115  -3.563   0.000  0.00  0.00    +0.000 OA
ENDBRANCH  23  24
ENDBRANCH  16  17
ENDBRANCH  15  16
ENDBRANCH   2  15
TORSDOF 6
