REMARK  Name = 
REMARK  0 active torsions:
REMARK  status: ('A' for Active; 'I' for Inactive)
REMARK                            x       y       z     vdW  Elec       q    Type
REMARK                         _______ _______ _______ _____ _____    ______ ____
ROOT
ATOM      1  C   UNL     1      -0.012  -1.449   0.000  0.00  0.00    +0.000 A 
ATOM      2  C   UNL     1       0.696  -1.861   0.000  0.00  0.00    +0.000 A 
ATOM      3  C   UNL     1       1.414  -1.449   0.000  0.00  0.00    +0.000 A 
ATOM      4  N   UNL     1       1.414  -0.625   0.000  0.00  0.00    +0.000 NA
ATOM      5  C   UNL     1      -0.012  -0.625   0.000  0.00  0.00    +0.000 A 
ATOM      6  C   UNL     1       0.696  -0.213   0.000  0.00  0.00    +0.000 A 
ATOM      7  C   UNL     1       0.692   0.604   0.000  0.00  0.00    +0.000 C 
ATOM      8  C   UNL     1      -0.019   1.015   0.000  0.00  0.00    +0.000 C 
ATOM      9  C   UNL     1      -0.725  -0.225   0.000  0.00  0.00    +0.000 C 
ATOM     10  C   UNL     1      -0.724   0.600   0.000  0.00  0.00    +0.000 C 
ATOM     11  C   UNL     1      -1.432   1.014   0.000  0.00  0.00    +0.000 C 
ATOM     12  C   UNL     1      -2.147   0.602   0.000  0.00  0.00    +0.000 C 
ATOM     13  C   UNL     1      -2.148  -0.223   0.000  0.00  0.00    +0.000 C 
ATOM     14  N   UNL     1      -1.435  -0.637   0.000  0.00  0.00    +0.000 NA
ATOM     15  C   UNL     1       0.017   0.213   0.000  0.00  0.00    +0.000 C 
ATOM     16  C   UNL     1      -0.026   1.875   0.000  0.00  0.00    +0.000 C 
ATOM     17  O   UNL     1       2.148  -1.875   0.000  0.00  0.00    +0.000 OA
ATOM     18  C   UNL     1       0.716   1.449   0.000  0.00  0.00    +0.000 C 
ATOM     19  C   UNL     1       1.545   1.674   0.000  0.00  0.00    +0.000 C 
ENDROOT
TORSDOF 0
