REMARK  Name = 
REMARK  12 active torsions:
REMARK  status: ('A' for Active; 'I' for Inactive)
REMARK    1  A    between atoms: C_2  and  C_3
REMARK    2  A    between atoms: C_2  and  N_10
REMARK    3  A    between atoms: N_5  and  C_6
REMARK    4  A    between atoms: C_6  and  C_7
REMARK    5  A    between atoms: C_11  and  C_13
REMARK    6  A    between atoms: C_13  and  N_14
REMARK    7  A    between atoms: C_15  and  C_17
REMARK    8  A    between atoms: C_22  and  C_24
REMARK    9  A    between atoms: C_29  and  C_31
REMARK   10  A    between atoms: C_31  and  C_32
REMARK   11  A    between atoms: C_31  and  N_40
REMARK   12  A    between atoms: C_32  and  C_33
REMARK                            x       y       z     vdW  Elec       q    Type
REMARK                         _______ _______ _______ _____ _____    ______ ____
ROOT
ATOM      1  C   UNL     1       4.790   5.815   0.000  0.00  0.00    +0.000 C 
ATOM      2  C   UNL     1       5.070   5.040   0.000  0.00  0.00    +0.000 C 
ATOM      3  C   UNL     1       5.895   5.067   0.000  0.00  0.00    +0.000 C 
ATOM      4  C   UNL     1       6.124   5.859   0.000  0.00  0.00    +0.000 C 
ATOM      5  N   UNL     1       5.441   6.322   0.000  0.00  0.00    +0.000 N 
ATOM      6  C   UNL     1       5.413   7.147   0.000  0.00  0.00    +0.000 C 
ATOM      7  O   UNL     1       4.685   7.535   0.000  0.00  0.00    +0.000 OA
ATOM      8  O   UNL     1       6.402   4.416   0.000  0.00  0.00    +0.000 OA
ENDROOT
BRANCH   6   9
ATOM      9  C   UNL     1       6.114   7.582   0.000  0.00  0.00    +0.000 C 
ATOM     10  C   UNL     1       6.878   7.272   0.000  0.00  0.00    +0.000 C 
ATOM     11  C   UNL     1       7.409   7.903   0.000  0.00  0.00    +0.000 C 
ATOM     12  C   UNL     1       6.973   8.604   0.000  0.00  0.00    +0.000 C 
ATOM     13  N   UNL     1       6.173   8.405   0.000  0.00  0.00    +0.000 N 
ATOM     14  C   UNL     1       5.542   8.937   0.000  0.00  0.00    +0.000 C 
ATOM     15  O   UNL     1       4.766   8.656   0.000  0.00  0.00    +0.000 OA
BRANCH  14  16
ATOM     16  C   UNL     1       5.686   9.749   0.000  0.00  0.00    +0.000 C 
BRANCH  16  17
ATOM     17  N   UNL     1       6.462  10.030   0.000  0.00  0.00    +0.000 NA
ATOM     18  C   UNL     1       6.607  10.842   0.000  0.00  0.00    +0.000 C 
ATOM     19  O   UNL     1       7.383  11.123   0.000  0.00  0.00    +0.000 OA
ATOM     20  C   UNL     1       5.976  11.373   0.000  0.00  0.00    +0.000 C 
ENDBRANCH  16  17
BRANCH  16  21
ATOM     21  C   UNL     1       5.055  10.280   0.000  0.00  0.00    +0.000 C 
BRANCH  21  22
ATOM     22  C   UNL     1       4.279  10.000   0.000  0.00  0.00    +0.000 A 
ATOM     23  C   UNL     1       4.135   9.188   0.000  0.00  0.00    +0.000 A 
ATOM     24  C   UNL     1       3.359   8.907   0.000  0.00  0.00    +0.000 A 
ATOM     25  C   UNL     1       2.728   9.438   0.000  0.00  0.00    +0.000 A 
ATOM     26  C   UNL     1       2.873  10.250   0.000  0.00  0.00    +0.000 A 
ATOM     27  C   UNL     1       3.648  10.531   0.000  0.00  0.00    +0.000 A 
ATOM     28  O   UNL     1       1.952   9.157   0.000  0.00  0.00    +0.000 OA
ENDBRANCH  21  22
ENDBRANCH  16  21
ENDBRANCH  14  16
ENDBRANCH   6   9
BRANCH   1  30
ATOM     29  N   UNL     1       3.799   6.845   0.000  0.00  0.00    +0.000 NA
ATOM     30  C   UNL     1       3.997   6.044   0.000  0.00  0.00    +0.000 C 
ATOM     31  O   UNL     1       3.402   5.472   0.000  0.00  0.00    +0.000 OA
BRANCH  29  32
ATOM     32  C   UNL     1       3.006   7.074   0.000  0.00  0.00    +0.000 C 
BRANCH  32  34
ATOM     33  N   UNL     1       1.619   6.731   0.000  0.00  0.00    +0.000 NA
ATOM     34  C   UNL     1       2.412   6.502   0.000  0.00  0.00    +0.000 C 
ATOM     35  O   UNL     1       2.610   5.701   0.000  0.00  0.00    +0.000 OA
BRANCH  33  37
ATOM     36  C   UNL     1       1.223   5.358   0.000  0.00  0.00    +0.000 C 
ATOM     37  C   UNL     1       1.024   6.159   0.000  0.00  0.00    +0.000 C 
BRANCH  37  38
ATOM     38  C   UNL     1       0.232   6.387   0.000  0.00  0.00    +0.000 C 
ATOM     39  O   UNL     1       0.034   7.188   0.000  0.00  0.00    +0.000 OA
ATOM     40  N   UNL     1      -0.363   5.815   0.000  0.00  0.00    +0.000 NA
BRANCH  40  41
ATOM     41  C   UNL     1      -1.155   6.044   0.000  0.00  0.00    +0.000 C 
BRANCH  41  42
ATOM     42  C   UNL     1      -1.750   5.472   0.000  0.00  0.00    +0.000 C 
ATOM     43  O   UNL     1      -2.542   5.701   0.000  0.00  0.00    +0.000 OA
ATOM     44  N   UNL     1      -1.552   4.671   0.000  0.00  0.00    +0.000 NA
ENDBRANCH  41  42
ENDBRANCH  40  41
ENDBRANCH  37  38
ENDBRANCH  33  37
ENDBRANCH  32  34
ENDBRANCH  29  32
ENDBRANCH   1  30
TORSDOF 12
