REMARK  Name = 
REMARK  1 active torsions:
REMARK  status: ('A' for Active; 'I' for Inactive)
REMARK    1  A    between atoms: C_9  and  C_14
REMARK                            x       y       z     vdW  Elec       q    Type
REMARK                         _______ _______ _______ _____ _____    ______ ____
ROOT
ATOM      1 BR   UNL     1       2.148  -1.236   0.000  0.00  0.00    +0.000 Br
ATOM      2  O   UNL     1      -0.392  -2.979   0.000  0.00  0.00    +0.000 OA
ATOM      3  N   UNL     1      -1.385  -1.996   0.000  0.00  0.00    +0.000 NA
ATOM      4  N   UNL     1       0.845  -1.906   0.000  0.00  0.00    +0.000 NA
ATOM      5  C   UNL     1      -0.589  -0.322   0.000  0.00  0.00    +0.000 C 
ATOM      6  C   UNL     1       0.059  -0.834   0.000  0.00  0.00    +0.000 C 
ATOM      7  C   UNL     1      -1.392  -0.510   0.000  0.00  0.00    +0.000 C 
ATOM      8  C   UNL     1       0.063  -1.658   0.000  0.00  0.00    +0.000 C 
ATOM      9  C   UNL     1      -1.746  -1.255   0.000  0.00  0.00    +0.000 C 
ATOM     10  C   UNL     1       0.838  -0.578   0.000  0.00  0.00    +0.000 C 
ATOM     11  C   UNL     1      -0.580  -2.176   0.000  0.00  0.00    +0.000 C 
ATOM     12  C   UNL     1       1.323  -1.240   0.000  0.00  0.00    +0.000 C 
ENDROOT
BRANCH   5  17
ATOM     13  O   UNL     1       1.058   0.391   0.000  0.00  0.00    +0.000 OA
ATOM     14  N   UNL     1      -0.955   1.101   0.000  0.00  0.00    +0.000 NA
ATOM     15  N   UNL     1       0.270   1.632   0.000  0.00  0.00    +0.000 NA
ATOM     16  N   UNL     1      -0.863   2.569   0.000  0.00  0.00    +0.000 NA
ATOM     17  C   UNL     1      -0.409   0.483   0.000  0.00  0.00    +0.000 C 
ATOM     18  C   UNL     1       0.348   0.811   0.000  0.00  0.00    +0.000 C 
ATOM     19  C   UNL     1      -0.535   1.812   0.000  0.00  0.00    +0.000 C 
ENDBRANCH   5  17
TORSDOF 1
