REMARK  Name = 
REMARK  3 active torsions:
REMARK  status: ('A' for Active; 'I' for Inactive)
REMARK    1  A    between atoms: C_1  and  C_2
REMARK    2  A    between atoms: C_1  and  C_15
REMARK    3  A    between atoms: C_9  and  C_10
REMARK                            x       y       z     vdW  Elec       q    Type
REMARK                         _______ _______ _______ _____ _____    ______ ____
ROOT
ATOM      1  C   UNL     1      -1.135   0.360   0.000  0.00  0.00    +0.000 C 
ATOM      2  N   UNL     1      -1.864   0.746   0.000  0.00  0.00    +0.000 NA
ENDROOT
BRANCH   1   3
ATOM      3  C   UNL     1      -1.135  -0.497   0.000  0.00  0.00    +0.000 C 
ATOM      4  C   UNL     1      -1.849  -0.909   0.000  0.00  0.00    +0.000 C 
ATOM      5  C   UNL     1      -1.849  -1.734   0.000  0.00  0.00    +0.000 C 
ATOM      6  C   UNL     1      -0.420  -1.734   0.000  0.00  0.00    +0.000 C 
ATOM      7  C   UNL     1      -1.135  -2.147   0.000  0.00  0.00    +0.000 C 
ATOM      8  C   UNL     1      -1.581  -2.214   0.000  0.00  0.00    +0.000 C 
ATOM      9  C   UNL     1      -1.581  -1.389   0.000  0.00  0.00    +0.000 C 
ATOM     10  C   UNL     1      -0.420  -0.909   0.000  0.00  0.00    +0.000 C 
ATOM     11  C   UNL     1      -2.296  -2.547   0.000  0.00  0.00    +0.000 C 
ATOM     12  C   UNL     1      -0.827  -2.547   0.000  0.00  0.00    +0.000 C 
ATOM     13  O   UNL     1       0.294  -2.147   0.000  0.00  0.00    +0.000 OA
ENDBRANCH   1   3
BRANCH   1  14
ATOM     14  C   UNL     1      -0.406   0.746   0.000  0.00  0.00    +0.000 C 
ATOM     15  N   UNL     1       0.323   0.360   0.000  0.00  0.00    +0.000 N 
ATOM     16  O   UNL     1      -0.406   1.604   0.000  0.00  0.00    +0.000 OA
ATOM     17  C   UNL     1       0.580  -0.454   0.000  0.00  0.00    +0.000 C 
ATOM     18  C   UNL     1       1.438  -0.454   0.000  0.00  0.00    +0.000 C 
ATOM     19  C   UNL     1       1.695   0.403   0.000  0.00  0.00    +0.000 C 
ATOM     20  C   UNL     1       0.966   0.832   0.000  0.00  0.00    +0.000 C 
ATOM     21  C   UNL     1       1.009  -1.183   0.000  0.00  0.00    +0.000 C 
BRANCH  20  22
ATOM     22  C   UNL     1       0.966   1.690   0.000  0.00  0.00    +0.000 C 
ATOM     23  N   UNL     1       0.966   2.547   0.000  0.00  0.00    +0.000 NA
ENDBRANCH  20  22
ENDBRANCH   1  14
TORSDOF 3
