REMARK  Name = 
REMARK  38 active torsions:
REMARK  status: ('A' for Active; 'I' for Inactive)
REMARK    1  A    between atoms: C_8  and  C_13
REMARK    2  A    between atoms: CA_11  and  N_12
REMARK    3  A    between atoms: CA_11  and  C_13
REMARK    4  A    between atoms: CA_11  and  C_15
REMARK    5  A    between atoms: N_14  and  CA_16
REMARK    6  A    between atoms: CA_16  and  C_17
REMARK    7  A    between atoms: CA_16  and  C_19
REMARK    8  A    between atoms: C_19  and  C_20
REMARK    9  A    between atoms: N_21  and  CA_27
REMARK   10  A    between atoms: CA_27  and  C_28
REMARK   11  A    between atoms: CA_27  and  C_29
REMARK   12  A    between atoms: C_28  and  C_31
REMARK   13  A    between atoms: N_30  and  CA_37
REMARK   14  A    between atoms: CA_37  and  C_38
REMARK   15  A    between atoms: CA_37  and  C_49
REMARK   16  A    between atoms: N_40  and  C_41
REMARK   17  A    between atoms: C_41  and  C_42
REMARK   18  A    between atoms: C_41  and  C_43
REMARK   19  A    between atoms: C_42  and  C_45
REMARK   20  A    between atoms: N_44  and  C_58
REMARK   21  A    between atoms: C_58  and  C_59
REMARK   22  A    between atoms: C_58  and  C_73
REMARK   23  A    between atoms: N_61  and  C_62
REMARK   24  A    between atoms: C_62  and  C_63
REMARK   25  A    between atoms: C_62  and  C_64
REMARK   26  A    between atoms: C_63  and  C_72
REMARK   27  A    between atoms: N_65  and  C_66
REMARK   28  A    between atoms: C_66  and  C_67
REMARK   29  A    between atoms: C_66  and  C_81
REMARK   30  A    between atoms: C_71  and  C_88
REMARK   31  A    between atoms: C_73  and  C_74
REMARK   32  A    between atoms: C_74  and  C_75
REMARK   33  A    between atoms: C_75  and  N_76
REMARK   34  A    between atoms: C_81  and  C_82
REMARK   35  A    between atoms: C_82  and  C_83
REMARK   36  A    between atoms: C_83  and  N_84
REMARK   37  A    between atoms: N_92  and  C_93
REMARK   38  A    between atoms: C_93  and  C_94
REMARK                            x       y       z     vdW  Elec       q    Type
REMARK                         _______ _______ _______ _____ _____    ______ ____
ROOT
ATOM      1  C   UNL     1       0.000  -0.354   0.000  0.00  0.00    +0.000 C 
ENDROOT
BRANCH   1   4
ATOM      2  C   UNL     1      -1.415  -0.354   0.000  0.00  0.00    +0.000 C 
ATOM      3  O   UNL     1      -1.415  -1.203   0.000  0.00  0.00    +0.000 OA
ATOM      4  N   UNL     1      -0.707   0.071   0.000  0.00  0.00    +0.000 NA
BRANCH   2   5
ATOM      5  CA  UNL     1      -2.052   0.071   0.000  0.00  0.00    +0.000 C 
BRANCH   5   7
ATOM      6  C   UNL     1      -3.538   0.071   0.000  0.00  0.00    +0.000 C 
ATOM      7  N   UNL     1      -2.830  -0.354   0.000  0.00  0.00    +0.000 NA
ATOM      8  O   UNL     1      -3.538   0.849   0.000  0.00  0.00    +0.000 OA
BRANCH   6   9
ATOM      9  CA  UNL     1      -4.174  -0.354   0.000  0.00  0.00    +0.000 C 
BRANCH   9  12
ATOM     10  C   UNL     1      -5.660  -0.354   0.000  0.00  0.00    +0.000 C 
ATOM     11  O   UNL     1      -5.660  -1.203   0.000  0.00  0.00    +0.000 OA
ATOM     12  N   UNL     1      -4.953   0.071   0.000  0.00  0.00    +0.000 NA
BRANCH  10  13
ATOM     13  CA  UNL     1      -6.297   0.071   0.000  0.00  0.00    +0.000 C 
BRANCH  13  14
ATOM     14  N   UNL     1      -7.075  -0.354   0.000  0.00  0.00    +0.000 NA
ATOM     15  C   UNL     1      -7.783   0.071   0.000  0.00  0.00    +0.000 C 
ATOM     16  O   UNL     1      -7.783   0.849   0.000  0.00  0.00    +0.000 OA
BRANCH  15  17
ATOM     17  CA  UNL     1      -8.490  -0.354   0.000  0.00  0.00    +0.000 C 
BRANCH  17  18
ATOM     18  N   UNL     1      -8.490  -1.203   0.000  0.00  0.00    +0.000 NA
ATOM     19  C   UNL     1      -7.783  -1.627   0.000  0.00  0.00    +0.000 C 
ATOM     20  O   UNL     1      -7.783  -2.405   0.000  0.00  0.00    +0.000 OA
ATOM     21  C   UNL     1      -7.075  -1.203   0.000  0.00  0.00    +0.000 C 
ENDBRANCH  17  18
BRANCH  17  22
ATOM     22  C   UNL     1      -9.198   0.071   0.000  0.00  0.00    +0.000 C 
BRANCH  22  30
ATOM     23  C   UNL     1      -9.905   2.052   0.000  0.00  0.00    +0.000 A 
ATOM     24  C   UNL     1      -9.198   2.476   0.000  0.00  0.00    +0.000 A 
ATOM     25  C   UNL     1     -10.613   2.476   0.000  0.00  0.00    +0.000 A 
ATOM     26  C   UNL     1      -9.198   3.325   0.000  0.00  0.00    +0.000 A 
ATOM     27  C   UNL     1     -10.613   3.325   0.000  0.00  0.00    +0.000 A 
ATOM     28  C   UNL     1      -9.905   3.750   0.000  0.00  0.00    +0.000 A 
ATOM     29  C   UNL     1      -9.905   1.274   0.000  0.00  0.00    +0.000 A 
ATOM     30  C   UNL     1      -9.198   0.849   0.000  0.00  0.00    +0.000 A 
ATOM     31  C   UNL     1      -8.490   2.052   0.000  0.00  0.00    +0.000 A 
ATOM     32  C   UNL     1      -8.490   1.274   0.000  0.00  0.00    +0.000 A 
ENDBRANCH  22  30
ENDBRANCH  17  22
ENDBRANCH  15  17
ENDBRANCH  13  14
BRANCH  13  33
ATOM     33  C   UNL     1      -6.297   0.849   0.000  0.00  0.00    +0.000 C 
BRANCH  33  34
ATOM     34  C   UNL     1      -5.660   1.274   0.000  0.00  0.00    +0.000 A 
ATOM     35  C   UNL     1      -4.953   0.849   0.000  0.00  0.00    +0.000 A 
ATOM     36  C   UNL     1      -5.660   2.052   0.000  0.00  0.00    +0.000 A 
ATOM     37  C   UNL     1      -4.953   2.476   0.000  0.00  0.00    +0.000 A 
ATOM     38  C   UNL     1      -4.174   1.274   0.000  0.00  0.00    +0.000 A 
ATOM     39  C   UNL     1      -4.174   2.052   0.000  0.00  0.00    +0.000 A 
ATOM     40 CL   UNL     1      -3.538   2.476   0.000  0.00  0.00    +0.000 Cl
ENDBRANCH  33  34
ENDBRANCH  13  33
ENDBRANCH  10  13
ENDBRANCH   9  12
BRANCH   9  41
ATOM     41  C   UNL     1      -4.174  -1.203   0.000  0.00  0.00    +0.000 C 
BRANCH  41  42
ATOM     42  C   UNL     1      -3.538  -1.627   0.000  0.00  0.00    +0.000 A 
ATOM     43  C   UNL     1      -2.830  -1.203   0.000  0.00  0.00    +0.000 A 
ATOM     44  C   UNL     1      -3.538  -2.405   0.000  0.00  0.00    +0.000 A 
ATOM     45  N   UNL     1      -2.830  -2.830   0.000  0.00  0.00    +0.000 NA
ATOM     46  C   UNL     1      -2.052  -1.627   0.000  0.00  0.00    +0.000 A 
ATOM     47  C   UNL     1      -2.052  -2.405   0.000  0.00  0.00    +0.000 A 
ENDBRANCH  41  42
ENDBRANCH   9  41
ENDBRANCH   6   9
ENDBRANCH   5   7
BRANCH   5  48
ATOM     48  C   UNL     1      -2.052   0.849   0.000  0.00  0.00    +0.000 C 
ATOM     49  O   UNL     1      -1.415   1.274   0.000  0.00  0.00    +0.000 OA
ENDBRANCH   5  48
ENDBRANCH   2   5
ENDBRANCH   1   4
BRANCH   1  50
ATOM     50  C   UNL     1       0.778   0.071   0.000  0.00  0.00    +0.000 C 
ATOM     51  N   UNL     1       1.415  -0.354   0.000  0.00  0.00    +0.000 NA
ATOM     52  O   UNL     1       0.778   0.849   0.000  0.00  0.00    +0.000 OA
BRANCH  51  53
ATOM     53  C   UNL     1       2.193   0.071   0.000  0.00  0.00    +0.000 C 
BRANCH  53  54
ATOM     54  C   UNL     1       2.901  -0.354   0.000  0.00  0.00    +0.000 C 
ATOM     55  O   UNL     1       2.901  -1.203   0.000  0.00  0.00    +0.000 OA
ATOM     56  N   UNL     1       3.608   0.071   0.000  0.00  0.00    +0.000 NA
BRANCH  56  57
ATOM     57  C   UNL     1       4.316  -0.354   0.000  0.00  0.00    +0.000 C 
BRANCH  57  58
ATOM     58  C   UNL     1       5.023   0.071   0.000  0.00  0.00    +0.000 C 
ATOM     59  N   UNL     1       5.731  -0.354   0.000  0.00  0.00    +0.000 NA
ATOM     60  O   UNL     1       5.023   0.849   0.000  0.00  0.00    +0.000 OA
BRANCH  59  61
ATOM     61  C   UNL     1       6.438   0.071   0.000  0.00  0.00    +0.000 C 
BRANCH  61  62
ATOM     62  C   UNL     1       7.146  -0.354   0.000  0.00  0.00    +0.000 C 
ATOM     63  O   UNL     1       7.146  -1.203   0.000  0.00  0.00    +0.000 OA
ATOM     64  N   UNL     1       7.853   0.071   0.000  0.00  0.00    +0.000 N 
ATOM     65  C   UNL     1       8.490  -0.424   0.000  0.00  0.00    +0.000 C 
ATOM     66  C   UNL     1       8.066   0.849   0.000  0.00  0.00    +0.000 C 
ATOM     67  C   UNL     1       9.127   0.071   0.000  0.00  0.00    +0.000 C 
ATOM     68  C   UNL     1       8.915   0.849   0.000  0.00  0.00    +0.000 C 
BRANCH  65  70
ATOM     69  O   UNL     1       7.783  -1.698   0.000  0.00  0.00    +0.000 OA
ATOM     70  C   UNL     1       8.490  -1.274   0.000  0.00  0.00    +0.000 C 
ATOM     71  N   UNL     1       9.198  -1.698   0.000  0.00  0.00    +0.000 NA
BRANCH  71  72
ATOM     72  C   UNL     1       9.198  -2.476   0.000  0.00  0.00    +0.000 C 
ATOM     73  C   UNL     1       8.490  -2.901   0.000  0.00  0.00    +0.000 C 
BRANCH  72  74
ATOM     74  C   UNL     1       9.905  -2.901   0.000  0.00  0.00    +0.000 C 
ATOM     75  O   UNL     1      10.613  -2.476   0.000  0.00  0.00    +0.000 OA
ATOM     76  N   UNL     1       9.905  -3.750   0.000  0.00  0.00    +0.000 NA
ENDBRANCH  72  74
ENDBRANCH  71  72
ENDBRANCH  65  70
ENDBRANCH  61  62
BRANCH  61  77
ATOM     77  C   UNL     1       6.438   0.849   0.000  0.00  0.00    +0.000 C 
BRANCH  77  78
ATOM     78  C   UNL     1       7.146   1.274   0.000  0.00  0.00    +0.000 C 
BRANCH  78  79
ATOM     79  C   UNL     1       7.146   2.052   0.000  0.00  0.00    +0.000 C 
BRANCH  79  80
ATOM     80  N   UNL     1       7.853   2.476   0.000  0.00  0.00    +0.000 NA
ATOM     81  C   UNL     1       7.853   3.325   0.000  0.00  0.00    +0.000 C 
ATOM     82  N   UNL     1       7.146   3.750   0.000  0.00  0.00    +0.000 NA
ATOM     83  N   UNL     1       8.561   3.750   0.000  0.00  0.00    +0.000 NA
ENDBRANCH  79  80
ENDBRANCH  78  79
ENDBRANCH  77  78
ENDBRANCH  61  77
ENDBRANCH  59  61
ENDBRANCH  57  58
BRANCH  57  84
ATOM     84  C   UNL     1       4.316  -1.203   0.000  0.00  0.00    +0.000 C 
BRANCH  84  85
ATOM     85  C   UNL     1       5.023  -1.627   0.000  0.00  0.00    +0.000 C 
ATOM     86  C   UNL     1       5.023  -2.405   0.000  0.00  0.00    +0.000 C 
ATOM     87  C   UNL     1       5.731  -1.203   0.000  0.00  0.00    +0.000 C 
ENDBRANCH  84  85
ENDBRANCH  57  84
ENDBRANCH  56  57
ENDBRANCH  53  54
BRANCH  53  88
ATOM     88  C   UNL     1       2.193   0.849   0.000  0.00  0.00    +0.000 C 
BRANCH  88  89
ATOM     89  C   UNL     1       2.901   1.274   0.000  0.00  0.00    +0.000 C 
BRANCH  89  90
ATOM     90  C   UNL     1       2.901   2.052   0.000  0.00  0.00    +0.000 C 
BRANCH  90  91
ATOM     91  N   UNL     1       3.608   2.476   0.000  0.00  0.00    +0.000 NA
ATOM     92  C   UNL     1       3.608   3.325   0.000  0.00  0.00    +0.000 C 
ATOM     93  O   UNL     1       2.901   3.750   0.000  0.00  0.00    +0.000 OA
ATOM     94  N   UNL     1       4.316   3.750   0.000  0.00  0.00    +0.000 NA
ENDBRANCH  90  91
ENDBRANCH  89  90
ENDBRANCH  88  89
ENDBRANCH  53  88
ENDBRANCH  51  53
ENDBRANCH   1  50
BRANCH   1  95
ATOM     95  C   UNL     1       0.000  -1.203   0.000  0.00  0.00    +0.000 C 
BRANCH  95  96
ATOM     96  C   UNL     1       0.778  -1.627   0.000  0.00  0.00    +0.000 A 
ATOM     97  C   UNL     1       2.193  -1.627   0.000  0.00  0.00    +0.000 A 
ATOM     98  C   UNL     1       2.193  -2.405   0.000  0.00  0.00    +0.000 A 
ATOM     99  C   UNL     1       1.415  -1.203   0.000  0.00  0.00    +0.000 A 
ATOM    100  C   UNL     1       1.415  -2.830   0.000  0.00  0.00    +0.000 A 
ATOM    101  C   UNL     1       0.778  -2.405   0.000  0.00  0.00    +0.000 A 
ATOM    102  O   UNL     1       2.901  -2.830   0.000  0.00  0.00    +0.000 OA
ENDBRANCH  95  96
ENDBRANCH   1  95
TORSDOF 38
