REMARK  Name = 
REMARK  16 active torsions:
REMARK  status: ('A' for Active; 'I' for Inactive)
REMARK    1  A    between atoms: N_2  and  C_4
REMARK    2  A    between atoms: C_4  and  C_5
REMARK    3  A    between atoms: C_5  and  C_6
REMARK    4  A    between atoms: C_6  and  C_7
REMARK    5  A    between atoms: C_6  and  N_15
REMARK    6  A    between atoms: C_7  and  S_8
REMARK    7  A    between atoms: S_8  and  C_9
REMARK    8  A    between atoms: N_15  and  C_16
REMARK    9  A    between atoms: C_19  and  S_25
REMARK   10  A    between atoms: C_21  and  N_22
REMARK   11  A    between atoms: S_25  and  N_28
REMARK   12  A    between atoms: C_29  and  C_31
REMARK   13  A    between atoms: C_34  and  N_37
REMARK   14  A    between atoms: N_40  and  C_41
REMARK   15  A    between atoms: C_41  and  C_42
REMARK   16  A    between atoms: C_47  and  C_48
REMARK                            x       y       z     vdW  Elec       q    Type
REMARK                         _______ _______ _______ _____ _____    ______ ____
ROOT
ATOM      1  N   UNL     1      14.289   0.000   0.000  0.00  0.00    +0.000 NA
ATOM      2  C   UNL     1      13.575   0.412   0.000  0.00  0.00    +0.000 C 
ATOM      3  O   UNL     1      12.861   0.000   0.000  0.00  0.00    +0.000 OA
ENDROOT
BRANCH   2   4
ATOM      4  C   UNL     1      13.575   1.238   0.000  0.00  0.00    +0.000 A 
ATOM      5  C   UNL     1      12.861   1.650   0.000  0.00  0.00    +0.000 A 
ATOM      6  C   UNL     1      12.861   2.475   0.000  0.00  0.00    +0.000 A 
ATOM      7  C   UNL     1      13.575   2.888   0.000  0.00  0.00    +0.000 A 
ATOM      8  C   UNL     1      14.289   2.475   0.000  0.00  0.00    +0.000 A 
ATOM      9  C   UNL     1      14.289   1.650   0.000  0.00  0.00    +0.000 A 
BRANCH   7  10
ATOM     10  N   UNL     1      13.575   3.712   0.000  0.00  0.00    +0.000 N 
ATOM     11  C   UNL     1      12.861   4.125   0.000  0.00  0.00    +0.000 C 
ATOM     12  C   UNL     1      12.861   4.950   0.000  0.00  0.00    +0.000 C 
ATOM     13  N   UNL     1      13.575   5.362   0.000  0.00  0.00    +0.000 NA
ATOM     14  C   UNL     1      14.289   4.950   0.000  0.00  0.00    +0.000 C 
ATOM     15  C   UNL     1      14.289   4.125   0.000  0.00  0.00    +0.000 C 
BRANCH  13  16
ATOM     16  C   UNL     1      13.575   6.188   0.000  0.00  0.00    +0.000 C 
BRANCH  16  17
ATOM     17  C   UNL     1      12.861   6.600   0.000  0.00  0.00    +0.000 A 
ATOM     18  C   UNL     1      12.146   6.188   0.000  0.00  0.00    +0.000 A 
ATOM     19  C   UNL     1      11.431   6.600   0.000  0.00  0.00    +0.000 A 
ATOM     20  C   UNL     1      11.431   7.425   0.000  0.00  0.00    +0.000 A 
ATOM     21  C   UNL     1      12.146   7.838   0.000  0.00  0.00    +0.000 A 
ATOM     22  C   UNL     1      12.861   7.425   0.000  0.00  0.00    +0.000 A 
BRANCH  22  23
ATOM     23  C   UNL     1      13.575   7.838   0.000  0.00  0.00    +0.000 A 
ATOM     24  C   UNL     1      13.575   8.662   0.000  0.00  0.00    +0.000 A 
ATOM     25  C   UNL     1      14.289   9.075   0.000  0.00  0.00    +0.000 A 
ATOM     26  C   UNL     1      15.004   8.662   0.000  0.00  0.00    +0.000 A 
ATOM     27 CL   UNL     1      15.718   9.075   0.000  0.00  0.00    +0.000 Cl
ATOM     28  C   UNL     1      15.004   7.838   0.000  0.00  0.00    +0.000 A 
ATOM     29  C   UNL     1      14.289   7.425   0.000  0.00  0.00    +0.000 A 
ENDBRANCH  22  23
ENDBRANCH  16  17
ENDBRANCH  13  16
ENDBRANCH   7  10
ENDBRANCH   2   4
BRANCH   1  30
ATOM     30  S   UNL     1      14.289  -0.825   0.000  0.00  0.00    +0.000 S 
ATOM     31  O   UNL     1      15.114  -0.825   0.000  0.00  0.00    +0.000 OA
ATOM     32  O   UNL     1      13.464  -0.825   0.000  0.00  0.00    +0.000 OA
BRANCH  30  36
ATOM     33  C   UNL     1      14.289  -3.300   0.000  0.00  0.00    +0.000 A 
ATOM     34  C   UNL     1      13.575  -2.888   0.000  0.00  0.00    +0.000 A 
ATOM     35  C   UNL     1      13.575  -2.062   0.000  0.00  0.00    +0.000 A 
ATOM     36  C   UNL     1      14.289  -1.650   0.000  0.00  0.00    +0.000 A 
ATOM     37  C   UNL     1      15.004  -2.062   0.000  0.00  0.00    +0.000 A 
ATOM     38  C   UNL     1      15.004  -2.888   0.000  0.00  0.00    +0.000 A 
BRANCH  38  39
ATOM     39  N   UNL     1      15.718  -3.300   0.000  0.00  0.00    +0.000 N 
ATOM     40  O   UNL     1      15.718  -4.125   0.000  0.00  0.00    +0.000 OA
ATOM     41  O   UNL     1      16.433  -2.888   0.000  0.00  0.00    +0.000 OA
ENDBRANCH  38  39
BRANCH  33  42
ATOM     42  N   UNL     1      14.289  -4.125   0.000  0.00  0.00    +0.000 NA
BRANCH  42  43
ATOM     43  C   UNL     1      13.575  -4.537   0.000  0.00  0.00    +0.000 C 
BRANCH  43  44
ATOM     44  C   UNL     1      13.575  -5.362   0.000  0.00  0.00    +0.000 C 
BRANCH  44  45
ATOM     45  S   UNL     1      14.289  -5.775   0.000  0.00  0.00    +0.000 S 
BRANCH  45  46
ATOM     46  C   UNL     1      14.289  -6.600   0.000  0.00  0.00    +0.000 A 
ATOM     47  C   UNL     1      15.004  -7.013   0.000  0.00  0.00    +0.000 A 
ATOM     48  C   UNL     1      15.004  -7.838   0.000  0.00  0.00    +0.000 A 
ATOM     49  C   UNL     1      14.289  -8.250   0.000  0.00  0.00    +0.000 A 
ATOM     50  C   UNL     1      13.575  -7.838   0.000  0.00  0.00    +0.000 A 
ATOM     51  C   UNL     1      13.575  -7.013   0.000  0.00  0.00    +0.000 A 
ENDBRANCH  45  46
ENDBRANCH  44  45
ENDBRANCH  43  44
BRANCH  43  52
ATOM     52  C   UNL     1      12.861  -4.125   0.000  0.00  0.00    +0.000 C 
BRANCH  52  53
ATOM     53  C   UNL     1      12.861  -3.300   0.000  0.00  0.00    +0.000 C 
BRANCH  53  55
ATOM     54  C   UNL     1      11.431  -3.300   0.000  0.00  0.00    +0.000 C 
ATOM     55  N   UNL     1      12.146  -2.888   0.000  0.00  0.00    +0.000 NA
ATOM     56  C   UNL     1      12.146  -2.062   0.000  0.00  0.00    +0.000 C 
ENDBRANCH  53  55
ENDBRANCH  52  53
ENDBRANCH  43  52
ENDBRANCH  42  43
ENDBRANCH  33  42
ENDBRANCH  30  36
ENDBRANCH   1  30
TORSDOF 16
