REMARK  Name = 
REMARK  15 active torsions:
REMARK  status: ('A' for Active; 'I' for Inactive)
REMARK    1  A    between atoms: C_2  and  N_3
REMARK    2  A    between atoms: N_3  and  C_4
REMARK    3  A    between atoms: N_3  and  C_6
REMARK    4  A    between atoms: C_6  and  C_7
REMARK    5  A    between atoms: C_7  and  N_8
REMARK    6  A    between atoms: C_11  and  O_50
REMARK    7  A    between atoms: C_22  and  O_31
REMARK    8  A    between atoms: C_23  and  O_29
REMARK    9  A    between atoms: C_24  and  C_25
REMARK   10  A    between atoms: C_25  and  O_27
REMARK   11  A    between atoms: O_31  and  C_32
REMARK   12  A    between atoms: C_32  and  C_34
REMARK   13  A    between atoms: C_36  and  O_44
REMARK   14  A    between atoms: C_37  and  O_42
REMARK   15  A    between atoms: C_38  and  O_40
REMARK                            x       y       z     vdW  Elec       q    Type
REMARK                         _______ _______ _______ _____ _____    ______ ____
ROOT
ATOM      1  N   UNL     1       4.113   0.954   0.000  0.00  0.00    +0.000 N 
ATOM      2  C   UNL     1       4.916   0.765   0.000  0.00  0.00    +0.000 A 
ATOM      3  C   UNL     1       5.594   1.235   0.000  0.00  0.00    +0.000 A 
ATOM      4  C   UNL     1       6.340   0.883   0.000  0.00  0.00    +0.000 A 
ATOM      5  C   UNL     1       6.408   0.060   0.000  0.00  0.00    +0.000 A 
ATOM      6  C   UNL     1       5.730  -0.410   0.000  0.00  0.00    +0.000 A 
ATOM      7  C   UNL     1       4.984  -0.058   0.000  0.00  0.00    +0.000 A 
ATOM      8  C   UNL     1       4.223  -0.377   0.000  0.00  0.00    +0.000 A 
ATOM      9  C   UNL     1       3.684   0.249   0.000  0.00  0.00    +0.000 A 
ATOM     10  C   UNL     1       2.874   0.095   0.000  0.00  0.00    +0.000 C 
ATOM     11  C   UNL     1       2.336   0.720   0.000  0.00  0.00    +0.000 C 
ATOM     12  C   UNL     1       1.525   0.566   0.000  0.00  0.00    +0.000 C 
ATOM     13  C   UNL     1       1.253  -0.213   0.000  0.00  0.00    +0.000 C 
ATOM     14  C   UNL     1       0.442  -0.366   0.000  0.00  0.00    +0.000 C 
ATOM     15  C   UNL     1      -0.096   0.259   0.000  0.00  0.00    +0.000 C 
ATOM     16  C   UNL     1       0.176   1.038   0.000  0.00  0.00    +0.000 C 
ATOM     17  C   UNL     1       0.987   1.191   0.000  0.00  0.00    +0.000 C 
ATOM     18  C   UNL     1       1.791  -0.838   0.000  0.00  0.00    +0.000 C 
ATOM     19  N   UNL     1       2.602  -0.684   0.000  0.00  0.00    +0.000 NA
ATOM     20  C   UNL     1       3.140  -1.309   0.000  0.00  0.00    +0.000 C 
ATOM     21  C   UNL     1       3.951  -1.155   0.000  0.00  0.00    +0.000 C 
ENDROOT
BRANCH   4  22
ATOM     22  O   UNL     1       7.018   1.353   0.000  0.00  0.00    +0.000 OA
ATOM     23  C   UNL     1       7.764   1.001   0.000  0.00  0.00    +0.000 C 
ENDBRANCH   4  22
BRANCH  17  24
ATOM     24  C   UNL     1       1.259   1.970   0.000  0.00  0.00    +0.000 C 
ATOM     25  O   UNL     1       2.069   2.124   0.000  0.00  0.00    +0.000 OA
BRANCH  24  26
ATOM     26  O   UNL     1       0.720   2.595   0.000  0.00  0.00    +0.000 OA
ATOM     27  C   UNL     1       0.993   3.374   0.000  0.00  0.00    +0.000 C 
ENDBRANCH  24  26
ENDBRANCH  17  24
BRANCH  16  28
ATOM     28  O   UNL     1      -0.362   1.663   0.000  0.00  0.00    +0.000 OA
ATOM     29  C   UNL     1      -0.090   2.442   0.000  0.00  0.00    +0.000 C 
ENDBRANCH  16  28
BRANCH   1  30
ATOM     30  C   UNL     1       3.794   1.715   0.000  0.00  0.00    +0.000 C 
BRANCH  30  31
ATOM     31  C   UNL     1       4.293   2.371   0.000  0.00  0.00    +0.000 C 
BRANCH  31  32
ATOM     32  N   UNL     1       3.974   3.132   0.000  0.00  0.00    +0.000 NA
BRANCH  32  33
ATOM     33  C   UNL     1       3.156   3.236   0.000  0.00  0.00    +0.000 C 
ATOM     34  C   UNL     1       2.837   3.997   0.000  0.00  0.00    +0.000 C 
ENDBRANCH  32  33
BRANCH  32  36
ATOM     35  C   UNL     1       4.155   4.550   0.000  0.00  0.00    +0.000 C 
ATOM     36  C   UNL     1       4.474   3.789   0.000  0.00  0.00    +0.000 C 
ENDBRANCH  32  36
ENDBRANCH  31  32
ENDBRANCH  30  31
ENDBRANCH   1  30
BRANCH  15  37
ATOM     37  O   UNL     1      -0.907   0.105   0.000  0.00  0.00    +0.000 OA
BRANCH  37  38
ATOM     38  C   UNL     1      -1.179  -0.674   0.000  0.00  0.00    +0.000 C 
ATOM     39  O   UNL     1      -0.640  -1.299   0.000  0.00  0.00    +0.000 OA
BRANCH  38  40
ATOM     40  C   UNL     1      -1.989  -0.828   0.000  0.00  0.00    +0.000 A 
ATOM     41  C   UNL     1      -2.261  -1.606   0.000  0.00  0.00    +0.000 A 
ATOM     42  C   UNL     1      -3.072  -1.760   0.000  0.00  0.00    +0.000 A 
ATOM     43  C   UNL     1      -3.610  -1.135   0.000  0.00  0.00    +0.000 A 
ATOM     44  C   UNL     1      -3.338  -0.356   0.000  0.00  0.00    +0.000 A 
ATOM     45  C   UNL     1      -2.528  -0.202   0.000  0.00  0.00    +0.000 A 
BRANCH  42  46
ATOM     46  O   UNL     1      -3.344  -2.539   0.000  0.00  0.00    +0.000 OA
ATOM     47  C   UNL     1      -4.155  -2.693   0.000  0.00  0.00    +0.000 C 
ENDBRANCH  42  46
BRANCH  43  48
ATOM     48  O   UNL     1      -4.421  -1.289   0.000  0.00  0.00    +0.000 OA
ATOM     49  C   UNL     1      -4.693  -2.067   0.000  0.00  0.00    +0.000 C 
ENDBRANCH  43  48
BRANCH  44  50
ATOM     50  O   UNL     1      -3.877   0.269   0.000  0.00  0.00    +0.000 OA
ATOM     51  C   UNL     1      -3.604   1.048   0.000  0.00  0.00    +0.000 C 
ENDBRANCH  44  50
ENDBRANCH  38  40
ENDBRANCH  37  38
ENDBRANCH  15  37
TORSDOF 15
