REMARK  Name = 
REMARK  4 active torsions:
REMARK  status: ('A' for Active; 'I' for Inactive)
REMARK    1  A    between atoms: N_8  and  C_9
REMARK    2  A    between atoms: C_11  and  C_21
REMARK    3  A    between atoms: O_16  and  P_18
REMARK    4  A    between atoms: O_16  and  C_21
REMARK                            x       y       z     vdW  Elec       q    Type
REMARK                         _______ _______ _______ _____ _____    ______ ____
ROOT
ATOM      1  C   UNL     1       0.866   0.127   0.000  0.00  0.00    +0.000 C 
ATOM      2  O   UNL     1       0.381  -0.540   0.000  0.00  0.00    +0.000 OA
ATOM      3  C   UNL     1       0.865  -1.207   0.000  0.00  0.00    +0.000 C 
ATOM      4  C   UNL     1       1.650  -0.953   0.000  0.00  0.00    +0.000 C 
ATOM      5  O   UNL     1       2.317  -1.438   0.000  0.00  0.00    +0.000 OA
ATOM      6  C   UNL     1       1.650  -0.128   0.000  0.00  0.00    +0.000 C 
ATOM      7  O   UNL     1       2.317   0.357   0.000  0.00  0.00    +0.000 OA
ENDROOT
BRANCH   1  15
ATOM      8  C   UNL     1      -0.888   2.405   0.000  0.00  0.00    +0.000 A 
ATOM      9  N   UNL     1      -1.603   1.992   0.000  0.00  0.00    +0.000 NA
ATOM     10  N   UNL     1      -0.888   0.755   0.000  0.00  0.00    +0.000 NA
ATOM     11  C   UNL     1      -0.174   1.167   0.000  0.00  0.00    +0.000 A 
ATOM     12  C   UNL     1      -0.174   1.992   0.000  0.00  0.00    +0.000 A 
ATOM     13  N   UNL     1       0.611   2.247   0.000  0.00  0.00    +0.000 N 
ATOM     14  C   UNL     1       1.095   1.579   0.000  0.00  0.00    +0.000 A 
ATOM     15  N   UNL     1       0.611   0.912   0.000  0.00  0.00    +0.000 N 
ATOM     16  C   UNL     1      -1.603   1.167   0.000  0.00  0.00    +0.000 A 
ATOM     17  N   UNL     1      -2.317   0.755   0.000  0.00  0.00    +0.000 NA
ATOM     18  O   UNL     1      -0.888   3.230   0.000  0.00  0.00    +0.000 OA
ATOM     19  C   UNL     1       0.865   3.032   0.000  0.00  0.00    +0.000 C 
ENDBRANCH   1  15
BRANCH   3  20
ATOM     20  C   UNL     1       0.610  -1.992   0.000  0.00  0.00    +0.000 C 
BRANCH  20  21
ATOM     21  O   UNL     1      -0.214  -1.992   0.000  0.00  0.00    +0.000 OA
BRANCH  21  23
ATOM     22  O   UNL     1      -0.929  -3.230   0.000  0.00  0.00    +0.000 OA
ATOM     23  P   UNL     1      -0.929  -2.405   0.000  0.00  0.00    +0.000 P 
ATOM     24  O   UNL     1      -0.929  -1.580   0.000  0.00  0.00    +0.000 OA
ATOM     25  O   UNL     1      -1.643  -1.992   0.000  0.00  0.00    +0.000 OA
ENDBRANCH  21  23
ENDBRANCH  20  21
ENDBRANCH   3  20
TORSDOF 4
