REMARK  Name = 
REMARK  0 active torsions:
REMARK  status: ('A' for Active; 'I' for Inactive)
REMARK                            x       y       z     vdW  Elec       q    Type
REMARK                         _______ _______ _______ _____ _____    ______ ____
ROOT
ATOM      1  C   UNL     1       4.779   1.550   0.000  0.00  0.00    +0.000 C 
ATOM      2  C   UNL     1       4.117   1.058   0.000  0.00  0.00    +0.000 A 
ATOM      3  C   UNL     1       4.212   0.239   0.000  0.00  0.00    +0.000 A 
ATOM      4  C   UNL     1       3.550  -0.253   0.000  0.00  0.00    +0.000 A 
ATOM      5  C   UNL     1       2.820  -0.158   0.000  0.00  0.00    +0.000 A 
ATOM      6  C   UNL     1       2.698   0.893   0.000  0.00  0.00    +0.000 A 
ATOM      7  C   UNL     1       3.128   1.359   0.000  0.00  0.00    +0.000 A 
ATOM      8  C   UNL     1       2.051   1.406   0.000  0.00  0.00    +0.000 C 
ATOM      9  C   UNL     1       2.778   1.795   0.000  0.00  0.00    +0.000 C 
ATOM     10  C   UNL     1       3.479   1.360   0.000  0.00  0.00    +0.000 C 
ATOM     11  C   UNL     1       3.453   0.535   0.000  0.00  0.00    +0.000 C 
ATOM     12  C   UNL     1       2.725   0.146   0.000  0.00  0.00    +0.000 C 
ATOM     13  C   UNL     1       2.024   0.581   0.000  0.00  0.00    +0.000 C 
ATOM     14  C   UNL     1       1.461  -0.668   0.000  0.00  0.00    +0.000 C 
ATOM     15  C   UNL     1       2.280  -0.573   0.000  0.00  0.00    +0.000 C 
ATOM     16  N   UNL     1       0.814  -0.156   0.000  0.00  0.00    +0.000 NA
ATOM     17  C   UNL     1       0.719   0.664   0.000  0.00  0.00    +0.000 C 
ATOM     18  C   UNL     1       1.231   1.311   0.000  0.00  0.00    +0.000 C 
ATOM     19  C   UNL     1       0.093  -0.557   0.000  0.00  0.00    +0.000 C 
ENDROOT
TORSDOF 0
