REMARK  Name = 
REMARK  4 active torsions:
REMARK  status: ('A' for Active; 'I' for Inactive)
REMARK    1  A    between atoms: C_8  and  N_9
REMARK    2  A    between atoms: N_9  and  C_10
REMARK    3  A    between atoms: C_17  and  C_20
REMARK    4  A    between atoms: C_27  and  C_29
REMARK                            x       y       z     vdW  Elec       q    Type
REMARK                         _______ _______ _______ _____ _____    ______ ____
ROOT
ATOM      1  C   UNL     1       3.809   1.869   0.000  0.00  0.00    +0.000 C 
ATOM      2  C   UNL     1       3.279   1.238   0.000  0.00  0.00    +0.000 C 
ATOM      3  C   UNL     1       2.749   1.869   0.000  0.00  0.00    +0.000 C 
ATOM      4  N   UNL     1       3.993   0.825   0.000  0.00  0.00    +0.000 N 
ATOM      5  C   UNL     1       3.993   0.000   0.000  0.00  0.00    +0.000 C 
ATOM      6  C   UNL     1       3.279  -0.412   0.000  0.00  0.00    +0.000 C 
ATOM      7  N   UNL     1       2.564   0.000   0.000  0.00  0.00    +0.000 N 
ATOM      8  C   UNL     1       1.780  -0.255   0.000  0.00  0.00    +0.000 A 
ATOM      9  C   UNL     1       1.295   0.412   0.000  0.00  0.00    +0.000 A 
ATOM     10  N   UNL     1       1.780   1.080   0.000  0.00  0.00    +0.000 NA
ATOM     11  C   UNL     1       2.564   0.825   0.000  0.00  0.00    +0.000 A 
ATOM     12  C   UNL     1       4.708   1.238   0.000  0.00  0.00    +0.000 C 
ATOM     13  O   UNL     1       5.422   0.825   0.000  0.00  0.00    +0.000 OA
ENDROOT
BRANCH   9  14
ATOM     14  C   UNL     1       0.470   0.412   0.000  0.00  0.00    +0.000 A 
ATOM     15  C   UNL     1       0.057  -0.302   0.000  0.00  0.00    +0.000 A 
ATOM     16  C   UNL     1      -0.768  -0.302   0.000  0.00  0.00    +0.000 A 
ATOM     17  C   UNL     1      -1.180   0.412   0.000  0.00  0.00    +0.000 A 
ATOM     18  F   UNL     1      -2.005   0.412   0.000  0.00  0.00    +0.000 F 
ATOM     19  C   UNL     1      -0.768   1.127   0.000  0.00  0.00    +0.000 A 
ATOM     20  C   UNL     1       0.057   1.127   0.000  0.00  0.00    +0.000 A 
ENDBRANCH   9  14
BRANCH  12  21
ATOM     21  C   UNL     1       4.708   2.062   0.000  0.00  0.00    +0.000 C 
ATOM     22  N   UNL     1       5.422   2.475   0.000  0.00  0.00    +0.000 NA
ENDBRANCH  12  21
BRANCH   8  23
ATOM     23  N   UNL     1       1.525  -1.040   0.000  0.00  0.00    +0.000 NA
BRANCH  23  24
ATOM     24  C   UNL     1       2.077  -1.653   0.000  0.00  0.00    +0.000 A 
ATOM     25  C   UNL     1       2.884  -1.481   0.000  0.00  0.00    +0.000 A 
ATOM     26  C   UNL     1       3.436  -2.094   0.000  0.00  0.00    +0.000 A 
ATOM     27  C   UNL     1       3.181  -2.879   0.000  0.00  0.00    +0.000 A 
ATOM     28  F   UNL     1       3.733  -3.492   0.000  0.00  0.00    +0.000 F 
ATOM     29  C   UNL     1       2.374  -3.050   0.000  0.00  0.00    +0.000 A 
ATOM     30  C   UNL     1       1.822  -2.437   0.000  0.00  0.00    +0.000 A 
ENDBRANCH  23  24
ENDBRANCH   8  23
TORSDOF 4
