REMARK  Name = 
REMARK  9 active torsions:
REMARK  status: ('A' for Active; 'I' for Inactive)
REMARK    1  A    between atoms: C_1  and  C_2
REMARK    2  A    between atoms: C_4  and  O_10
REMARK    3  A    between atoms: C_5  and  N_12
REMARK    4  A    between atoms: N_9  and  C_30
REMARK    5  A    between atoms: C_20  and  C_28
REMARK    6  A    between atoms: N_21  and  C_24
REMARK    7  A    between atoms: C_33  and  N_36
REMARK    8  A    between atoms: N_39  and  C_42
REMARK    9  A    between atoms: C_42  and  C_43
REMARK                            x       y       z     vdW  Elec       q    Type
REMARK                         _______ _______ _______ _____ _____    ______ ____
ROOT
ATOM      1  C   UNL     1      -0.412   0.206   0.000  0.00  0.00    +0.000 A 
ATOM      2  C   UNL     1      -1.127  -0.206   0.000  0.00  0.00    +0.000 A 
ATOM      3  C   UNL     1      -1.841   0.206   0.000  0.00  0.00    +0.000 A 
ATOM      4  C   UNL     1      -1.841   1.031   0.000  0.00  0.00    +0.000 A 
ATOM      5  C   UNL     1      -1.127   1.444   0.000  0.00  0.00    +0.000 A 
ATOM      6  C   UNL     1      -0.412   1.031   0.000  0.00  0.00    +0.000 A 
ENDROOT
BRANCH   4   7
ATOM      7  N   UNL     1      -2.556   1.444   0.000  0.00  0.00    +0.000 NA
ATOM      8  N   UNL     1      -3.985   1.444   0.000  0.00  0.00    +0.000 NA
ATOM      9  C   UNL     1      -3.270   1.031   0.000  0.00  0.00    +0.000 A 
ATOM     10  N   UNL     1      -3.270   0.206   0.000  0.00  0.00    +0.000 NA
ATOM     11  C   UNL     1      -3.985  -0.206   0.000  0.00  0.00    +0.000 A 
ATOM     12  C   UNL     1      -4.699   0.206   0.000  0.00  0.00    +0.000 A 
ATOM     13  N   UNL     1      -5.414  -0.206   0.000  0.00  0.00    +0.000 N 
ATOM     14  C   UNL     1      -6.128   0.206   0.000  0.00  0.00    +0.000 C 
ATOM     15  C   UNL     1      -6.128   1.031   0.000  0.00  0.00    +0.000 C 
ATOM     16  N   UNL     1      -5.414   1.444   0.000  0.00  0.00    +0.000 N 
ATOM     17  C   UNL     1      -4.699   1.031   0.000  0.00  0.00    +0.000 A 
ATOM     18  O   UNL     1      -6.843  -0.206   0.000  0.00  0.00    +0.000 OA
ATOM     19  C   UNL     1      -5.414  -1.031   0.000  0.00  0.00    +0.000 C 
BRANCH  16  20
ATOM     20  C   UNL     1      -5.414   2.269   0.000  0.00  0.00    +0.000 C 
ATOM     21  C   UNL     1      -4.699   2.681   0.000  0.00  0.00    +0.000 C 
ATOM     22  C   UNL     1      -6.128   2.681   0.000  0.00  0.00    +0.000 C 
ENDBRANCH  16  20
BRANCH  15  23
ATOM     23  C   UNL     1      -6.843   1.444   0.000  0.00  0.00    +0.000 C 
ATOM     24  C   UNL     1      -7.557   1.031   0.000  0.00  0.00    +0.000 C 
ENDBRANCH  15  23
ENDBRANCH   4   7
BRANCH   1  25
ATOM     25  C   UNL     1       0.302  -0.206   0.000  0.00  0.00    +0.000 C 
ATOM     26  O   UNL     1       0.302  -1.031   0.000  0.00  0.00    +0.000 OA
ATOM     27  N   UNL     1       1.016   0.206   0.000  0.00  0.00    +0.000 NA
BRANCH  27  28
ATOM     28  C   UNL     1       1.731  -0.206   0.000  0.00  0.00    +0.000 C 
ATOM     29  C   UNL     1       2.445   0.206   0.000  0.00  0.00    +0.000 C 
ATOM     30  C   UNL     1       3.160  -0.206   0.000  0.00  0.00    +0.000 C 
ATOM     31  C   UNL     1       3.160  -1.031   0.000  0.00  0.00    +0.000 C 
ATOM     32  C   UNL     1       2.445  -1.444   0.000  0.00  0.00    +0.000 C 
ATOM     33  C   UNL     1       1.731  -1.031   0.000  0.00  0.00    +0.000 C 
BRANCH  31  34
ATOM     34  N   UNL     1       3.874  -1.444   0.000  0.00  0.00    +0.000 NA
ATOM     35  C   UNL     1       4.589  -1.031   0.000  0.00  0.00    +0.000 C 
ATOM     36  C   UNL     1       5.303  -1.444   0.000  0.00  0.00    +0.000 C 
ATOM     37  N   UNL     1       5.303  -2.269   0.000  0.00  0.00    +0.000 NA
ATOM     38  C   UNL     1       4.589  -2.681   0.000  0.00  0.00    +0.000 C 
ATOM     39  C   UNL     1       3.874  -2.269   0.000  0.00  0.00    +0.000 C 
BRANCH  37  40
ATOM     40  C   UNL     1       6.018  -2.681   0.000  0.00  0.00    +0.000 C 
BRANCH  40  41
ATOM     41  C   UNL     1       6.732  -2.269   0.000  0.00  0.00    +0.000 C 
ATOM     42  C   UNL     1       7.145  -1.554   0.000  0.00  0.00    +0.000 C 
ATOM     43  C   UNL     1       7.557  -2.269   0.000  0.00  0.00    +0.000 C 
ENDBRANCH  40  41
ENDBRANCH  37  40
ENDBRANCH  31  34
ENDBRANCH  27  28
ENDBRANCH   1  25
BRANCH   3  44
ATOM     44  O   UNL     1      -2.556  -0.206   0.000  0.00  0.00    +0.000 OA
ATOM     45  C   UNL     1      -2.556  -1.031   0.000  0.00  0.00    +0.000 C 
ENDBRANCH   3  44
TORSDOF 9
