REMARK  Name = 
REMARK  6 active torsions:
REMARK  status: ('A' for Active; 'I' for Inactive)
REMARK    1  A    between atoms: O_2  and  C_3
REMARK    2  A    between atoms: C_15  and  C_18
REMARK    3  A    between atoms: C_21  and  O_22
REMARK    4  A    between atoms: O_22  and  C_23
REMARK    5  A    between atoms: C_23  and  C_24
REMARK    6  A    between atoms: C_24  and  N_25
REMARK                            x       y       z     vdW  Elec       q    Type
REMARK                         _______ _______ _______ _____ _____    ______ ____
ROOT
ATOM      1  C   UNL     1       6.210  -2.760   0.000  0.00  0.00    +0.000 A 
ATOM      2  C   UNL     1       6.925  -2.348   0.000  0.00  0.00    +0.000 A 
ATOM      3  C   UNL     1       7.639  -2.760   0.000  0.00  0.00    +0.000 A 
ATOM      4  C   UNL     1       7.639  -3.585   0.000  0.00  0.00    +0.000 A 
ATOM      5  C   UNL     1       6.925  -3.998   0.000  0.00  0.00    +0.000 A 
ATOM      6  C   UNL     1       6.210  -3.585   0.000  0.00  0.00    +0.000 A 
ENDROOT
BRANCH   1  19
ATOM      7  C   UNL     1       1.139  -1.365   0.000  0.00  0.00    +0.000 A 
ATOM      8  N   UNL     1       0.654  -0.698   0.000  0.00  0.00    +0.000 NA
ATOM      9  N   UNL     1       1.139  -0.030   0.000  0.00  0.00    +0.000 NA
ATOM     10  C   UNL     1       1.923  -0.285   0.000  0.00  0.00    +0.000 A 
ATOM     11  C   UNL     1       2.638   0.127   0.000  0.00  0.00    +0.000 A 
ATOM     12  C   UNL     1       3.352  -0.285   0.000  0.00  0.00    +0.000 A 
ATOM     13  C   UNL     1       3.352  -1.110   0.000  0.00  0.00    +0.000 A 
ATOM     14  N   UNL     1       2.638  -1.523   0.000  0.00  0.00    +0.000 NA
ATOM     15  N   UNL     1       1.923  -1.110   0.000  0.00  0.00    +0.000 N 
ATOM     16  N   UNL     1       4.067  -1.523   0.000  0.00  0.00    +0.000 N 
ATOM     17  C   UNL     1       4.781  -1.110   0.000  0.00  0.00    +0.000 C 
ATOM     18  C   UNL     1       5.496  -1.523   0.000  0.00  0.00    +0.000 C 
ATOM     19  C   UNL     1       5.496  -2.348   0.000  0.00  0.00    +0.000 C 
ATOM     20  C   UNL     1       4.781  -2.760   0.000  0.00  0.00    +0.000 C 
ATOM     21  C   UNL     1       4.067  -2.348   0.000  0.00  0.00    +0.000 C 
BRANCH   7  23
ATOM     22  C   UNL     1       0.077  -2.321   0.000  0.00  0.00    +0.000 C 
ATOM     23  O   UNL     1       0.884  -2.150   0.000  0.00  0.00    +0.000 OA
ENDBRANCH   7  23
ENDBRANCH   1  19
BRANCH   4  24
ATOM     24  O   UNL     1       8.354  -3.998   0.000  0.00  0.00    +0.000 OA
BRANCH  24  25
ATOM     25  C   UNL     1       8.354  -4.823   0.000  0.00  0.00    +0.000 C 
BRANCH  25  26
ATOM     26  C   UNL     1       9.068  -5.235   0.000  0.00  0.00    +0.000 C 
BRANCH  26  27
ATOM     27  N   UNL     1       9.068  -6.060   0.000  0.00  0.00    +0.000 NA
ATOM     28  C   UNL     1       9.783  -6.473   0.000  0.00  0.00    +0.000 C 
ATOM     29  C   UNL     1       9.783  -7.298   0.000  0.00  0.00    +0.000 C 
ATOM     30  N   UNL     1       9.068  -7.710   0.000  0.00  0.00    +0.000 N 
ATOM     31  C   UNL     1       9.068  -8.535   0.000  0.00  0.00    +0.000 C 
ATOM     32  C   UNL     1       8.354  -7.298   0.000  0.00  0.00    +0.000 C 
ATOM     33  O   UNL     1       7.639  -7.710   0.000  0.00  0.00    +0.000 OA
ATOM     34  C   UNL     1       8.354  -6.473   0.000  0.00  0.00    +0.000 C 
ATOM     35  C   UNL     1       7.639  -6.060   0.000  0.00  0.00    +0.000 C 
ENDBRANCH  26  27
ENDBRANCH  25  26
ENDBRANCH  24  25
ENDBRANCH   4  24
TORSDOF 6
