REMARK  Name = 
REMARK  5 active torsions:
REMARK  status: ('A' for Active; 'I' for Inactive)
REMARK    1  A    between atoms: C_2  and  O_5
REMARK    2  A    between atoms: O_5  and  C_7
REMARK    3  A    between atoms: O_6  and  C_8
REMARK    4  A    between atoms: C_7  and  C_9
REMARK    5  A    between atoms: C_12  and  C_15
REMARK                            x       y       z     vdW  Elec       q    Type
REMARK                         _______ _______ _______ _____ _____    ______ ____
ROOT
ATOM      1  C   UNL     1      -2.502  -0.379   0.000  0.00  0.00    +0.000 A 
ATOM      2  C   UNL     1      -1.798  -0.806   0.000  0.00  0.00    +0.000 A 
ATOM      3  C   UNL     1      -2.481   0.433   0.000  0.00  0.00    +0.000 A 
ATOM      4  C   UNL     1      -1.067  -0.409   0.000  0.00  0.00    +0.000 A 
ATOM      5  C   UNL     1      -1.757   0.839   0.000  0.00  0.00    +0.000 A 
ATOM      6  C   UNL     1      -1.049   0.408   0.000  0.00  0.00    +0.000 A 
ENDROOT
BRANCH   1   8
ATOM      7  C   UNL     1      -3.246  -1.599   0.000  0.00  0.00    +0.000 C 
ATOM      8  O   UNL     1      -3.226  -0.775   0.000  0.00  0.00    +0.000 OA
ENDBRANCH   1   8
BRANCH   6  10
ATOM      9  C   UNL     1       0.372   0.380   0.000  0.00  0.00    +0.000 C 
ATOM     10  C   UNL     1      -0.335   0.797   0.000  0.00  0.00    +0.000 C 
BRANCH   9  12
ATOM     11  O   UNL     1       1.123   1.599   0.000  0.00  0.00    +0.000 OA
ATOM     12  C   UNL     1       1.101   0.767   0.000  0.00  0.00    +0.000 C 
BRANCH  12  13
ATOM     13  O   UNL     1       1.804   0.354   0.000  0.00  0.00    +0.000 OA
BRANCH  13  15
ATOM     14  C   UNL     1       3.246   0.323   0.000  0.00  0.00    +0.000 C 
ATOM     15  C   UNL     1       2.531   0.747   0.000  0.00  0.00    +0.000 C 
ENDBRANCH  13  15
ENDBRANCH  12  13
ENDBRANCH   9  12
ENDBRANCH   6  10
TORSDOF 5
