REMARK  Name = 
REMARK  3 active torsions:
REMARK  status: ('A' for Active; 'I' for Inactive)
REMARK    1  A    between atoms: C_1  and  C_16
REMARK    2  A    between atoms: N_8  and  C_10
REMARK    3  A    between atoms: C_20  and  N_22
REMARK                            x       y       z     vdW  Elec       q    Type
REMARK                         _______ _______ _______ _____ _____    ______ ____
ROOT
ATOM      1  C   UNL     1      -1.158  -0.523   0.000  0.00  0.00    +0.000 A 
ATOM      2  N   UNL     1      -1.872  -0.936   0.000  0.00  0.00    +0.000 N 
ATOM      3  C   UNL     1      -1.872  -1.761   0.000  0.00  0.00    +0.000 A 
ATOM      4  C   UNL     1      -1.158  -2.173   0.000  0.00  0.00    +0.000 A 
ATOM      5  C   UNL     1      -0.443  -1.761   0.000  0.00  0.00    +0.000 A 
ATOM      6  C   UNL     1      -0.443  -0.936   0.000  0.00  0.00    +0.000 A 
ATOM      7  N   UNL     1       0.341  -2.016   0.000  0.00  0.00    +0.000 NA
ATOM      8  N   UNL     1       0.826  -1.348   0.000  0.00  0.00    +0.000 N 
ATOM      9  C   UNL     1       0.341  -0.681   0.000  0.00  0.00    +0.000 A 
ATOM     10  C   UNL     1      -2.587  -0.523   0.000  0.00  0.00    +0.000 C 
ATOM     11  O   UNL     1      -2.587  -2.173   0.000  0.00  0.00    +0.000 OA
ATOM     12  O   UNL     1       0.596   0.104   0.000  0.00  0.00    +0.000 OA
ENDROOT
BRANCH   8  13
ATOM     13  C   UNL     1       1.651  -1.348   0.000  0.00  0.00    +0.000 A 
ATOM     14  C   UNL     1       3.301  -1.348   0.000  0.00  0.00    +0.000 A 
ATOM     15  C   UNL     1       2.889  -0.634   0.000  0.00  0.00    +0.000 A 
ATOM     16  C   UNL     1       2.064  -0.634   0.000  0.00  0.00    +0.000 A 
ATOM     17  C   UNL     1       2.064  -2.063   0.000  0.00  0.00    +0.000 A 
ATOM     18  C   UNL     1       2.889  -2.063   0.000  0.00  0.00    +0.000 A 
ATOM     19 CL   UNL     1       1.651  -2.777   0.000  0.00  0.00    +0.000 Cl
ENDBRANCH   8  13
BRANCH   1  20
ATOM     20  C   UNL     1      -1.158   0.302   0.000  0.00  0.00    +0.000 A 
ATOM     21  C   UNL     1      -0.443   0.715   0.000  0.00  0.00    +0.000 A 
ATOM     22  C   UNL     1      -0.443   1.540   0.000  0.00  0.00    +0.000 A 
ATOM     23  C   UNL     1      -1.158   1.952   0.000  0.00  0.00    +0.000 A 
ATOM     24  C   UNL     1      -1.872   1.540   0.000  0.00  0.00    +0.000 A 
ATOM     25  C   UNL     1      -1.872   0.715   0.000  0.00  0.00    +0.000 A 
BRANCH  24  26
ATOM     26  N   UNL     1      -2.587   1.952   0.000  0.00  0.00    +0.000 N 
ATOM     27  C   UNL     1      -3.301   1.540   0.000  0.00  0.00    +0.000 C 
ATOM     28  C   UNL     1      -2.587   2.777   0.000  0.00  0.00    +0.000 C 
ENDBRANCH  24  26
ENDBRANCH   1  20
TORSDOF 3
