REMARK  Name = 
REMARK  4 active torsions:
REMARK  status: ('A' for Active; 'I' for Inactive)
REMARK    1  A    between atoms: SE_2  and  C_3
REMARK    2  A    between atoms: C_3  and  C_4
REMARK    3  A    between atoms: C_4  and  CA_5
REMARK    4  A    between atoms: CA_5  and  C_6
REMARK                            x       y       z     vdW  Elec       q    Type
REMARK                         _______ _______ _______ _____ _____    ______ ____
ROOT
ATOM      1  CA  UNL     1       4.618   1.841   0.000  0.00  0.00    +0.000 C 
ATOM      2  N   UNL     1       4.618   2.666   0.000  0.00  0.00    +0.000 NA
ENDROOT
BRANCH   1   3
ATOM      3  C   UNL     1       5.333   1.429   0.000  0.00  0.00    +0.000 C 
ATOM      4  O   UNL     1       6.047   1.841   0.000  0.00  0.00    +0.000 OA
ATOM      5  OXT UNL     1       5.333   0.604   0.000  0.00  0.00    +0.000 OA
ENDBRANCH   1   3
BRANCH   1   6
ATOM      6  C   UNL     1       3.904   1.429   0.000  0.00  0.00    +0.000 C 
BRANCH   6   7
ATOM      7  C   UNL     1       3.189   1.841   0.000  0.00  0.00    +0.000 C 
BRANCH   7   9
ATOM      8  C   UNL     1       1.760   1.016   0.000  0.00  0.00    +0.000 C 
ATOM      9 SE   UNL     1       2.475   1.429   0.000  0.00  0.00    +0.000 Se
ENDBRANCH   7   9
ENDBRANCH   6   7
ENDBRANCH   1   6
TORSDOF 4
