REMARK  Name = 
REMARK  10 active torsions:
REMARK  status: ('A' for Active; 'I' for Inactive)
REMARK    1  A    between atoms: N_9  and  C_10
REMARK    2  A    between atoms: C_10  and  C_12
REMARK    3  A    between atoms: C_16  and  N_17
REMARK    4  A    between atoms: N_17  and  C_23
REMARK    5  A    between atoms: C_19  and  O_20
REMARK    6  A    between atoms: C_19  and  C_23
REMARK    7  A    between atoms: O_20  and  C_21
REMARK    8  A    between atoms: C_23  and  C_24
REMARK    9  A    between atoms: C_24  and  C_25
REMARK   10  A    between atoms: C_25  and  C_26
REMARK                            x       y       z     vdW  Elec       q    Type
REMARK                         _______ _______ _______ _____ _____    ______ ____
ROOT
ATOM      1  C   UNL     1      -1.510   0.830   0.000  0.00  0.00    +0.000 C 
ATOM      2  C   UNL     1      -0.687   0.830   0.000  0.00  0.00    +0.000 C 
ATOM      3  C   UNL     1      -1.848  -0.613   0.000  0.00  0.00    +0.000 A 
ATOM      4  C   UNL     1      -2.027   0.187   0.000  0.00  0.00    +0.000 A 
ATOM      5  C   UNL     1      -2.454  -1.179   0.000  0.00  0.00    +0.000 A 
ATOM      6  C   UNL     1      -3.237  -0.936   0.000  0.00  0.00    +0.000 A 
ATOM      7  C   UNL     1      -3.419  -0.132   0.000  0.00  0.00    +0.000 A 
ATOM      8  C   UNL     1      -2.818   0.431   0.000  0.00  0.00    +0.000 A 
ATOM      9  N   UNL     1      -1.102  -0.976   0.000  0.00  0.00    +0.000 N 
ATOM     10  C   UNL     1      -0.359  -0.618   0.000  0.00  0.00    +0.000 C 
ATOM     11  O   UNL     1       0.283  -1.135   0.000  0.00  0.00    +0.000 OA
ATOM     12  C   UNL     1      -0.177   0.188   0.000  0.00  0.00    +0.000 C 
ENDROOT
BRANCH   9  13
ATOM     13  C   UNL     1      -1.106  -1.803   0.000  0.00  0.00    +0.000 C 
BRANCH  13  15
ATOM     14  O   UNL     1       0.324  -1.806   0.000  0.00  0.00    +0.000 OA
ATOM     15  C   UNL     1      -0.389  -2.218   0.000  0.00  0.00    +0.000 C 
ATOM     16  O   UNL     1      -0.393  -3.044   0.000  0.00  0.00    +0.000 OA
ENDBRANCH  13  15
ENDBRANCH   9  13
BRANCH  12  17
ATOM     17  N   UNL     1       0.547   0.577   0.000  0.00  0.00    +0.000 NA
BRANCH  17  18
ATOM     18  C   UNL     1       0.558   1.405   0.000  0.00  0.00    +0.000 C 
BRANCH  18  20
ATOM     19  O   UNL     1       1.270   2.650   0.000  0.00  0.00    +0.000 OA
ATOM     20  C   UNL     1       1.271   1.821   0.000  0.00  0.00    +0.000 C 
BRANCH  20  21
ATOM     21  O   UNL     1       1.989   1.415   0.000  0.00  0.00    +0.000 OA
BRANCH  21  22
ATOM     22  C   UNL     1       2.706   1.832   0.000  0.00  0.00    +0.000 C 
ATOM     23  C   UNL     1       3.419   1.420   0.000  0.00  0.00    +0.000 C 
ENDBRANCH  21  22
ENDBRANCH  20  21
ENDBRANCH  18  20
BRANCH  18  24
ATOM     24  C   UNL     1      -0.156   1.813   0.000  0.00  0.00    +0.000 C 
BRANCH  24  25
ATOM     25  C   UNL     1      -0.867   1.396   0.000  0.00  0.00    +0.000 C 
BRANCH  25  26
ATOM     26  C   UNL     1      -1.587   1.806   0.000  0.00  0.00    +0.000 A 
ATOM     27  C   UNL     1      -2.301   3.044   0.000  0.00  0.00    +0.000 A 
ATOM     28  C   UNL     1      -1.589   2.631   0.000  0.00  0.00    +0.000 A 
ATOM     29  C   UNL     1      -2.298   1.389   0.000  0.00  0.00    +0.000 A 
ATOM     30  C   UNL     1      -3.018   1.800   0.000  0.00  0.00    +0.000 A 
ATOM     31  C   UNL     1      -3.018   2.630   0.000  0.00  0.00    +0.000 A 
ENDBRANCH  25  26
ENDBRANCH  24  25
ENDBRANCH  18  24
ENDBRANCH  17  18
ENDBRANCH  12  17
TORSDOF 10
