REMARK  Name = 
REMARK  58 active torsions:
REMARK  status: ('A' for Active; 'I' for Inactive)
REMARK    1  A    between atoms: C_2  and  C_3
REMARK    2  A    between atoms: C_3  and  C_4
REMARK    3  A    between atoms: C_4  and  C_5
REMARK    4  A    between atoms: C_5  and  C_6
REMARK    5  A    between atoms: C_6  and  C_7
REMARK    6  A    between atoms: C_7  and  C_8
REMARK    7  A    between atoms: C_8  and  C_9
REMARK    8  A    between atoms: C_9  and  C_10
REMARK    9  A    between atoms: C_10  and  C_11
REMARK   10  A    between atoms: C_11  and  C_12
REMARK   11  A    between atoms: C_12  and  C_13
REMARK   12  A    between atoms: C_13  and  C_14
REMARK   13  A    between atoms: C_14  and  C_15
REMARK   14  A    between atoms: C_15  and  C_16
REMARK   15  A    between atoms: C_16  and  O_18
REMARK   16  A    between atoms: O_18  and  C_19
REMARK   17  A    between atoms: C_19  and  C_20
REMARK   18  A    between atoms: C_20  and  C_21
REMARK   19  A    between atoms: C_20  and  O_75
REMARK   20  A    between atoms: C_21  and  O_22
REMARK   21  A    between atoms: O_22  and  C_23
REMARK   22  A    between atoms: C_23  and  C_25
REMARK   23  A    between atoms: C_25  and  N_27
REMARK   24  A    between atoms: C_28  and  C_30
REMARK   25  A    between atoms: C_30  and  C_31
REMARK   26  A    between atoms: C_31  and  C_32
REMARK   27  A    between atoms: C_32  and  N_33
REMARK   28  A    between atoms: C_32  and  C_72
REMARK   29  A    between atoms: C_34  and  C_36
REMARK   30  A    between atoms: C_36  and  N_38
REMARK   31  A    between atoms: C_39  and  C_41
REMARK   32  A    between atoms: C_41  and  O_43
REMARK   33  A    between atoms: O_43  and  C_44
REMARK   34  A    between atoms: C_44  and  CA_45
REMARK   35  A    between atoms: C_44  and  C_52
REMARK   36  A    between atoms: CA_45  and  N_46
REMARK   37  A    between atoms: CA_45  and  C_50
REMARK   38  A    between atoms: C_52  and  O_53
REMARK   39  A    between atoms: C_52  and  C_68
REMARK   40  A    between atoms: O_53  and  C_54
REMARK   41  A    between atoms: C_56  and  C_57
REMARK   42  A    between atoms: C_63  and  N_64
REMARK   43  A    between atoms: C_68  and  C_70
REMARK   44  A    between atoms: O_75  and  C_76
REMARK   45  A    between atoms: C_76  and  C_78
REMARK   46  A    between atoms: C_78  and  C_79
REMARK   47  A    between atoms: C_79  and  C_80
REMARK   48  A    between atoms: C_80  and  C_81
REMARK   49  A    between atoms: C_81  and  C_82
REMARK   50  A    between atoms: C_82  and  C_83
REMARK   51  A    between atoms: C_83  and  C_84
REMARK   52  A    between atoms: C_84  and  C_85
REMARK   53  A    between atoms: C_85  and  C_86
REMARK   54  A    between atoms: C_86  and  C_87
REMARK   55  A    between atoms: C_87  and  C_88
REMARK   56  A    between atoms: C_88  and  C_89
REMARK   57  A    between atoms: C_89  and  C_90
REMARK   58  A    between atoms: C_90  and  C_91
REMARK                            x       y       z     vdW  Elec       q    Type
REMARK                         _______ _______ _______ _____ _____    ______ ____
ROOT
ATOM      1  N   UNL     1      27.152 -23.017   0.000  0.00  0.00    +0.000 NA
ATOM      2  C   UNL     1      27.845 -23.464   0.000  0.00  0.00    +0.000 C 
ATOM      3  O   UNL     1      27.804 -24.288   0.000  0.00  0.00    +0.000 OA
ENDROOT
BRANCH   1   4
ATOM      4  C   UNL     1      26.418 -23.394   0.000  0.00  0.00    +0.000 C 
ATOM      5  C   UNL     1      26.377 -24.218   0.000  0.00  0.00    +0.000 C 
BRANCH   4   6
ATOM      6  C   UNL     1      25.725 -22.947   0.000  0.00  0.00    +0.000 C 
ATOM      7  O   UNL     1      25.765 -22.122   0.000  0.00  0.00    +0.000 OA
BRANCH   6   8
ATOM      8  O   UNL     1      24.991 -23.323   0.000  0.00  0.00    +0.000 OA
BRANCH   8   9
ATOM      9  C   UNL     1      24.298 -22.876   0.000  0.00  0.00    +0.000 C 
BRANCH   9  10
ATOM     10  C   UNL     1      23.564 -23.253   0.000  0.00  0.00    +0.000 C 
BRANCH  10  11
ATOM     11  C   UNL     1      22.870 -22.805   0.000  0.00  0.00    +0.000 C 
BRANCH  11  12
ATOM     12  O   UNL     1      22.136 -23.182   0.000  0.00  0.00    +0.000 OA
BRANCH  12  13
ATOM     13  C   UNL     1      21.443 -22.735   0.000  0.00  0.00    +0.000 C 
ATOM     14  O   UNL     1      21.484 -21.911   0.000  0.00  0.00    +0.000 OA
BRANCH  13  15
ATOM     15  C   UNL     1      20.709 -23.111   0.000  0.00  0.00    +0.000 C 
BRANCH  15  16
ATOM     16  C   UNL     1      20.016 -22.664   0.000  0.00  0.00    +0.000 C 
BRANCH  16  17
ATOM     17  C   UNL     1      19.282 -23.041   0.000  0.00  0.00    +0.000 C 
BRANCH  17  18
ATOM     18  C   UNL     1      18.589 -22.593   0.000  0.00  0.00    +0.000 C 
BRANCH  18  19
ATOM     19  C   UNL     1      17.855 -22.970   0.000  0.00  0.00    +0.000 C 
BRANCH  19  20
ATOM     20  C   UNL     1      17.162 -22.523   0.000  0.00  0.00    +0.000 C 
BRANCH  20  21
ATOM     21  C   UNL     1      16.428 -22.899   0.000  0.00  0.00    +0.000 C 
BRANCH  21  22
ATOM     22  C   UNL     1      15.734 -22.452   0.000  0.00  0.00    +0.000 C 
BRANCH  22  23
ATOM     23  C   UNL     1      15.000 -22.829   0.000  0.00  0.00    +0.000 C 
BRANCH  23  24
ATOM     24  C   UNL     1      14.307 -22.381   0.000  0.00  0.00    +0.000 C 
BRANCH  24  25
ATOM     25  C   UNL     1      13.573 -22.758   0.000  0.00  0.00    +0.000 C 
BRANCH  25  26
ATOM     26  C   UNL     1      12.880 -22.311   0.000  0.00  0.00    +0.000 C 
BRANCH  26  27
ATOM     27  C   UNL     1      12.146 -22.688   0.000  0.00  0.00    +0.000 C 
BRANCH  27  29
ATOM     28  C   UNL     1      10.719 -22.617   0.000  0.00  0.00    +0.000 C 
ATOM     29  C   UNL     1      11.453 -22.240   0.000  0.00  0.00    +0.000 C 
ENDBRANCH  27  29
ENDBRANCH  26  27
ENDBRANCH  25  26
ENDBRANCH  24  25
ENDBRANCH  23  24
ENDBRANCH  22  23
ENDBRANCH  21  22
ENDBRANCH  20  21
ENDBRANCH  19  20
ENDBRANCH  18  19
ENDBRANCH  17  18
ENDBRANCH  16  17
ENDBRANCH  15  16
ENDBRANCH  13  15
ENDBRANCH  12  13
ENDBRANCH  11  12
ENDBRANCH  10  11
BRANCH  10  30
ATOM     30  O   UNL     1      23.523 -24.076   0.000  0.00  0.00    +0.000 OA
BRANCH  30  31
ATOM     31  C   UNL     1      24.216 -24.524   0.000  0.00  0.00    +0.000 C 
ATOM     32  O   UNL     1      24.950 -24.147   0.000  0.00  0.00    +0.000 OA
BRANCH  31  33
ATOM     33  C   UNL     1      24.175 -25.348   0.000  0.00  0.00    +0.000 C 
BRANCH  33  34
ATOM     34  C   UNL     1      24.868 -25.795   0.000  0.00  0.00    +0.000 C 
BRANCH  34  35
ATOM     35  C   UNL     1      24.828 -26.619   0.000  0.00  0.00    +0.000 C 
BRANCH  35  36
ATOM     36  C   UNL     1      25.521 -27.066   0.000  0.00  0.00    +0.000 C 
BRANCH  36  37
ATOM     37  C   UNL     1      25.480 -27.890   0.000  0.00  0.00    +0.000 C 
BRANCH  37  38
ATOM     38  C   UNL     1      26.173 -28.338   0.000  0.00  0.00    +0.000 C 
BRANCH  38  39
ATOM     39  C   UNL     1      26.133 -29.162   0.000  0.00  0.00    +0.000 C 
BRANCH  39  40
ATOM     40  C   UNL     1      26.826 -29.609   0.000  0.00  0.00    +0.000 C 
BRANCH  40  41
ATOM     41  C   UNL     1      26.785 -30.433   0.000  0.00  0.00    +0.000 C 
BRANCH  41  42
ATOM     42  C   UNL     1      27.478 -30.880   0.000  0.00  0.00    +0.000 C 
BRANCH  42  43
ATOM     43  C   UNL     1      27.437 -31.704   0.000  0.00  0.00    +0.000 C 
BRANCH  43  44
ATOM     44  C   UNL     1      28.131 -32.152   0.000  0.00  0.00    +0.000 C 
BRANCH  44  45
ATOM     45  C   UNL     1      28.090 -32.976   0.000  0.00  0.00    +0.000 C 
BRANCH  45  46
ATOM     46  C   UNL     1      28.783 -33.423   0.000  0.00  0.00    +0.000 C 
ATOM     47  C   UNL     1      28.742 -34.247   0.000  0.00  0.00    +0.000 C 
ENDBRANCH  45  46
ENDBRANCH  44  45
ENDBRANCH  43  44
ENDBRANCH  42  43
ENDBRANCH  41  42
ENDBRANCH  40  41
ENDBRANCH  39  40
ENDBRANCH  38  39
ENDBRANCH  37  38
ENDBRANCH  36  37
ENDBRANCH  35  36
ENDBRANCH  34  35
ENDBRANCH  33  34
ENDBRANCH  31  33
ENDBRANCH  30  31
ENDBRANCH  10  30
ENDBRANCH   9  10
ENDBRANCH   8   9
ENDBRANCH   6   8
ENDBRANCH   4   6
ENDBRANCH   1   4
BRANCH   2  48
ATOM     48  C   UNL     1      28.579 -23.088   0.000  0.00  0.00    +0.000 C 
BRANCH  48  49
ATOM     49  C   UNL     1      29.272 -23.535   0.000  0.00  0.00    +0.000 C 
BRANCH  49  50
ATOM     50  C   UNL     1      30.006 -23.158   0.000  0.00  0.00    +0.000 C 
BRANCH  50  51
ATOM     51  C   UNL     1      30.047 -22.334   0.000  0.00  0.00    +0.000 C 
ATOM     52  N   UNL     1      30.781 -21.958   0.000  0.00  0.00    +0.000 NA
ATOM     53  O   UNL     1      29.354 -21.887   0.000  0.00  0.00    +0.000 OA
ENDBRANCH  50  51
BRANCH  50  54
ATOM     54  N   UNL     1      30.700 -23.606   0.000  0.00  0.00    +0.000 NA
ATOM     55  C   UNL     1      31.433 -23.229   0.000  0.00  0.00    +0.000 C 
ATOM     56  O   UNL     1      31.474 -22.405   0.000  0.00  0.00    +0.000 OA
BRANCH  55  57
ATOM     57  C   UNL     1      32.127 -23.676   0.000  0.00  0.00    +0.000 C 
ATOM     58  C   UNL     1      32.086 -24.500   0.000  0.00  0.00    +0.000 C 
BRANCH  57  59
ATOM     59  N   UNL     1      32.861 -23.300   0.000  0.00  0.00    +0.000 NA
ATOM     60  C   UNL     1      33.554 -23.747   0.000  0.00  0.00    +0.000 C 
ATOM     61  O   UNL     1      33.513 -24.571   0.000  0.00  0.00    +0.000 OA
BRANCH  60  62
ATOM     62  C   UNL     1      34.288 -23.370   0.000  0.00  0.00    +0.000 C 
ATOM     63  C   UNL     1      34.329 -22.546   0.000  0.00  0.00    +0.000 C 
BRANCH  62  64
ATOM     64  O   UNL     1      34.981 -23.817   0.000  0.00  0.00    +0.000 OA
BRANCH  64  65
ATOM     65  C   UNL     1      35.715 -23.441   0.000  0.00  0.00    +0.000 C 
BRANCH  65  66
ATOM     66  CA  UNL     1      35.756 -22.617   0.000  0.00  0.00    +0.000 C 
BRANCH  66  67
ATOM     67  N   UNL     1      36.490 -22.240   0.000  0.00  0.00    +0.000 NA
ATOM     68  C   UNL     1      36.531 -21.416   0.000  0.00  0.00    +0.000 C 
ATOM     69  C   UNL     1      37.265 -21.040   0.000  0.00  0.00    +0.000 C 
ATOM     70  O   UNL     1      35.837 -20.969   0.000  0.00  0.00    +0.000 OA
ENDBRANCH  66  67
BRANCH  66  71
ATOM     71  C   UNL     1      35.063 -22.170   0.000  0.00  0.00    +0.000 C 
ATOM     72  O   UNL     1      35.103 -21.346   0.000  0.00  0.00    +0.000 OA
ENDBRANCH  66  71
ENDBRANCH  65  66
BRANCH  65  73
ATOM     73  C   UNL     1      36.408 -23.888   0.000  0.00  0.00    +0.000 C 
BRANCH  73  74
ATOM     74  C   UNL     1      37.142 -23.512   0.000  0.00  0.00    +0.000 C 
ATOM     75  O   UNL     1      37.836 -23.959   0.000  0.00  0.00    +0.000 OA
BRANCH  74  76
ATOM     76  C   UNL     1      37.183 -22.688   0.000  0.00  0.00    +0.000 C 
ATOM     77  O   UNL     1      37.917 -22.311   0.000  0.00  0.00    +0.000 OA
ENDBRANCH  74  76
ENDBRANCH  73  74
BRANCH  73  78
ATOM     78  O   UNL     1      36.368 -24.712   0.000  0.00  0.00    +0.000 OA
BRANCH  78  79
ATOM     79  C   UNL     1      37.061 -25.160   0.000  0.00  0.00    +0.000 C 
ATOM     80  O   UNL     1      37.795 -24.783   0.000  0.00  0.00    +0.000 OA
ATOM     81  C   UNL     1      38.488 -25.230   0.000  0.00  0.00    +0.000 C 
ATOM     82  C   UNL     1      38.447 -26.054   0.000  0.00  0.00    +0.000 C 
ATOM     83  O   UNL     1      39.140 -26.501   0.000  0.00  0.00    +0.000 OA
ATOM     84  C   UNL     1      37.713 -26.431   0.000  0.00  0.00    +0.000 C 
ATOM     85  O   UNL     1      37.672 -27.255   0.000  0.00  0.00    +0.000 OA
ATOM     86  C   UNL     1      37.020 -25.983   0.000  0.00  0.00    +0.000 C 
BRANCH  86  87
ATOM     87  N   UNL     1      36.286 -26.360   0.000  0.00  0.00    +0.000 NA
ATOM     88  C   UNL     1      36.245 -27.184   0.000  0.00  0.00    +0.000 C 
ATOM     89  C   UNL     1      35.511 -27.561   0.000  0.00  0.00    +0.000 C 
ATOM     90  O   UNL     1      36.938 -27.631   0.000  0.00  0.00    +0.000 OA
ENDBRANCH  86  87
BRANCH  81  91
ATOM     91  C   UNL     1      39.222 -24.853   0.000  0.00  0.00    +0.000 C 
ATOM     92  O   UNL     1      39.263 -24.029   0.000  0.00  0.00    +0.000 OA
ENDBRANCH  81  91
ENDBRANCH  78  79
ENDBRANCH  73  78
ENDBRANCH  65  73
ENDBRANCH  64  65
ENDBRANCH  62  64
ENDBRANCH  60  62
ENDBRANCH  57  59
ENDBRANCH  55  57
ENDBRANCH  50  54
ENDBRANCH  49  50
ENDBRANCH  48  49
ENDBRANCH   2  48
TORSDOF 58
