REMARK  Name = 
REMARK  93 active torsions:
REMARK  status: ('A' for Active; 'I' for Inactive)
REMARK    1  A    between atoms: C_1  and  CA_2
REMARK    2  A    between atoms: CA_2  and  CB_5
REMARK    3  A    between atoms: N_7  and  CA_10
REMARK    4  A    between atoms: C_8  and  CA_10
REMARK    5  A    between atoms: CA_10  and  CB_11
REMARK    6  A    between atoms: CB_11  and  CG_12
REMARK    7  A    between atoms: N_19  and  CA_21
REMARK    8  A    between atoms: C_20  and  CA_21
REMARK    9  A    between atoms: CA_21  and  CB_23
REMARK   10  A    between atoms: N_25  and  CA_28
REMARK   11  A    between atoms: C_26  and  CA_28
REMARK   12  A    between atoms: CA_28  and  CB_30
REMARK   13  A    between atoms: SD_29  and  CG_31
REMARK   14  A    between atoms: CB_30  and  CG_31
REMARK   15  A    between atoms: N_33  and  CA_37
REMARK   16  A    between atoms: C_34  and  CA_37
REMARK   17  A    between atoms: CD_35  and  CG_40
REMARK   18  A    between atoms: CA_37  and  CB_39
REMARK   19  A    between atoms: CB_39  and  CG_40
REMARK   20  A    between atoms: N_42  and  CA_45
REMARK   21  A    between atoms: C_43  and  CA_45
REMARK   22  A    between atoms: CA_45  and  CB_46
REMARK   23  A    between atoms: CB_46  and  CG_47
REMARK   24  A    between atoms: N_52  and  CA_54
REMARK   25  A    between atoms: C_53  and  CA_54
REMARK   26  A    between atoms: CA_54  and  CB_56
REMARK   27  A    between atoms: CB_56  and  CG_57
REMARK   28  A    between atoms: N_63  and  CA_69
REMARK   29  A    between atoms: C_65  and  CA_69
REMARK   30  A    between atoms: NE_68  and  CD_71
REMARK   31  A    between atoms: CA_69  and  CB_72
REMARK   32  A    between atoms: CD_71  and  CG_73
REMARK   33  A    between atoms: CB_72  and  CG_73
REMARK   34  A    between atoms: N_74  and  CA_77
REMARK   35  A    between atoms: C_75  and  CA_77
REMARK   36  A    between atoms: CA_77  and  CB_78
REMARK   37  A    between atoms: CB_78  and  CG_79
REMARK   38  A    between atoms: N_88  and  CA_91
REMARK   39  A    between atoms: C_89  and  CA_91
REMARK   40  A    between atoms: N_92  and  CA_95
REMARK   41  A    between atoms: C_93  and  CA_95
REMARK   42  A    between atoms: CA_95  and  CB_98
REMARK   43  A    between atoms: CE_97  and  CD_99
REMARK   44  A    between atoms: CB_98  and  CG_100
REMARK   45  A    between atoms: CD_99  and  CG_100
REMARK   46  A    between atoms: CA_102  and  C_106
REMARK   47  A    between atoms: N_108  and  CA_110
REMARK   48  A    between atoms: C_109  and  CA_110
REMARK   49  A    between atoms: CA_110  and  CB_112
REMARK   50  A    between atoms: N_115  and  CA_118
REMARK   51  A    between atoms: C_116  and  CA_118
REMARK   52  A    between atoms: N_119  and  CA_122
REMARK   53  A    between atoms: C_120  and  CA_122
REMARK   54  A    between atoms: CA_122  and  CB_125
REMARK   55  A    between atoms: CE_124  and  CD_126
REMARK   56  A    between atoms: CB_125  and  CG_127
REMARK   57  A    between atoms: CD_126  and  CG_127
REMARK   58  A    between atoms: N_128  and  CA_131
REMARK   59  A    between atoms: C_129  and  CA_131
REMARK   60  A    between atoms: CA_131  and  CB_134
REMARK   61  A    between atoms: CE_133  and  CD_135
REMARK   62  A    between atoms: CB_134  and  CG_136
REMARK   63  A    between atoms: CD_135  and  CG_136
REMARK   64  A    between atoms: N_137  and  CA_143
REMARK   65  A    between atoms: C_139  and  CA_143
REMARK   66  A    between atoms: NE_142  and  CD_145
REMARK   67  A    between atoms: CA_143  and  CB_146
REMARK   68  A    between atoms: CD_145  and  CG_147
REMARK   69  A    between atoms: CB_146  and  CG_147
REMARK   70  A    between atoms: N_148  and  CA_154
REMARK   71  A    between atoms: C_150  and  CA_154
REMARK   72  A    between atoms: NE_153  and  CD_156
REMARK   73  A    between atoms: CA_154  and  CB_157
REMARK   74  A    between atoms: CD_156  and  CG_158
REMARK   75  A    between atoms: CB_157  and  CG_158
REMARK   76  A    between atoms: CA_160  and  C_164
REMARK   77  A    between atoms: N_166  and  CA_168
REMARK   78  A    between atoms: C_167  and  CA_168
REMARK   79  A    between atoms: CA_168  and  CB_170
REMARK   80  A    between atoms: N_173  and  CA_176
REMARK   81  A    between atoms: C_174  and  CA_176
REMARK   82  A    between atoms: CA_176  and  CB_179
REMARK   83  A    between atoms: CE_178  and  CD_180
REMARK   84  A    between atoms: CB_179  and  CG_181
REMARK   85  A    between atoms: CD_180  and  CG_181
REMARK   86  A    between atoms: N_182  and  CA_184
REMARK   87  A    between atoms: C_183  and  CA_184
REMARK   88  A    between atoms: CA_184  and  CB_186
REMARK   89  A    between atoms: N_189  and  CA_192
REMARK   90  A    between atoms: C_190  and  CA_192
REMARK   91  A    between atoms: CA_192  and  CB_193
REMARK   92  A    between atoms: CB_193  and  CG_194
REMARK   93  A    between atoms: CA_202  and  C_206
REMARK                            x       y       z     vdW  Elec       q    Type
REMARK                         _______ _______ _______ _____ _____    ______ ____
ROOT
ATOM      1  C   LYS A  11      -8.927   3.340   0.000  0.00  0.00    +0.000 C 
ATOM      2  N   PRO A  12      -8.213   2.927   0.000  0.00  0.00    +0.000 N 
ATOM      3  O   LYS A  11      -8.927   4.165   0.000  0.00  0.00    +0.000 OA
ATOM      4  CA  PRO A  12      -7.459   3.262   0.000  0.00  0.00    +0.000 C 
ATOM      5  CD  PRO A  12      -8.126   2.106   0.000  0.00  0.00    +0.000 C 
ATOM      6  CG  PRO A  12      -7.319   1.935   0.000  0.00  0.00    +0.000 C 
ATOM      7  CB  PRO A  12      -6.907   2.650   0.000  0.00  0.00    +0.000 C 
ENDROOT
BRANCH   4   8
ATOM      8  C   PRO A  12      -7.459   4.088   0.000  0.00  0.00    +0.000 C 
ATOM      9  O   PRO A  12      -8.173   4.500   0.000  0.00  0.00    +0.000 OA
ATOM     10  N   VAL A  13      -6.744   4.500   0.000  0.00  0.00    +0.000 NA
BRANCH  10  11
ATOM     11  CA  VAL A  13      -6.744   5.325   0.000  0.00  0.00    +0.000 C 
BRANCH  11  12
ATOM     12  C   VAL A  13      -6.030   5.737   0.000  0.00  0.00    +0.000 C 
ATOM     13  O   VAL A  13      -5.316   5.325   0.000  0.00  0.00    +0.000 OA
ATOM     14  N   GLY A  14      -6.030   6.563   0.000  0.00  0.00    +0.000 NA
BRANCH  14  15
ATOM     15  CA  GLY A  14      -5.315   6.975   0.000  0.00  0.00    +0.000 C 
BRANCH  15  16
ATOM     16  C   GLY A  14      -4.601   6.562   0.000  0.00  0.00    +0.000 C 
ATOM     17  O   GLY A  14      -3.886   6.975   0.000  0.00  0.00    +0.000 OA
ATOM     18  N   LYS A  15      -4.601   5.737   0.000  0.00  0.00    +0.000 NA
BRANCH  18  19
ATOM     19  CA  LYS A  15      -3.887   5.325   0.000  0.00  0.00    +0.000 C 
BRANCH  19  20
ATOM     20  C   LYS A  15      -3.172   5.737   0.000  0.00  0.00    +0.000 C 
ATOM     21  O   LYS A  15      -3.172   6.562   0.000  0.00  0.00    +0.000 OA
ATOM     22  N   LYS A  16      -2.458   5.325   0.000  0.00  0.00    +0.000 NA
BRANCH  22  23
ATOM     23  CA  LYS A  16      -1.743   5.737   0.000  0.00  0.00    +0.000 C 
BRANCH  23  24
ATOM     24  C   LYS A  16      -1.029   5.325   0.000  0.00  0.00    +0.000 C 
ATOM     25  O   LYS A  16      -1.029   4.500   0.000  0.00  0.00    +0.000 OA
ATOM     26  N   ARG A  17      -0.314   5.737   0.000  0.00  0.00    +0.000 NA
BRANCH  26  27
ATOM     27  CA  ARG A  17       0.400   5.325   0.000  0.00  0.00    +0.000 C 
BRANCH  27  28
ATOM     28  C   ARG A  17       1.115   5.737   0.000  0.00  0.00    +0.000 C 
ATOM     29  O   ARG A  17       1.115   6.562   0.000  0.00  0.00    +0.000 OA
ATOM     30  N   ARG A  18       1.829   5.325   0.000  0.00  0.00    +0.000 NA
BRANCH  30  31
ATOM     31  CA  ARG A  18       2.544   5.737   0.000  0.00  0.00    +0.000 C 
BRANCH  31  32
ATOM     32  C   ARG A  18       3.258   5.325   0.000  0.00  0.00    +0.000 C 
ATOM     33  N   PRO A  19       3.258   4.500   0.000  0.00  0.00    +0.000 N 
ATOM     34  O   ARG A  18       3.973   5.737   0.000  0.00  0.00    +0.000 OA
ATOM     35  CA  PRO A  19       3.926   4.015   0.000  0.00  0.00    +0.000 C 
ATOM     36  CD  PRO A  19       2.591   4.015   0.000  0.00  0.00    +0.000 C 
ATOM     37  CG  PRO A  19       2.846   3.230   0.000  0.00  0.00    +0.000 C 
ATOM     38  CB  PRO A  19       3.671   3.230   0.000  0.00  0.00    +0.000 C 
BRANCH  35  39
ATOM     39  C   PRO A  19       4.640   4.427   0.000  0.00  0.00    +0.000 C 
ATOM     40  O   PRO A  19       4.640   5.252   0.000  0.00  0.00    +0.000 OA
ATOM     41  N   VAL A  20       5.354   4.015   0.000  0.00  0.00    +0.000 NA
BRANCH  41  42
ATOM     42  CA  VAL A  20       6.069   4.428   0.000  0.00  0.00    +0.000 C 
BRANCH  42  43
ATOM     43  CB  VAL A  20       6.069   5.253   0.000  0.00  0.00    +0.000 C 
ATOM     44  CG1 VAL A  20       6.784   5.665   0.000  0.00  0.00    +0.000 C 
ATOM     45  CG2 VAL A  20       5.355   5.665   0.000  0.00  0.00    +0.000 C 
ENDBRANCH  42  43
BRANCH  42  46
ATOM     46  C   VAL A  20       6.784   4.015   0.000  0.00  0.00    +0.000 C 
ATOM     47  O   VAL A  20       6.784   3.190   0.000  0.00  0.00    +0.000 OA
ATOM     48  N   LYS A  21       7.498   4.428   0.000  0.00  0.00    +0.000 NA
BRANCH  48  49
ATOM     49  CA  LYS A  21       8.212   4.015   0.000  0.00  0.00    +0.000 C 
BRANCH  49  50
ATOM     50  C   LYS A  21       8.927   4.427   0.000  0.00  0.00    +0.000 C 
ATOM     51  O   LYS A  21       8.927   5.253   0.000  0.00  0.00    +0.000 OA
ATOM     52  N   VAL A  22       9.641   4.015   0.000  0.00  0.00    +0.000 NA
BRANCH  52  53
ATOM     53  CA  VAL A  22      10.356   4.427   0.000  0.00  0.00    +0.000 C 
BRANCH  53  54
ATOM     54  CB  VAL A  22      10.356   5.252   0.000  0.00  0.00    +0.000 C 
ATOM     55  CG1 VAL A  22       9.641   5.665   0.000  0.00  0.00    +0.000 C 
ATOM     56  CG2 VAL A  22      11.070   5.665   0.000  0.00  0.00    +0.000 C 
ENDBRANCH  53  54
BRANCH  53  57
ATOM     57  C   VAL A  22      11.070   4.015   0.000  0.00  0.00    +0.000 C 
ATOM     58  O   VAL A  22      11.070   3.190   0.000  0.00  0.00    +0.000 OA
ATOM     59  N   TYR A  23      11.785   4.427   0.000  0.00  0.00    +0.000 NA
BRANCH  59  60
ATOM     60  CA  TYR A  23      12.499   4.015   0.000  0.00  0.00    +0.000 C 
BRANCH  60  61
ATOM     61  C   TYR A  23      13.214   4.427   0.000  0.00  0.00    +0.000 C 
ATOM     62  N   PRO A  24      13.214   5.252   0.000  0.00  0.00    +0.000 N 
ATOM     63  O   TYR A  23      13.928   4.015   0.000  0.00  0.00    +0.000 OA
ATOM     64  CA  PRO A  24      13.881   5.737   0.000  0.00  0.00    +0.000 C 
ATOM     65  CD  PRO A  24      12.546   5.737   0.000  0.00  0.00    +0.000 C 
ATOM     66  CG  PRO A  24      12.802   6.522   0.000  0.00  0.00    +0.000 C 
ATOM     67  CB  PRO A  24      13.626   6.522   0.000  0.00  0.00    +0.000 C 
BRANCH  64  68
ATOM     68  C   PRO A  24      14.596   5.325   0.000  0.00  0.00    +0.000 C 
ATOM     69  O   PRO A  24      14.596   4.500   0.000  0.00  0.00    +0.000 OA
ATOM     70  OXT PRO A  24      15.310   5.737   0.000  0.00  0.00    +0.000 OA
ENDBRANCH  64  68
ENDBRANCH  60  61
BRANCH  60  71
ATOM     71  CB  TYR A  23      12.499   3.190   0.000  0.00  0.00    +0.000 C 
BRANCH  71  72
ATOM     72  CG  TYR A  23      13.214   2.777   0.000  0.00  0.00    +0.000 A 
ATOM     73  CD1 TYR A  23      13.214   1.952   0.000  0.00  0.00    +0.000 A 
ATOM     74  CD2 TYR A  23      13.928   3.190   0.000  0.00  0.00    +0.000 A 
ATOM     75  CE2 TYR A  23      14.643   2.777   0.000  0.00  0.00    +0.000 A 
ATOM     76  CZ  TYR A  23      14.643   1.952   0.000  0.00  0.00    +0.000 A 
ATOM     77  CE1 TYR A  23      13.928   1.540   0.000  0.00  0.00    +0.000 A 
ATOM     78  OH  TYR A  23      15.357   1.540   0.000  0.00  0.00    +0.000 OA
ENDBRANCH  71  72
ENDBRANCH  60  71
ENDBRANCH  59  60
ENDBRANCH  53  57
ENDBRANCH  52  53
ENDBRANCH  49  50
BRANCH  49  79
ATOM     79  CB  LYS A  21       8.212   3.190   0.000  0.00  0.00    +0.000 C 
BRANCH  79  80
ATOM     80  CG  LYS A  21       7.498   2.777   0.000  0.00  0.00    +0.000 C 
BRANCH  80  81
ATOM     81  CD  LYS A  21       7.498   1.952   0.000  0.00  0.00    +0.000 C 
BRANCH  81  83
ATOM     82  NZ  LYS A  21       6.783   0.715   0.000  0.00  0.00    +0.000 NA
ATOM     83  CE  LYS A  21       6.783   1.540   0.000  0.00  0.00    +0.000 C 
ENDBRANCH  81  83
ENDBRANCH  80  81
ENDBRANCH  79  80
ENDBRANCH  49  79
ENDBRANCH  48  49
ENDBRANCH  42  46
ENDBRANCH  41  42
ENDBRANCH  35  39
ENDBRANCH  31  32
BRANCH  31  84
ATOM     84  CB  ARG A  18       2.544   6.562   0.000  0.00  0.00    +0.000 C 
BRANCH  84  85
ATOM     85  CG  ARG A  18       1.829   6.975   0.000  0.00  0.00    +0.000 C 
BRANCH  85  86
ATOM     86  CD  ARG A  18       1.829   7.800   0.000  0.00  0.00    +0.000 C 
BRANCH  86  89
ATOM     87  CZ  ARG A  18       1.115   9.038   0.000  0.00  0.00    +0.000 C 
ATOM     88  NH1 ARG A  18       0.400   9.450   0.000  0.00  0.00    +0.000 NA
ATOM     89  NE  ARG A  18       1.115   8.212   0.000  0.00  0.00    +0.000 NA
ATOM     90  NH2 ARG A  18       1.829   9.450   0.000  0.00  0.00    +0.000 NA
ENDBRANCH  86  89
ENDBRANCH  85  86
ENDBRANCH  84  85
ENDBRANCH  31  84
ENDBRANCH  30  31
ENDBRANCH  27  28
BRANCH  27  91
ATOM     91  CB  ARG A  17       0.400   4.500   0.000  0.00  0.00    +0.000 C 
BRANCH  91  92
ATOM     92  CG  ARG A  17      -0.314   4.087   0.000  0.00  0.00    +0.000 C 
BRANCH  92  93
ATOM     93  CD  ARG A  17      -0.314   3.262   0.000  0.00  0.00    +0.000 C 
BRANCH  93  96
ATOM     94  CZ  ARG A  17      -1.029   2.025   0.000  0.00  0.00    +0.000 C 
ATOM     95  NH1 ARG A  17      -1.743   1.612   0.000  0.00  0.00    +0.000 NA
ATOM     96  NE  ARG A  17      -1.029   2.850   0.000  0.00  0.00    +0.000 NA
ATOM     97  NH2 ARG A  17      -0.314   1.612   0.000  0.00  0.00    +0.000 NA
ENDBRANCH  93  96
ENDBRANCH  92  93
ENDBRANCH  91  92
ENDBRANCH  27  91
ENDBRANCH  26  27
ENDBRANCH  23  24
BRANCH  23  98
ATOM     98  CB  LYS A  16      -1.743   6.562   0.000  0.00  0.00    +0.000 C 
BRANCH  98  99
ATOM     99  CG  LYS A  16      -2.458   6.975   0.000  0.00  0.00    +0.000 C 
BRANCH  99 100
ATOM    100  CD  LYS A  16      -2.458   7.800   0.000  0.00  0.00    +0.000 C 
BRANCH 100 102
ATOM    101  NZ  LYS A  16      -3.172   9.037   0.000  0.00  0.00    +0.000 NA
ATOM    102  CE  LYS A  16      -3.172   8.212   0.000  0.00  0.00    +0.000 C 
ENDBRANCH 100 102
ENDBRANCH  99 100
ENDBRANCH  98  99
ENDBRANCH  23  98
ENDBRANCH  22  23
ENDBRANCH  19  20
BRANCH  19 103
ATOM    103  CB  LYS A  15      -3.887   4.500   0.000  0.00  0.00    +0.000 C 
BRANCH 103 104
ATOM    104  CG  LYS A  15      -4.601   4.088   0.000  0.00  0.00    +0.000 C 
BRANCH 104 105
ATOM    105  CD  LYS A  15      -4.601   3.262   0.000  0.00  0.00    +0.000 C 
BRANCH 105 107
ATOM    106  NZ  LYS A  15      -5.316   2.025   0.000  0.00  0.00    +0.000 NA
ATOM    107  CE  LYS A  15      -5.316   2.850   0.000  0.00  0.00    +0.000 C 
ENDBRANCH 105 107
ENDBRANCH 104 105
ENDBRANCH 103 104
ENDBRANCH  19 103
ENDBRANCH  18  19
ENDBRANCH  15  16
ENDBRANCH  14  15
ENDBRANCH  11  12
BRANCH  11 108
ATOM    108  CB  VAL A  13      -7.459   5.737   0.000  0.00  0.00    +0.000 C 
ATOM    109  CG1 VAL A  13      -7.459   6.562   0.000  0.00  0.00    +0.000 C 
ATOM    110  CG2 VAL A  13      -8.173   5.325   0.000  0.00  0.00    +0.000 C 
ENDBRANCH  11 108
ENDBRANCH  10  11
ENDBRANCH   4   8
BRANCH   1 111
ATOM    111  CA  LYS A  11      -9.642   2.927   0.000  0.00  0.00    +0.000 C 
BRANCH 111 114
ATOM    112  C   GLY A  10     -10.356   1.689   0.000  0.00  0.00    +0.000 C 
ATOM    113  O   GLY A  10     -11.070   2.102   0.000  0.00  0.00    +0.000 OA
ATOM    114  N   LYS A  11      -9.641   2.102   0.000  0.00  0.00    +0.000 NA
BRANCH 112 115
ATOM    115  CA  GLY A  10     -10.356   0.865   0.000  0.00  0.00    +0.000 C 
BRANCH 115 118
ATOM    116  C   TRP A   9     -11.070  -0.373   0.000  0.00  0.00    +0.000 C 
ATOM    117  O   TRP A   9     -10.356  -0.786   0.000  0.00  0.00    +0.000 OA
ATOM    118  N   GLY A  10     -11.070   0.452   0.000  0.00  0.00    +0.000 NA
BRANCH 116 119
ATOM    119  CA  TRP A   9     -11.785  -0.786   0.000  0.00  0.00    +0.000 C 
BRANCH 119 122
ATOM    120  C   ARG A   8     -11.070  -2.023   0.000  0.00  0.00    +0.000 C 
ATOM    121  O   ARG A   8     -10.356  -1.610   0.000  0.00  0.00    +0.000 OA
ATOM    122  N   TRP A   9     -11.785  -1.610   0.000  0.00  0.00    +0.000 NA
BRANCH 120 123
ATOM    123  CA  ARG A   8     -11.070  -2.848   0.000  0.00  0.00    +0.000 C 
BRANCH 123 126
ATOM    124  C   PHE A   7     -10.356  -4.086   0.000  0.00  0.00    +0.000 C 
ATOM    125  O   PHE A   7     -11.070  -4.498   0.000  0.00  0.00    +0.000 OA
ATOM    126  N   ARG A   8     -10.356  -3.260   0.000  0.00  0.00    +0.000 NA
BRANCH 124 127
ATOM    127  CA  PHE A   7      -9.642  -4.498   0.000  0.00  0.00    +0.000 C 
BRANCH 127 130
ATOM    128  C   HIS A   6      -8.927  -5.736   0.000  0.00  0.00    +0.000 C 
ATOM    129  O   HIS A   6      -8.213  -5.324   0.000  0.00  0.00    +0.000 OA
ATOM    130  N   PHE A   7      -9.642  -5.323   0.000  0.00  0.00    +0.000 NA
BRANCH 128 131
ATOM    131  CA  HIS A   6      -8.928  -6.561   0.000  0.00  0.00    +0.000 C 
BRANCH 131 134
ATOM    132  C   GLU A   5      -7.498  -6.561   0.000  0.00  0.00    +0.000 C 
ATOM    133  O   GLU A   5      -7.498  -5.736   0.000  0.00  0.00    +0.000 OA
ATOM    134  N   HIS A   6      -8.213  -6.974   0.000  0.00  0.00    +0.000 NA
BRANCH 132 135
ATOM    135  CA  GLU A   5      -6.784  -6.974   0.000  0.00  0.00    +0.000 C 
BRANCH 135 138
ATOM    136  C   MET A   4      -5.355  -6.975   0.000  0.00  0.00    +0.000 C 
ATOM    137  O   MET A   4      -5.356  -7.800   0.000  0.00  0.00    +0.000 OA
ATOM    138  N   GLU A   5      -6.069  -6.562   0.000  0.00  0.00    +0.000 NA
BRANCH 136 139
ATOM    139  CA  MET A   4      -4.640  -6.563   0.000  0.00  0.00    +0.000 C 
BRANCH 139 142
ATOM    140  C   SER A   3      -3.212  -6.564   0.000  0.00  0.00    +0.000 C 
ATOM    141  O   SER A   3      -3.211  -5.739   0.000  0.00  0.00    +0.000 OA
ATOM    142  N   MET A   4      -3.926  -6.976   0.000  0.00  0.00    +0.000 NA
BRANCH 140 143
ATOM    143  CA  SER A   3      -2.497  -6.977   0.000  0.00  0.00    +0.000 C 
BRANCH 143 146
ATOM    144  C   TYR A   2      -1.068  -6.978   0.000  0.00  0.00    +0.000 C 
ATOM    145  O   TYR A   2      -1.069  -7.803   0.000  0.00  0.00    +0.000 OA
ATOM    146  N   SER A   3      -1.783  -6.565   0.000  0.00  0.00    +0.000 NA
BRANCH 144 147
ATOM    147  CA  TYR A   2      -0.354  -6.565   0.000  0.00  0.00    +0.000 C 
BRANCH 147 150
ATOM    148  C   SER A   1       1.075  -6.566   0.000  0.00  0.00    +0.000 C 
ATOM    149  O   SER A   1       1.075  -5.741   0.000  0.00  0.00    +0.000 OA
ATOM    150  N   TYR A   2       0.360  -6.978   0.000  0.00  0.00    +0.000 NA
BRANCH 148 151
ATOM    151  CA  SER A   1       1.789  -6.979   0.000  0.00  0.00    +0.000 C 
ATOM    152  N   SER A   1       2.504  -6.567   0.000  0.00  0.00    +0.000 NA
BRANCH 151 153
ATOM    153  CB  SER A   1       1.789  -7.804   0.000  0.00  0.00    +0.000 C 
ATOM    154  OG  SER A   1       2.503  -8.217   0.000  0.00  0.00    +0.000 OA
ENDBRANCH 151 153
ENDBRANCH 148 151
ENDBRANCH 147 150
BRANCH 147 155
ATOM    155  CB  TYR A   2      -0.353  -5.741   0.000  0.00  0.00    +0.000 C 
BRANCH 155 156
ATOM    156  CG  TYR A   2      -1.068  -5.328   0.000  0.00  0.00    +0.000 A 
ATOM    157  CD1 TYR A   2      -1.067  -4.503   0.000  0.00  0.00    +0.000 A 
ATOM    158  CD2 TYR A   2      -1.782  -5.740   0.000  0.00  0.00    +0.000 A 
ATOM    159  CE2 TYR A   2      -2.497  -5.327   0.000  0.00  0.00    +0.000 A 
ATOM    160  CZ  TYR A   2      -2.496  -4.502   0.000  0.00  0.00    +0.000 A 
ATOM    161  CE1 TYR A   2      -1.781  -4.090   0.000  0.00  0.00    +0.000 A 
ATOM    162  OH  TYR A   2      -3.210  -4.089   0.000  0.00  0.00    +0.000 OA
ENDBRANCH 155 156
ENDBRANCH 147 155
ENDBRANCH 144 147
ENDBRANCH 143 146
BRANCH 143 163
ATOM    163  CB  SER A   3      -2.498  -7.802   0.000  0.00  0.00    +0.000 C 
ATOM    164  OG  SER A   3      -1.784  -8.215   0.000  0.00  0.00    +0.000 OA
ENDBRANCH 143 163
ENDBRANCH 140 143
ENDBRANCH 139 142
BRANCH 139 165
ATOM    165  CB  MET A   4      -4.640  -5.738   0.000  0.00  0.00    +0.000 C 
BRANCH 165 166
ATOM    166  CG  MET A   4      -5.354  -5.325   0.000  0.00  0.00    +0.000 C 
BRANCH 166 167
ATOM    167  SD  MET A   4      -5.354  -4.500   0.000  0.00  0.00    +0.000 S 
ATOM    168  CE  MET A   4      -6.068  -4.087   0.000  0.00  0.00    +0.000 C 
ENDBRANCH 166 167
ENDBRANCH 165 166
ENDBRANCH 139 165
ENDBRANCH 136 139
ENDBRANCH 135 138
BRANCH 135 169
ATOM    169  CB  GLU A   5      -6.785  -7.799   0.000  0.00  0.00    +0.000 C 
BRANCH 169 170
ATOM    170  CG  GLU A   5      -6.070  -8.212   0.000  0.00  0.00    +0.000 C 
BRANCH 170 171
ATOM    171  CD  GLU A   5      -6.071  -9.037   0.000  0.00  0.00    +0.000 C 
ATOM    172  OE1 GLU A   5      -5.356  -9.450   0.000  0.00  0.00    +0.000 OA
ATOM    173  OE2 GLU A   5      -6.785  -9.449   0.000  0.00  0.00    +0.000 OA
ENDBRANCH 170 171
ENDBRANCH 169 170
ENDBRANCH 135 169
ENDBRANCH 132 135
ENDBRANCH 131 134
BRANCH 131 174
ATOM    174  CB  HIS A   6      -9.642  -6.973   0.000  0.00  0.00    +0.000 C 
BRANCH 174 175
ATOM    175  CG  HIS A   6     -10.357  -6.561   0.000  0.00  0.00    +0.000 A 
ATOM    176  ND1 HIS A   6     -11.141  -6.816   0.000  0.00  0.00    +0.000 NA
ATOM    177  CE1 HIS A   6     -11.626  -6.148   0.000  0.00  0.00    +0.000 A 
ATOM    178  NE2 HIS A   6     -11.141  -5.481   0.000  0.00  0.00    +0.000 NA
ATOM    179  CD2 HIS A   6     -10.356  -5.736   0.000  0.00  0.00    +0.000 A 
ENDBRANCH 174 175
ENDBRANCH 131 174
ENDBRANCH 128 131
ENDBRANCH 127 130
BRANCH 127 180
ATOM    180  CB  PHE A   7      -8.927  -4.086   0.000  0.00  0.00    +0.000 C 
BRANCH 180 181
ATOM    181  CG  PHE A   7      -8.927  -3.261   0.000  0.00  0.00    +0.000 A 
ATOM    182  CD1 PHE A   7      -8.212  -2.848   0.000  0.00  0.00    +0.000 A 
ATOM    183  CD2 PHE A   7      -9.641  -2.848   0.000  0.00  0.00    +0.000 A 
ATOM    184  CE2 PHE A   7      -9.641  -2.023   0.000  0.00  0.00    +0.000 A 
ATOM    185  CE1 PHE A   7      -8.212  -2.023   0.000  0.00  0.00    +0.000 A 
ATOM    186  CZ  PHE A   7      -8.927  -1.611   0.000  0.00  0.00    +0.000 A 
ENDBRANCH 180 181
ENDBRANCH 127 180
ENDBRANCH 124 127
ENDBRANCH 123 126
BRANCH 123 187
ATOM    187  CB  ARG A   8     -11.785  -3.260   0.000  0.00  0.00    +0.000 C 
BRANCH 187 188
ATOM    188  CG  ARG A   8     -12.499  -2.848   0.000  0.00  0.00    +0.000 C 
BRANCH 188 189
ATOM    189  CD  ARG A   8     -13.214  -3.260   0.000  0.00  0.00    +0.000 C 
BRANCH 189 192
ATOM    190  CZ  ARG A   8     -14.643  -3.260   0.000  0.00  0.00    +0.000 C 
ATOM    191  NH1 ARG A   8     -15.357  -2.848   0.000  0.00  0.00    +0.000 NA
ATOM    192  NE  ARG A   8     -13.928  -2.848   0.000  0.00  0.00    +0.000 NA
ATOM    193  NH2 ARG A   8     -14.643  -4.085   0.000  0.00  0.00    +0.000 NA
ENDBRANCH 189 192
ENDBRANCH 188 189
ENDBRANCH 187 188
ENDBRANCH 123 187
ENDBRANCH 120 123
ENDBRANCH 119 122
BRANCH 119 194
ATOM    194  CB  TRP A   9     -12.499  -0.373   0.000  0.00  0.00    +0.000 C 
BRANCH 194 195
ATOM    195  CG  TRP A   9     -12.499   0.452   0.000  0.00  0.00    +0.000 A 
ATOM    196  CD1 TRP A   9     -11.832   0.937   0.000  0.00  0.00    +0.000 A 
ATOM    197  NE1 TRP A   9     -12.087   1.721   0.000  0.00  0.00    +0.000 NA
ATOM    198  CE2 TRP A   9     -12.912   1.721   0.000  0.00  0.00    +0.000 A 
ATOM    199  CD2 TRP A   9     -13.167   0.937   0.000  0.00  0.00    +0.000 A 
ATOM    200  CE3 TRP A   9     -13.974   0.765   0.000  0.00  0.00    +0.000 A 
ATOM    201  CZ2 TRP A   9     -13.464   2.334   0.000  0.00  0.00    +0.000 A 
ATOM    202  CH2 TRP A   9     -14.271   2.163   0.000  0.00  0.00    +0.000 A 
ATOM    203  CZ3 TRP A   9     -14.526   1.378   0.000  0.00  0.00    +0.000 A 
ENDBRANCH 194 195
ENDBRANCH 119 194
ENDBRANCH 116 119
ENDBRANCH 115 118
ENDBRANCH 112 115
ENDBRANCH 111 114
BRANCH 111 204
ATOM    204  CB  LYS A  11     -10.356   3.339   0.000  0.00  0.00    +0.000 C 
BRANCH 204 205
ATOM    205  CG  LYS A  11     -11.070   2.927   0.000  0.00  0.00    +0.000 C 
BRANCH 205 206
ATOM    206  CD  LYS A  11     -11.785   3.339   0.000  0.00  0.00    +0.000 C 
BRANCH 206 208
ATOM    207  NZ  LYS A  11     -13.214   3.339   0.000  0.00  0.00    +0.000 NA
ATOM    208  CE  LYS A  11     -12.499   2.927   0.000  0.00  0.00    +0.000 C 
ENDBRANCH 206 208
ENDBRANCH 205 206
ENDBRANCH 204 205
ENDBRANCH 111 204
ENDBRANCH   1 111
TORSDOF 93
