REMARK  Name = 
REMARK  3 active torsions:
REMARK  status: ('A' for Active; 'I' for Inactive)
REMARK    1  A    between atoms: B_1  and  C_2
REMARK    2  A    between atoms: C_7  and  C_9
REMARK    3  A    between atoms: C_9  and  C_10
REMARK                            x       y       z     vdW  Elec       q    Type
REMARK                         _______ _______ _______ _____ _____    ______ ____
ROOT
ATOM      1  C   UNL     1       0.568   1.114   0.000  0.00  0.00    +0.000 C 
ATOM      2  C   UNL     1       1.235   0.629   0.000  0.00  0.00    +0.000 C 
ATOM      3  C   UNL     1       0.980  -0.155   0.000  0.00  0.00    +0.000 C 
ATOM      4  C   UNL     1       0.155  -0.155   0.000  0.00  0.00    +0.000 C 
ATOM      5  N   UNL     1      -0.100   0.629   0.000  0.00  0.00    +0.000 N 
ATOM      6  C   UNL     1      -0.884   0.884   0.000  0.00  0.00    +0.000 C 
ATOM      7  O   UNL     1      -1.056   1.691   0.000  0.00  0.00    +0.000 OA
ENDROOT
BRANCH   1   8
ATOM      8  B   UNL     1       0.568   1.939   0.000  0.00  0.00    +0.000 B 
ATOM      9  O   UNL     1      -0.147   2.352   0.000  0.00  0.00    +0.000 OA
ATOM     10  O   UNL     1       1.282   2.352   0.000  0.00  0.00    +0.000 OA
ENDBRANCH   1   8
BRANCH   6  11
ATOM     11  C   UNL     1      -1.497   0.332   0.000  0.00  0.00    +0.000 C 
ATOM     12  N   UNL     1      -1.326  -0.475   0.000  0.00  0.00    +0.000 NA
BRANCH  11  13
ATOM     13  C   UNL     1      -2.282   0.587   0.000  0.00  0.00    +0.000 C 
ATOM     14  C   UNL     1      -2.895   0.035   0.000  0.00  0.00    +0.000 C 
ATOM     15  C   UNL     1      -2.454   1.394   0.000  0.00  0.00    +0.000 C 
ENDBRANCH  11  13
ENDBRANCH   6  11
TORSDOF 3
