REMARK  Name = 
REMARK  6 active torsions:
REMARK  status: ('A' for Active; 'I' for Inactive)
REMARK    1  A    between atoms: C_16  and  C_19
REMARK    2  A    between atoms: C_16  and  C_20
REMARK    3  A    between atoms: C_17  and  C_18
REMARK    4  A    between atoms: C_17  and  O_23
REMARK    5  A    between atoms: C_18  and  N_22
REMARK    6  A    between atoms: C_21  and  O_23
REMARK                            x       y       z     vdW  Elec       q    Type
REMARK                         _______ _______ _______ _____ _____    ______ ____
ROOT
ATOM      1  C   UNL     1       0.674   7.767   0.000  0.00  0.00    +0.000 A 
ATOM      2  C   UNL     1      -0.151   7.767   0.000  0.00  0.00    +0.000 A 
ATOM      3  C   UNL     1       1.086   7.053   0.000  0.00  0.00    +0.000 A 
ATOM      4  C   UNL     1      -0.564   7.053   0.000  0.00  0.00    +0.000 A 
ATOM      5  C   UNL     1       0.674   6.338   0.000  0.00  0.00    +0.000 A 
ATOM      6  C   UNL     1      -0.151   6.338   0.000  0.00  0.00    +0.000 A 
ENDROOT
BRANCH   5   7
ATOM      7  C   UNL     1       1.087   5.624   0.000  0.00  0.00    +0.000 C 
BRANCH   7  13
ATOM      8  C   UNL     1       3.561   5.624   0.000  0.00  0.00    +0.000 A 
ATOM      9  C   UNL     1       3.149   6.338   0.000  0.00  0.00    +0.000 A 
ATOM     10  C   UNL     1       3.149   4.910   0.000  0.00  0.00    +0.000 A 
ATOM     11  C   UNL     1       2.324   6.338   0.000  0.00  0.00    +0.000 A 
ATOM     12  C   UNL     1       2.324   4.910   0.000  0.00  0.00    +0.000 A 
ATOM     13  C   UNL     1       1.911   5.624   0.000  0.00  0.00    +0.000 A 
ENDBRANCH   7  13
ENDBRANCH   5   7
BRANCH   6  14
ATOM     14  O   UNL     1      -0.564   5.624   0.000  0.00  0.00    +0.000 OA
BRANCH  14  15
ATOM     15  C   UNL     1      -1.389   5.624   0.000  0.00  0.00    +0.000 C 
BRANCH  15  17
ATOM     16  C   UNL     1      -1.389   4.195   0.000  0.00  0.00    +0.000 C 
ATOM     17  C   UNL     1      -1.801   4.910   0.000  0.00  0.00    +0.000 C 
BRANCH  17  23
ATOM     18  C   UNL     1      -4.276   4.910   0.000  0.00  0.00    +0.000 C 
ATOM     19  C   UNL     1      -3.864   4.195   0.000  0.00  0.00    +0.000 C 
ATOM     20  C   UNL     1      -3.864   5.624   0.000  0.00  0.00    +0.000 C 
ATOM     21  C   UNL     1      -3.038   4.195   0.000  0.00  0.00    +0.000 C 
ATOM     22  C   UNL     1      -3.038   5.624   0.000  0.00  0.00    +0.000 C 
ATOM     23  N   UNL     1      -2.626   4.910   0.000  0.00  0.00    +0.000 NA
ENDBRANCH  17  23
ENDBRANCH  15  17
ENDBRANCH  14  15
ENDBRANCH   6  14
TORSDOF 6
