REMARK  Name = 
REMARK  4 active torsions:
REMARK  status: ('A' for Active; 'I' for Inactive)
REMARK    1  A    between atoms: C_2  and  C_4
REMARK    2  A    between atoms: C_6  and  C_12
REMARK    3  A    between atoms: C_19  and  C_23
REMARK    4  A    between atoms: C_23  and  N_24
REMARK                            x       y       z     vdW  Elec       q    Type
REMARK                         _______ _______ _______ _____ _____    ______ ____
ROOT
ATOM      1  C   UNL     1      -0.171  -0.698   0.000  0.00  0.00    +0.000 C 
ATOM      2  O   UNL     1      -0.584  -1.412   0.000  0.00  0.00    +0.000 OA
ATOM      3  N   UNL     1       0.654  -0.698   0.000  0.00  0.00    +0.000 N 
ATOM      4  C   UNL     1       1.139  -0.030   0.000  0.00  0.00    +0.000 C 
ATOM      5  C   UNL     1       1.923  -0.285   0.000  0.00  0.00    +0.000 A 
ATOM      6  C   UNL     1       2.638   0.127   0.000  0.00  0.00    +0.000 A 
ATOM      7  C   UNL     1       3.352  -0.285   0.000  0.00  0.00    +0.000 A 
ATOM      8  C   UNL     1       3.352  -1.110   0.000  0.00  0.00    +0.000 A 
ATOM      9  C   UNL     1       2.638  -1.523   0.000  0.00  0.00    +0.000 A 
ATOM     10  C   UNL     1       1.923  -1.110   0.000  0.00  0.00    +0.000 A 
ATOM     11  C   UNL     1       1.139  -1.365   0.000  0.00  0.00    +0.000 C 
ENDROOT
BRANCH   1  14
ATOM     12  C   UNL     1      -0.584   1.446   0.000  0.00  0.00    +0.000 A 
ATOM     13  C   UNL     1      -0.171   0.731   0.000  0.00  0.00    +0.000 A 
ATOM     14  C   UNL     1      -0.584   0.017   0.000  0.00  0.00    +0.000 A 
ATOM     15  C   UNL     1      -1.409   0.017   0.000  0.00  0.00    +0.000 A 
ATOM     16  C   UNL     1      -1.821   0.731   0.000  0.00  0.00    +0.000 A 
ATOM     17  C   UNL     1      -1.409   1.446   0.000  0.00  0.00    +0.000 A 
ATOM     18  O   UNL     1      -1.821   2.160   0.000  0.00  0.00    +0.000 OA
ATOM     19  O   UNL     1      -1.821  -0.698   0.000  0.00  0.00    +0.000 OA
BRANCH  12  21
ATOM     20  C   UNL     1      -0.584   2.874   0.000  0.00  0.00    +0.000 C 
ATOM     21  C   UNL     1      -0.171   2.160   0.000  0.00  0.00    +0.000 C 
ATOM     22  C   UNL     1       0.654   2.160   0.000  0.00  0.00    +0.000 C 
ENDBRANCH  12  21
ENDBRANCH   1  14
BRANCH   8  23
ATOM     23  C   UNL     1       4.067  -1.523   0.000  0.00  0.00    +0.000 C 
BRANCH  23  24
ATOM     24  N   UNL     1       4.067  -2.348   0.000  0.00  0.00    +0.000 NA
ATOM     25  C   UNL     1       4.781  -2.760   0.000  0.00  0.00    +0.000 C 
ATOM     26  C   UNL     1       4.781  -3.585   0.000  0.00  0.00    +0.000 C 
ATOM     27  N   UNL     1       4.067  -3.998   0.000  0.00  0.00    +0.000 NA
ATOM     28  C   UNL     1       3.352  -3.585   0.000  0.00  0.00    +0.000 C 
ATOM     29  C   UNL     1       3.352  -2.760   0.000  0.00  0.00    +0.000 C 
ATOM     30  C   UNL     1       4.067  -4.823   0.000  0.00  0.00    +0.000 C 
ENDBRANCH  23  24
ENDBRANCH   8  23
TORSDOF 4
