REMARK  Name = 
REMARK  0 active torsions:
REMARK  status: ('A' for Active; 'I' for Inactive)
REMARK                            x       y       z     vdW  Elec       q    Type
REMARK                         _______ _______ _______ _____ _____    ______ ____
ROOT
ATOM      1  C   UNL     1       0.345  -0.087   0.000  0.00  0.00    +0.000 C 
ATOM      2  C   UNL     1       1.057  -0.505   0.000  0.00  0.00    +0.000 C 
ATOM      3  C   UNL     1      -0.373  -0.498   0.000  0.00  0.00    +0.000 C 
ATOM      4  C   UNL     1       0.352   0.738   0.000  0.00  0.00    +0.000 C 
ATOM      5  C   UNL     1       1.769  -0.094   0.000  0.00  0.00    +0.000 C 
ATOM      6  C   UNL     1       1.057  -1.330   0.000  0.00  0.00    +0.000 C 
ATOM      7  C   UNL     1      -0.377  -1.323   0.000  0.00  0.00    +0.000 C 
ATOM      8  C   UNL     1      -1.085  -0.083   0.000  0.00  0.00    +0.000 C 
ATOM      9  C   UNL     1       1.071   1.145   0.000  0.00  0.00    +0.000 C 
ATOM     10  C   UNL     1       1.779   0.728   0.000  0.00  0.00    +0.000 C 
ATOM     11  C   UNL     1       3.235  -0.112   0.000  0.00  0.00    +0.000 C 
ATOM     12  C   UNL     1       0.338  -1.737   0.000  0.00  0.00    +0.000 C 
ATOM     13  C   UNL     1      -1.085  -1.733   0.000  0.00  0.00    +0.000 C 
ATOM     14  C   UNL     1      -1.804  -0.498   0.000  0.00  0.00    +0.000 C 
ATOM     15  C   UNL     1       2.495   1.131   0.000  0.00  0.00    +0.000 C 
ATOM     16  C   UNL     1       3.203   0.710   0.000  0.00  0.00    +0.000 C 
ATOM     17  C   UNL     1      -1.804  -1.323   0.000  0.00  0.00    +0.000 C 
ATOM     18  C   UNL     1      -2.516  -0.083   0.000  0.00  0.00    +0.000 C 
ATOM     19  C   UNL     1       3.174   1.588   0.000  0.00  0.00    +0.000 C 
ATOM     20  O   UNL     1       2.505   2.172   0.000  0.00  0.00    +0.000 OA
ATOM     21  O   UNL     1      -2.516  -1.733   0.000  0.00  0.00    +0.000 OA
ATOM     22  O   UNL     1      -3.235  -0.498   0.000  0.00  0.00    +0.000 OA
ATOM     23  C   UNL     1       1.779   1.577   0.000  0.00  0.00    +0.000 C 
ATOM     24  C   UNL     1      -0.373   0.352   0.000  0.00  0.00    +0.000 C 
ENDROOT
TORSDOF 0
