REMARK  Name = 
REMARK  2 active torsions:
REMARK  status: ('A' for Active; 'I' for Inactive)
REMARK    1  A    between atoms: C_4  and  C_6
REMARK    2  A    between atoms: C_7  and  C_12
REMARK                            x       y       z     vdW  Elec       q    Type
REMARK                         _______ _______ _______ _____ _____    ______ ____
ROOT
ATOM      1 NA   UNL     1      -0.715  -2.062   0.000  0.00  0.00    +0.000 Na
ENDROOT
TORSDOF 0
REMARK  Name = 
REMARK  2 active torsions:
REMARK  status: ('A' for Active; 'I' for Inactive)
REMARK    1  A    between atoms: C_4  and  C_6
REMARK    2  A    between atoms: C_7  and  C_12
REMARK                            x       y       z     vdW  Elec       q    Type
REMARK                         _______ _______ _______ _____ _____    ______ ____
ROOT
ATOM      1 NA   UNL     1      -1.429   1.650   0.000  0.00  0.00    +0.000 Na
ENDROOT
TORSDOF 0
REMARK  Name = 
REMARK  2 active torsions:
REMARK  status: ('A' for Active; 'I' for Inactive)
REMARK    1  A    between atoms: C_4  and  C_6
REMARK    2  A    between atoms: C_7  and  C_12
REMARK                            x       y       z     vdW  Elec       q    Type
REMARK                         _______ _______ _______ _____ _____    ______ ____
ROOT
ATOM      1  C   UNL     1       2.143  -0.412   0.000  0.00  0.00    +0.000 A 
ATOM      2  C   UNL     1       2.858   0.000   0.000  0.00  0.00    +0.000 A 
ATOM      3  C   UNL     1       3.572  -0.412   0.000  0.00  0.00    +0.000 A 
ATOM      4  C   UNL     1       4.287   0.000   0.000  0.00  0.00    +0.000 A 
ATOM      5 BR   UNL     1       5.001  -0.412   0.000  0.00  0.00    +0.000 Br
ATOM      6  C   UNL     1       4.287   0.825   0.000  0.00  0.00    +0.000 A 
ATOM      7  O   UNL     1       5.001   1.238   0.000  0.00  0.00    +0.000 OA
ATOM      8  C   UNL     1       3.572   1.238   0.000  0.00  0.00    +0.000 A 
ATOM      9 BR   UNL     1       3.572   2.062   0.000  0.00  0.00    +0.000 Br
ATOM     10  C   UNL     1       2.858   0.825   0.000  0.00  0.00    +0.000 A 
ATOM     11  O   UNL     1       2.143   1.238   0.000  0.00  0.00    +0.000 OA
ATOM     12  C   UNL     1       1.429   0.825   0.000  0.00  0.00    +0.000 A 
ATOM     13  C   UNL     1       1.429   0.000   0.000  0.00  0.00    +0.000 A 
ATOM     14  C   UNL     1       0.715  -0.412   0.000  0.00  0.00    +0.000 A 
ATOM     15  C   UNL     1       0.000   0.000   0.000  0.00  0.00    +0.000 A 
ATOM     16 BR   UNL     1      -0.715  -0.412   0.000  0.00  0.00    +0.000 Br
ATOM     17  C   UNL     1       0.000   0.825   0.000  0.00  0.00    +0.000 A 
ATOM     18  O   UNL     1      -0.715   1.238   0.000  0.00  0.00    +0.000 OA
ATOM     19  C   UNL     1       0.715   1.238   0.000  0.00  0.00    +0.000 A 
ATOM     20 BR   UNL     1       0.715   2.062   0.000  0.00  0.00    +0.000 Br
ENDROOT
BRANCH   1  22
ATOM     21  C   UNL     1       1.429  -1.650   0.000  0.00  0.00    +0.000 A 
ATOM     22  C   UNL     1       2.143  -1.238   0.000  0.00  0.00    +0.000 A 
ATOM     23  C   UNL     1       2.858  -1.650   0.000  0.00  0.00    +0.000 A 
ATOM     24  C   UNL     1       2.858  -2.475   0.000  0.00  0.00    +0.000 A 
ATOM     25  C   UNL     1       2.143  -2.888   0.000  0.00  0.00    +0.000 A 
ATOM     26  C   UNL     1       1.429  -2.475   0.000  0.00  0.00    +0.000 A 
BRANCH  21  28
ATOM     27  O   UNL     1       0.000  -1.650   0.000  0.00  0.00    +0.000 OA
ATOM     28  C   UNL     1       0.715  -1.238   0.000  0.00  0.00    +0.000 C 
ATOM     29  O   UNL     1       0.230  -0.570   0.000  0.00  0.00    +0.000 OA
ENDBRANCH  21  28
ENDBRANCH   1  22
TORSDOF 2
