REMARK  Name = 
REMARK  11 active torsions:
REMARK  status: ('A' for Active; 'I' for Inactive)
REMARK    1  A    between atoms: C_2  and  O_4
REMARK    2  A    between atoms: O_4  and  C_5
REMARK    3  A    between atoms: C_5  and  C_7
REMARK    4  A    between atoms: C_7  and  N_9
REMARK    5  A    between atoms: N_9  and  P_10
REMARK    6  A    between atoms: P_10  and  O_12
REMARK    7  A    between atoms: P_10  and  O_31
REMARK    8  A    between atoms: O_12  and  C_13
REMARK    9  A    between atoms: C_13  and  C_14
REMARK   10  A    between atoms: C_17  and  N_18
REMARK   11  A    between atoms: O_31  and  C_32
REMARK                            x       y       z     vdW  Elec       q    Type
REMARK                         _______ _______ _______ _____ _____    ______ ____
ROOT
ATOM      1  O   UNL     1       3.449   2.095   0.000  0.00  0.00    +0.000 OA
ENDROOT
BRANCH   1   2
ATOM      2  P   UNL     1       2.897   2.708   0.000  0.00  0.00    +0.000 P 
ATOM      3  O   UNL     1       2.284   2.156   0.000  0.00  0.00    +0.000 OA
BRANCH   2   4
ATOM      4  N   UNL     1       2.345   3.321   0.000  0.00  0.00    +0.000 NA
BRANCH   4   5
ATOM      5  C   UNL     1       2.600   4.106   0.000  0.00  0.00    +0.000 C 
ATOM      6  C   UNL     1       2.048   4.719   0.000  0.00  0.00    +0.000 C 
BRANCH   5   7
ATOM      7  C   UNL     1       3.407   4.278   0.000  0.00  0.00    +0.000 C 
ATOM      8  O   UNL     1       3.959   3.665   0.000  0.00  0.00    +0.000 OA
BRANCH   7   9
ATOM      9  O   UNL     1       3.662   5.062   0.000  0.00  0.00    +0.000 OA
BRANCH   9  11
ATOM     10  C   UNL     1       3.365   6.460   0.000  0.00  0.00    +0.000 C 
ATOM     11  C   UNL     1       3.110   5.675   0.000  0.00  0.00    +0.000 C 
ATOM     12  C   UNL     1       2.303   5.504   0.000  0.00  0.00    +0.000 C 
ENDBRANCH   9  11
ENDBRANCH   7   9
ENDBRANCH   5   7
ENDBRANCH   4   5
ENDBRANCH   2   4
BRANCH   2  13
ATOM     13  O   UNL     1       3.510   3.260   0.000  0.00  0.00    +0.000 OA
BRANCH  13  14
ATOM     14  C   UNL     1       4.295   3.006   0.000  0.00  0.00    +0.000 A 
ATOM     15  C   UNL     1       4.908   3.558   0.000  0.00  0.00    +0.000 A 
ATOM     16  C   UNL     1       5.693   3.303   0.000  0.00  0.00    +0.000 A 
ATOM     17  C   UNL     1       5.864   2.496   0.000  0.00  0.00    +0.000 A 
ATOM     18  C   UNL     1       5.251   1.944   0.000  0.00  0.00    +0.000 A 
ATOM     19  C   UNL     1       4.466   2.199   0.000  0.00  0.00    +0.000 A 
ENDBRANCH  13  14
ENDBRANCH   2  13
ENDBRANCH   1   2
BRANCH   1  20
ATOM     20  C   UNL     1       3.194   1.311   0.000  0.00  0.00    +0.000 C 
BRANCH  20  21
ATOM     21  C   UNL     1       3.746   0.698   0.000  0.00  0.00    +0.000 C 
ATOM     22  F   UNL     1       4.298   1.311   0.000  0.00  0.00    +0.000 F 
ATOM     23  O   UNL     1       3.079   0.213   0.000  0.00  0.00    +0.000 OA
ATOM     24  C   UNL     1       3.334  -0.572   0.000  0.00  0.00    +0.000 C 
ATOM     25  C   UNL     1       4.159  -0.572   0.000  0.00  0.00    +0.000 C 
ATOM     26  C   UNL     1       4.966  -0.744   0.000  0.00  0.00    +0.000 C 
ATOM     27  O   UNL     1       4.073  -1.392   0.000  0.00  0.00    +0.000 OA
ATOM     28  C   UNL     1       4.414   0.213   0.000  0.00  0.00    +0.000 C 
ATOM     29  O   UNL     1       5.198   0.468   0.000  0.00  0.00    +0.000 OA
BRANCH  24  30
ATOM     30  N   UNL     1       2.849  -1.239   0.000  0.00  0.00    +0.000 N 
ATOM     31  C   UNL     1       3.184  -1.993   0.000  0.00  0.00    +0.000 A 
ATOM     32  C   UNL     1       2.700  -2.660   0.000  0.00  0.00    +0.000 A 
ATOM     33  C   UNL     1       1.879  -2.574   0.000  0.00  0.00    +0.000 A 
ATOM     34  O   UNL     1       1.394  -3.242   0.000  0.00  0.00    +0.000 OA
ATOM     35  N   UNL     1       1.544  -1.821   0.000  0.00  0.00    +0.000 NA
ATOM     36  C   UNL     1       2.029  -1.153   0.000  0.00  0.00    +0.000 A 
ATOM     37  O   UNL     1       1.693  -0.400   0.000  0.00  0.00    +0.000 OA
ENDBRANCH  24  30
ENDBRANCH  20  21
ENDBRANCH   1  20
TORSDOF 11
