REMARK  Name = 
REMARK  6 active torsions:
REMARK  status: ('A' for Active; 'I' for Inactive)
REMARK    1  A    between atoms: N_7  and  C_10
REMARK    2  A    between atoms: C_13  and  C_15
REMARK    3  A    between atoms: C_15  and  O_16
REMARK    4  A    between atoms: O_16  and  W_17
REMARK    5  A    between atoms: W_17  and  O_20
REMARK    6  A    between atoms: O_20  and  W_21
REMARK                            x       y       z     vdW  Elec       q    Type
REMARK                         _______ _______ _______ _____ _____    ______ ____
ROOT
ATOM      1  C   UNL     1      -1.196   0.121   0.000  0.00  0.00    +0.000 C 
ATOM      2  C   UNL     1      -1.683  -0.544   0.000  0.00  0.00    +0.000 C 
ATOM      3  C   UNL     1      -1.198  -1.213   0.000  0.00  0.00    +0.000 C 
ATOM      4  C   UNL     1      -0.412  -0.960   0.000  0.00  0.00    +0.000 C 
ATOM      5  O   UNL     1      -0.411  -0.131   0.000  0.00  0.00    +0.000 OA
ATOM      6  O   UNL     1      -1.454  -1.996   0.000  0.00  0.00    +0.000 OA
ATOM      7  O   UNL     1      -2.507  -0.543   0.000  0.00  0.00    +0.000 OA
ENDROOT
BRANCH   1  14
ATOM      8  C   UNL     1      -3.672   1.163   0.000  0.00  0.00    +0.000 A 
ATOM      9  N   UNL     1      -3.672   1.992   0.000  0.00  0.00    +0.000 NA
ATOM     10  C   UNL     1      -2.956   2.411   0.000  0.00  0.00    +0.000 A 
ATOM     11  C   UNL     1      -2.241   1.992   0.000  0.00  0.00    +0.000 A 
ATOM     12  C   UNL     1      -2.241   1.162   0.000  0.00  0.00    +0.000 A 
ATOM     13  N   UNL     1      -2.956   0.752   0.000  0.00  0.00    +0.000 NA
ATOM     14  N   UNL     1      -1.451   0.905   0.000  0.00  0.00    +0.000 N 
ATOM     15  C   UNL     1      -0.963   1.577   0.000  0.00  0.00    +0.000 A 
ATOM     16  N   UNL     1      -1.451   2.248   0.000  0.00  0.00    +0.000 NA
ATOM     17  N   UNL     1      -2.956   3.235   0.000  0.00  0.00    +0.000 NA
ENDBRANCH   1  14
BRANCH   4  18
ATOM     18  C   UNL     1       0.254  -1.445   0.000  0.00  0.00    +0.000 C 
BRANCH  18  19
ATOM     19  O   UNL     1       1.008  -1.111   0.000  0.00  0.00    +0.000 OA
BRANCH  19  20
ATOM     20  W   UNL     1       1.674  -1.597   0.000  0.00  0.00    +0.000 W 
ATOM     21  O   UNL     1       2.160  -0.931   0.000  0.00  0.00    +0.000 OA
ATOM     22  O   UNL     1       1.188  -2.264   0.000  0.00  0.00    +0.000 OA
BRANCH  20  23
ATOM     23  O   UNL     1       2.340  -2.083   0.000  0.00  0.00    +0.000 OA
BRANCH  23  24
ATOM     24  W   UNL     1       3.006  -2.569   0.000  0.00  0.00    +0.000 W 
ATOM     25  O   UNL     1       3.672  -3.055   0.000  0.00  0.00    +0.000 OA
ATOM     26  O   UNL     1       3.492  -1.903   0.000  0.00  0.00    +0.000 OA
ATOM     27  O   UNL     1       2.520  -3.235   0.000  0.00  0.00    +0.000 OA
ENDBRANCH  23  24
ENDBRANCH  20  23
ENDBRANCH  19  20
ENDBRANCH  18  19
ENDBRANCH   4  18
TORSDOF 6
