REMARK  Name = 
REMARK  5 active torsions:
REMARK  status: ('A' for Active; 'I' for Inactive)
REMARK    1  A    between atoms: C_9  and  O_12
REMARK    2  A    between atoms: O_12  and  C_13
REMARK    3  A    between atoms: C_16  and  O_22
REMARK    4  A    between atoms: O_22  and  C_23
REMARK    5  A    between atoms: C_23  and  C_24
REMARK                            x       y       z     vdW  Elec       q    Type
REMARK                         _______ _______ _______ _____ _____    ______ ____
ROOT
ATOM      1  C   UNL     1       0.715  -0.412   0.000  0.00  0.00    +0.000 A 
ATOM      2  C   UNL     1       0.000   0.000   0.000  0.00  0.00    +0.000 A 
ATOM      3  C   UNL     1      -0.785  -0.255   0.000  0.00  0.00    +0.000 A 
ATOM      4  C   UNL     1      -1.270   0.412   0.000  0.00  0.00    +0.000 A 
ATOM      5  C   UNL     1      -0.785   1.080   0.000  0.00  0.00    +0.000 A 
ATOM      6  N   UNL     1       0.000   0.825   0.000  0.00  0.00    +0.000 N 
ATOM      7  N   UNL     1       0.715   1.238   0.000  0.00  0.00    +0.000 NA
ATOM      8  C   UNL     1       1.429   0.825   0.000  0.00  0.00    +0.000 A 
ATOM      9  N   UNL     1       1.429   0.000   0.000  0.00  0.00    +0.000 NA
ATOM     10  C   UNL     1      -1.040  -1.040   0.000  0.00  0.00    +0.000 C 
ENDROOT
BRANCH   1  11
ATOM     11  O   UNL     1       0.715  -1.238   0.000  0.00  0.00    +0.000 OA
BRANCH  11  20
ATOM     12  C   UNL     1       4.952  -2.062   0.000  0.00  0.00    +0.000 C 
ATOM     13  C   UNL     1       4.127  -2.062   0.000  0.00  0.00    +0.000 A 
ATOM     14  C   UNL     1       3.643  -1.395   0.000  0.00  0.00    +0.000 A 
ATOM     15  C   UNL     1       2.858  -1.650   0.000  0.00  0.00    +0.000 A 
ATOM     16  C   UNL     1       2.858  -2.475   0.000  0.00  0.00    +0.000 A 
ATOM     17  N   UNL     1       3.643  -2.730   0.000  0.00  0.00    +0.000 NA
ATOM     18  C   UNL     1       2.143  -2.888   0.000  0.00  0.00    +0.000 A 
ATOM     19  C   UNL     1       1.429  -2.475   0.000  0.00  0.00    +0.000 A 
ATOM     20  C   UNL     1       1.429  -1.650   0.000  0.00  0.00    +0.000 A 
ATOM     21  C   UNL     1       2.143  -1.238   0.000  0.00  0.00    +0.000 A 
ATOM     22  F   UNL     1       2.143  -0.412   0.000  0.00  0.00    +0.000 F 
ENDBRANCH  11  20
ENDBRANCH   1  11
BRANCH   4  23
ATOM     23  O   UNL     1      -2.095   0.412   0.000  0.00  0.00    +0.000 OA
BRANCH  23  24
ATOM     24  C   UNL     1      -2.507  -0.302   0.000  0.00  0.00    +0.000 C 
BRANCH  24  25
ATOM     25  C   UNL     1      -3.332  -0.302   0.000  0.00  0.00    +0.000 C 
ATOM     26  C   UNL     1      -3.744  -1.016   0.000  0.00  0.00    +0.000 C 
ATOM     27  O   UNL     1      -3.744   0.412   0.000  0.00  0.00    +0.000 OA
ENDBRANCH  24  25
ENDBRANCH  23  24
ENDBRANCH   4  23
TORSDOF 5
