REMARK  Name = 
REMARK  1 active torsions:
REMARK  status: ('A' for Active; 'I' for Inactive)
REMARK    1  A    between atoms: N_2  and  C_5
REMARK                            x       y       z     vdW  Elec       q    Type
REMARK                         _______ _______ _______ _____ _____    ______ ____
ROOT
ATOM      1  O   UNL     1      -1.786   0.206   0.000  0.00  0.00    +0.000 OA
ATOM      2  N   UNL     1       0.357   0.619   0.000  0.00  0.00    +0.000 NA
ATOM      3  N   UNL     1      -1.072   0.619   0.000  0.00  0.00    +0.000 NA
ATOM      4  N   UNL     1      -0.357  -0.619   0.000  0.00  0.00    +0.000 NA
ATOM      5  C   UNL     1      -0.357   0.206   0.000  0.00  0.00    +0.000 C 
ENDROOT
BRANCH   2   6
ATOM      6  C   UNL     1       1.072   0.206   0.000  0.00  0.00    +0.000 C 
ATOM      7  C   UNL     1       1.786   0.619   0.000  0.00  0.00    +0.000 C 
ATOM      8  C   UNL     1       1.072  -0.619   0.000  0.00  0.00    +0.000 C 
ENDBRANCH   2   6
TORSDOF 1
