REMARK  Name = 
REMARK  7 active torsions:
REMARK  status: ('A' for Active; 'I' for Inactive)
REMARK    1  A    between atoms: C_1  and  C_8
REMARK    2  A    between atoms: C_22  and  O_26
REMARK    3  A    between atoms: C_23  and  O_24
REMARK    4  A    between atoms: O_26  and  C_27
REMARK    5  A    between atoms: C_27  and  C_28
REMARK    6  A    between atoms: C_28  and  C_29
REMARK    7  A    between atoms: C_29  and  N_30
REMARK                            x       y       z     vdW  Elec       q    Type
REMARK                         _______ _______ _______ _____ _____    ______ ____
ROOT
ATOM      1  C   UNL     1       3.210  -0.155   0.000  0.00  0.00    +0.000 C 
ATOM      2  O   UNL     1       3.209   0.671   0.000  0.00  0.00    +0.000 OA
ATOM      3  N   UNL     1       2.495  -0.568   0.000  0.00  0.00    +0.000 NA
ATOM      4  C   UNL     1       1.780  -0.155   0.000  0.00  0.00    +0.000 C 
ATOM      5  N   UNL     1       1.068  -0.570   0.000  0.00  0.00    +0.000 NA
ATOM      6  N   UNL     1       1.251   1.888   0.000  0.00  0.00    +0.000 NA
ATOM      7  C   UNL     1       1.072   1.083   0.000  0.00  0.00    +0.000 C 
ATOM      8  N   UNL     1       1.783   0.665   0.000  0.00  0.00    +0.000 N 
ATOM      9  C   UNL     1       2.400   1.213   0.000  0.00  0.00    +0.000 C 
ATOM     10  C   UNL     1       2.068   1.968   0.000  0.00  0.00    +0.000 C 
ATOM     11  C   UNL     1       0.353  -0.152   0.000  0.00  0.00    +0.000 A 
ATOM     12  C   UNL     1       0.358   0.671   0.000  0.00  0.00    +0.000 A 
ATOM     13  C   UNL     1      -0.351   1.086   0.000  0.00  0.00    +0.000 A 
ATOM     14  C   UNL     1      -1.066   0.678   0.000  0.00  0.00    +0.000 A 
ATOM     15  C   UNL     1      -1.068  -0.148   0.000  0.00  0.00    +0.000 A 
ATOM     16  C   UNL     1      -0.358  -0.559   0.000  0.00  0.00    +0.000 A 
ENDROOT
BRANCH   1  17
ATOM     17  C   UNL     1       3.925  -0.567   0.000  0.00  0.00    +0.000 A 
ATOM     18  C   UNL     1       3.924  -1.395   0.000  0.00  0.00    +0.000 A 
ATOM     19  N   UNL     1       4.639  -1.808   0.000  0.00  0.00    +0.000 NA
ATOM     20  C   UNL     1       5.356  -1.395   0.000  0.00  0.00    +0.000 A 
ATOM     21  N   UNL     1       5.353  -0.564   0.000  0.00  0.00    +0.000 NA
ATOM     22  C   UNL     1       4.637  -0.154   0.000  0.00  0.00    +0.000 A 
ATOM     23  N   UNL     1       6.071  -1.806   0.000  0.00  0.00    +0.000 NA
ENDBRANCH   1  17
BRANCH  16  24
ATOM     24  O   UNL     1      -0.360  -1.385   0.000  0.00  0.00    +0.000 OA
ATOM     25  C   UNL     1      -0.952  -1.968   0.000  0.00  0.00    +0.000 C 
ENDBRANCH  16  24
BRANCH  15  26
ATOM     26  O   UNL     1      -1.784  -0.560   0.000  0.00  0.00    +0.000 OA
BRANCH  26  27
ATOM     27  C   UNL     1      -2.498  -0.146   0.000  0.00  0.00    +0.000 C 
BRANCH  27  28
ATOM     28  C   UNL     1      -3.213  -0.557   0.000  0.00  0.00    +0.000 C 
BRANCH  28  29
ATOM     29  C   UNL     1      -3.928  -0.143   0.000  0.00  0.00    +0.000 C 
BRANCH  29  30
ATOM     30  N   UNL     1      -4.643  -0.555   0.000  0.00  0.00    +0.000 NA
ATOM     31  C   UNL     1      -5.352  -0.138   0.000  0.00  0.00    +0.000 C 
ATOM     32  C   UNL     1      -6.066  -0.546   0.000  0.00  0.00    +0.000 C 
ATOM     33  O   UNL     1      -6.071  -1.372   0.000  0.00  0.00    +0.000 OA
ATOM     34  C   UNL     1      -5.357  -1.788   0.000  0.00  0.00    +0.000 C 
ATOM     35  C   UNL     1      -4.637  -1.379   0.000  0.00  0.00    +0.000 C 
ENDBRANCH  29  30
ENDBRANCH  28  29
ENDBRANCH  27  28
ENDBRANCH  26  27
ENDBRANCH  15  26
TORSDOF 7
