REMARK  Name = 
REMARK  8 active torsions:
REMARK  status: ('A' for Active; 'I' for Inactive)
REMARK    1  A    between atoms: O_2  and  C_3
REMARK    2  A    between atoms: C_9  and  C_10
REMARK    3  A    between atoms: C_10  and  C_11
REMARK    4  A    between atoms: C_11  and  N_12
REMARK    5  A    between atoms: C_13  and  C_15
REMARK    6  A    between atoms: C_18  and  O_19
REMARK    7  A    between atoms: O_19  and  C_20
REMARK    8  A    between atoms: C_27  and  C_31
REMARK                            x       y       z     vdW  Elec       q    Type
REMARK                         _______ _______ _______ _____ _____    ______ ____
ROOT
ATOM      1  C   UNL     1      -3.572  -0.412   0.000  0.00  0.00    +0.000 A 
ATOM      2  C   UNL     1      -2.858   0.000   0.000  0.00  0.00    +0.000 A 
ATOM      3  C   UNL     1      -2.143  -0.412   0.000  0.00  0.00    +0.000 A 
ATOM      4  C   UNL     1      -2.143  -1.238   0.000  0.00  0.00    +0.000 A 
ATOM      5  C   UNL     1      -2.858  -1.650   0.000  0.00  0.00    +0.000 A 
ATOM      6  C   UNL     1      -3.572  -1.238   0.000  0.00  0.00    +0.000 A 
ENDROOT
BRANCH   1   8
ATOM      7  N   UNL     1      -5.001  -0.412   0.000  0.00  0.00    +0.000 NA
ATOM      8  C   UNL     1      -4.287   0.000   0.000  0.00  0.00    +0.000 C 
ATOM      9  O   UNL     1      -4.287   0.825   0.000  0.00  0.00    +0.000 OA
BRANCH   7  10
ATOM     10  C   UNL     1      -5.716   0.000   0.000  0.00  0.00    +0.000 C 
BRANCH  10  11
ATOM     11  C   UNL     1      -6.430  -0.412   0.000  0.00  0.00    +0.000 C 
BRANCH  11  18
ATOM     12  C   UNL     1      -7.859  -0.412   0.000  0.00  0.00    +0.000 A 
ATOM     13  C   UNL     1      -8.574   0.000   0.000  0.00  0.00    +0.000 A 
ATOM     14  C   UNL     1      -8.574   0.825   0.000  0.00  0.00    +0.000 A 
ATOM     15 CL   UNL     1      -9.288   1.238   0.000  0.00  0.00    +0.000 Cl
ATOM     16  C   UNL     1      -7.859   1.238   0.000  0.00  0.00    +0.000 A 
ATOM     17  C   UNL     1      -7.145   0.825   0.000  0.00  0.00    +0.000 A 
ATOM     18  C   UNL     1      -7.145   0.000   0.000  0.00  0.00    +0.000 A 
BRANCH  12  20
ATOM     19  C   UNL     1      -7.145  -1.650   0.000  0.00  0.00    +0.000 C 
ATOM     20  O   UNL     1      -7.859  -1.238   0.000  0.00  0.00    +0.000 OA
ENDBRANCH  12  20
ENDBRANCH  11  18
ENDBRANCH  10  11
ENDBRANCH   7  10
ENDBRANCH   1   8
BRANCH   4  21
ATOM     21  O   UNL     1      -1.429  -1.650   0.000  0.00  0.00    +0.000 OA
BRANCH  21  22
ATOM     22  C   UNL     1      -0.715  -1.238   0.000  0.00  0.00    +0.000 A 
ATOM     23  C   UNL     1       0.000  -1.650   0.000  0.00  0.00    +0.000 A 
ATOM     24  C   UNL     1       0.715  -1.238   0.000  0.00  0.00    +0.000 A 
ATOM     25  C   UNL     1       0.715  -0.412   0.000  0.00  0.00    +0.000 A 
ATOM     26  C   UNL     1       0.000   0.000   0.000  0.00  0.00    +0.000 A 
ATOM     27  C   UNL     1      -0.715  -0.412   0.000  0.00  0.00    +0.000 A 
ATOM     28 CL   UNL     1      -1.429   0.000   0.000  0.00  0.00    +0.000 Cl
ATOM     29  C   UNL     1       1.429   0.000   0.000  0.00  0.00    +0.000 C 
ATOM     30  C   UNL     1       2.143  -0.412   0.000  0.00  0.00    +0.000 C 
ATOM     31  C   UNL     1       2.143  -1.238   0.000  0.00  0.00    +0.000 C 
ATOM     32  O   UNL     1       1.429  -1.650   0.000  0.00  0.00    +0.000 OA
BRANCH  29  33
ATOM     33  C   UNL     1       1.429   0.825   0.000  0.00  0.00    +0.000 C 
ATOM     34  O   UNL     1       2.143   1.238   0.000  0.00  0.00    +0.000 OA
ATOM     35  O   UNL     1       0.715   1.238   0.000  0.00  0.00    +0.000 OA
ENDBRANCH  29  33
ENDBRANCH  21  22
ENDBRANCH   4  21
TORSDOF 8
