REMARK  Name = 
REMARK  10 active torsions:
REMARK  status: ('A' for Active; 'I' for Inactive)
REMARK    1  A    between atoms: O_2  and  C_3
REMARK    2  A    between atoms: C_8  and  C_9
REMARK    3  A    between atoms: N_11  and  C_12
REMARK    4  A    between atoms: C_12  and  C_13
REMARK    5  A    between atoms: N_16  and  C_19
REMARK    6  A    between atoms: C_19  and  C_20
REMARK    7  A    between atoms: C_20  and  C_21
REMARK    8  A    between atoms: C_21  and  C_22
REMARK    9  A    between atoms: C_21  and  O_29
REMARK   10  A    between atoms: O_29  and  C_30
REMARK                            x       y       z     vdW  Elec       q    Type
REMARK                         _______ _______ _______ _____ _____    ______ ____
ROOT
ATOM      1  C   UNL     1      -0.715  -1.238   0.000  0.00  0.00    +0.000 C 
ATOM      2  C   UNL     1       0.000  -0.825   0.000  0.00  0.00    +0.000 C 
ATOM      3  C   UNL     1       0.715  -1.238   0.000  0.00  0.00    +0.000 C 
ATOM      4  N   UNL     1       0.715  -2.062   0.000  0.00  0.00    +0.000 NA
ATOM      5  C   UNL     1       0.000  -2.475   0.000  0.00  0.00    +0.000 C 
ATOM      6  C   UNL     1      -0.715  -2.062   0.000  0.00  0.00    +0.000 C 
ENDROOT
BRANCH   1   7
ATOM      7  C   UNL     1      -1.429  -0.825   0.000  0.00  0.00    +0.000 C 
BRANCH   7  10
ATOM      8  C   UNL     1      -2.143   0.412   0.000  0.00  0.00    +0.000 C 
ATOM      9  O   UNL     1      -2.858   0.000   0.000  0.00  0.00    +0.000 OA
ATOM     10  N   UNL     1      -1.429   0.000   0.000  0.00  0.00    +0.000 NA
BRANCH   8  16
ATOM     11  C   UNL     1      -2.858   1.650   0.000  0.00  0.00    +0.000 A 
ATOM     12  C   UNL     1      -2.858   2.475   0.000  0.00  0.00    +0.000 A 
ATOM     13  C   UNL     1      -2.143   2.888   0.000  0.00  0.00    +0.000 A 
ATOM     14  C   UNL     1      -1.429   2.475   0.000  0.00  0.00    +0.000 A 
ATOM     15  C   UNL     1      -1.429   1.650   0.000  0.00  0.00    +0.000 A 
ATOM     16  C   UNL     1      -2.143   1.238   0.000  0.00  0.00    +0.000 A 
ATOM     17 CL   UNL     1      -0.715   2.888   0.000  0.00  0.00    +0.000 Cl
ATOM     18  N   UNL     1      -2.143   3.712   0.000  0.00  0.00    +0.000 NA
BRANCH  11  20
ATOM     19  C   UNL     1      -3.572   0.412   0.000  0.00  0.00    +0.000 C 
ATOM     20  O   UNL     1      -3.572   1.238   0.000  0.00  0.00    +0.000 OA
ENDBRANCH  11  20
ENDBRANCH   8  16
ENDBRANCH   7  10
ENDBRANCH   1   7
BRANCH   4  21
ATOM     21  C   UNL     1       1.429  -2.475   0.000  0.00  0.00    +0.000 C 
BRANCH  21  22
ATOM     22  C   UNL     1       1.429  -3.300   0.000  0.00  0.00    +0.000 C 
BRANCH  22  23
ATOM     23  C   UNL     1       2.143  -3.712   0.000  0.00  0.00    +0.000 C 
BRANCH  23  24
ATOM     24  C   UNL     1       2.143  -4.537   0.000  0.00  0.00    +0.000 A 
ATOM     25  C   UNL     1       2.858  -4.950   0.000  0.00  0.00    +0.000 A 
ATOM     26  C   UNL     1       2.858  -5.775   0.000  0.00  0.00    +0.000 A 
ATOM     27  C   UNL     1       2.143  -6.188   0.000  0.00  0.00    +0.000 A 
ATOM     28  C   UNL     1       1.429  -5.775   0.000  0.00  0.00    +0.000 A 
ATOM     29  C   UNL     1       1.429  -4.950   0.000  0.00  0.00    +0.000 A 
ATOM     30  F   UNL     1       2.143  -7.013   0.000  0.00  0.00    +0.000 F 
ENDBRANCH  23  24
BRANCH  23  31
ATOM     31  O   UNL     1       2.858  -3.300   0.000  0.00  0.00    +0.000 OA
BRANCH  31  32
ATOM     32  C   UNL     1       2.858  -2.475   0.000  0.00  0.00    +0.000 C 
ATOM     33  O   UNL     1       2.143  -2.062   0.000  0.00  0.00    +0.000 OA
ATOM     34  N   UNL     1       3.572  -2.062   0.000  0.00  0.00    +0.000 NA
ENDBRANCH  31  32
ENDBRANCH  23  31
ENDBRANCH  22  23
ENDBRANCH  21  22
ENDBRANCH   4  21
TORSDOF 10
