REMARK  Name = 
REMARK  9 active torsions:
REMARK  status: ('A' for Active; 'I' for Inactive)
REMARK    1  A    between atoms: C_3  and  C_14
REMARK    2  A    between atoms: N_7  and  C_8
REMARK    3  A    between atoms: C_8  and  O_9
REMARK    4  A    between atoms: O_9  and  P_10
REMARK    5  A    between atoms: C_16  and  C_17
REMARK    6  A    between atoms: C_17  and  C_18
REMARK    7  A    between atoms: C_21  and  C_22
REMARK    8  A    between atoms: C_22  and  O_23
REMARK    9  A    between atoms: O_23  and  C_24
REMARK                            x       y       z     vdW  Elec       q    Type
REMARK                         _______ _______ _______ _____ _____    ______ ____
ROOT
ATOM      1  C   UNL     1       2.751  -5.012   0.000  0.00  0.00    +0.000 A 
ATOM      2  C   UNL     1       3.419  -5.497   0.000  0.00  0.00    +0.000 A 
ATOM      3  C   UNL     1       3.164  -6.281   0.000  0.00  0.00    +0.000 A 
ATOM      4  N   UNL     1       2.339  -6.281   0.000  0.00  0.00    +0.000 NA
ATOM      5  O   UNL     1       2.084  -5.497   0.000  0.00  0.00    +0.000 OA
ENDROOT
BRANCH   1   8
ATOM      6  N   UNL     1       4.180  -4.187   0.000  0.00  0.00    +0.000 NA
ATOM      7  C   UNL     1       3.466  -3.774   0.000  0.00  0.00    +0.000 A 
ATOM      8  C   UNL     1       2.751  -4.187   0.000  0.00  0.00    +0.000 A 
ATOM      9  C   UNL     1       2.037  -3.774   0.000  0.00  0.00    +0.000 A 
ATOM     10  C   UNL     1       2.037  -2.949   0.000  0.00  0.00    +0.000 A 
ATOM     11  C   UNL     1       2.751  -2.537   0.000  0.00  0.00    +0.000 A 
ATOM     12  N   UNL     1       3.466  -2.949   0.000  0.00  0.00    +0.000 N 
BRANCH  12  13
ATOM     13  C   UNL     1       4.180  -2.537   0.000  0.00  0.00    +0.000 C 
BRANCH  13  14
ATOM     14  O   UNL     1       4.180  -1.712   0.000  0.00  0.00    +0.000 OA
BRANCH  14  15
ATOM     15  P   UNL     1       4.895  -1.299   0.000  0.00  0.00    +0.000 P 
ATOM     16  O   UNL     1       5.609  -0.887   0.000  0.00  0.00    +0.000 OA
ATOM     17  O   UNL     1       4.482  -0.585   0.000  0.00  0.00    +0.000 OA
ATOM     18  O   UNL     1       5.307  -2.014   0.000  0.00  0.00    +0.000 OA
ENDBRANCH  14  15
ENDBRANCH  13  14
ENDBRANCH  12  13
ENDBRANCH   1   8
BRANCH   3  19
ATOM     19  C   UNL     1       3.649  -6.949   0.000  0.00  0.00    +0.000 C 
BRANCH  19  20
ATOM     20  C   UNL     1       3.313  -7.702   0.000  0.00  0.00    +0.000 A 
ATOM     21  C   UNL     1       3.798  -8.370   0.000  0.00  0.00    +0.000 A 
ATOM     22  C   UNL     1       3.462  -9.123   0.000  0.00  0.00    +0.000 A 
ATOM     23  C   UNL     1       2.642  -9.210   0.000  0.00  0.00    +0.000 A 
ATOM     24  C   UNL     1       2.157  -8.542   0.000  0.00  0.00    +0.000 A 
ATOM     25  C   UNL     1       2.493  -7.788   0.000  0.00  0.00    +0.000 A 
BRANCH  23  26
ATOM     26  C   UNL     1       2.306  -9.963   0.000  0.00  0.00    +0.000 C 
BRANCH  26  27
ATOM     27  O   UNL     1       2.791 -10.631   0.000  0.00  0.00    +0.000 OA
BRANCH  27  28
ATOM     28  C   UNL     1       2.456 -11.384   0.000  0.00  0.00    +0.000 A 
ATOM     29  N   UNL     1       2.941 -12.052   0.000  0.00  0.00    +0.000 NA
ATOM     30  C   UNL     1       2.605 -12.806   0.000  0.00  0.00    +0.000 A 
ATOM     31  C   UNL     1       1.785 -12.892   0.000  0.00  0.00    +0.000 A 
ATOM     32  C   UNL     1       1.300 -12.224   0.000  0.00  0.00    +0.000 A 
ATOM     33  C   UNL     1       1.635 -11.471   0.000  0.00  0.00    +0.000 A 
ENDBRANCH  27  28
ENDBRANCH  26  27
ENDBRANCH  23  26
ENDBRANCH  19  20
ENDBRANCH   3  19
TORSDOF 9
