REMARK  Name = 
REMARK  39 active torsions:
REMARK  status: ('A' for Active; 'I' for Inactive)
REMARK    1  A    between atoms: C_2  and  C_3
REMARK    2  A    between atoms: C_4  and  C_5
REMARK    3  A    between atoms: C_5  and  C_6
REMARK    4  A    between atoms: C_7  and  C_8
REMARK    5  A    between atoms: C_8  and  C_9
REMARK    6  A    between atoms: C_10  and  C_11
REMARK    7  A    between atoms: C_11  and  C_12
REMARK    8  A    between atoms: C_13  and  C_14
REMARK    9  A    between atoms: C_14  and  C_15
REMARK   10  A    between atoms: C_16  and  C_17
REMARK   11  A    between atoms: C_17  and  C_18
REMARK   12  A    between atoms: C_18  and  C_19
REMARK   13  A    between atoms: C_19  and  C_20
REMARK   14  A    between atoms: C_20  and  C_21
REMARK   15  A    between atoms: C_21  and  O_23
REMARK   16  A    between atoms: O_23  and  C_24
REMARK   17  A    between atoms: C_24  and  C_26
REMARK   18  A    between atoms: C_24  and  C_49
REMARK   19  A    between atoms: C_26  and  O_27
REMARK   20  A    between atoms: O_27  and  C_28
REMARK   21  A    between atoms: C_28  and  C_30
REMARK   22  A    between atoms: C_30  and  C_31
REMARK   23  A    between atoms: C_31  and  C_32
REMARK   24  A    between atoms: C_32  and  C_33
REMARK   25  A    between atoms: C_34  and  C_35
REMARK   26  A    between atoms: C_35  and  C_36
REMARK   27  A    between atoms: C_37  and  C_38
REMARK   28  A    between atoms: C_38  and  C_39
REMARK   29  A    between atoms: C_40  and  C_41
REMARK   30  A    between atoms: C_41  and  C_42
REMARK   31  A    between atoms: C_43  and  C_44
REMARK   32  A    between atoms: C_44  and  C_45
REMARK   33  A    between atoms: C_46  and  C_47
REMARK   34  A    between atoms: C_49  and  O_50
REMARK   35  A    between atoms: O_50  and  P_51
REMARK   36  A    between atoms: P_51  and  O_54
REMARK   37  A    between atoms: O_54  and  C_55
REMARK   38  A    between atoms: C_55  and  C_56
REMARK   39  A    between atoms: C_56  and  C_58
REMARK                            x       y       z     vdW  Elec       q    Type
REMARK                         _______ _______ _______ _____ _____    ______ ____
ROOT
ATOM      1  C   UNK     1       3.707  -4.467   0.000  0.00  0.00    +0.000 C 
ENDROOT
BRANCH   1   2
ATOM      2  C   UNK     1       4.120  -3.760   0.000  0.00  0.00    +0.000 C 
BRANCH   2   3
ATOM      3  O   UNK     1       3.707  -3.041   0.000  0.00  0.00    +0.000 OA
BRANCH   3   4
ATOM      4  C   UNK     1       4.120  -2.334   0.000  0.00  0.00    +0.000 C 
ATOM      5  O   UNK     1       4.945  -2.334   0.000  0.00  0.00    +0.000 OA
BRANCH   4   6
ATOM      6  C   UNK     1       3.707  -1.615   0.000  0.00  0.00    +0.000 C 
BRANCH   6   7
ATOM      7  C   UNK     1       2.882  -1.615   0.000  0.00  0.00    +0.000 C 
BRANCH   7   8
ATOM      8  C   UNK     1       2.681  -1.261   0.000  0.00  0.00    +0.000 C 
BRANCH   8   9
ATOM      9  C   UNK     1       1.856  -1.249   0.000  0.00  0.00    +0.000 C 
ATOM     10  C   UNK     1       1.444  -0.542   0.000  0.00  0.00    +0.000 C 
BRANCH  10  11
ATOM     11  C   UNK     1       1.856   0.177   0.000  0.00  0.00    +0.000 C 
BRANCH  11  12
ATOM     12  C   UNK     1       2.681   0.177   0.000  0.00  0.00    +0.000 C 
ATOM     13  C   UNK     1       3.094   0.884   0.000  0.00  0.00    +0.000 C 
BRANCH  13  14
ATOM     14  C   UNK     1       2.693   1.603   0.000  0.00  0.00    +0.000 C 
BRANCH  14  15
ATOM     15  C   UNK     1       1.868   1.603   0.000  0.00  0.00    +0.000 C 
ATOM     16  C   UNK     1       1.456   2.322   0.000  0.00  0.00    +0.000 C 
BRANCH  16  17
ATOM     17  C   UNK     1       1.868   3.029   0.000  0.00  0.00    +0.000 C 
BRANCH  17  18
ATOM     18  C   UNK     1       2.693   3.029   0.000  0.00  0.00    +0.000 C 
ATOM     19  C   UNK     1       3.118   3.748   0.000  0.00  0.00    +0.000 C 
BRANCH  19  20
ATOM     20  C   UNK     1       2.705   4.455   0.000  0.00  0.00    +0.000 C 
BRANCH  20  21
ATOM     21  C   UNK     1       1.880   4.467   0.000  0.00  0.00    +0.000 C 
ATOM     22  C   UNK     1       1.479   5.186   0.000  0.00  0.00    +0.000 C 
BRANCH  22  23
ATOM     23  C   UNK     1       1.892   5.893   0.000  0.00  0.00    +0.000 C 
ATOM     24  C   UNK     1       2.705   5.893   0.000  0.00  0.00    +0.000 C 
ENDBRANCH  22  23
ENDBRANCH  20  21
ENDBRANCH  19  20
ENDBRANCH  17  18
ENDBRANCH  16  17
ENDBRANCH  14  15
ENDBRANCH  13  14
ENDBRANCH  11  12
ENDBRANCH  10  11
ENDBRANCH   8   9
ENDBRANCH   7   8
ENDBRANCH   6   7
ENDBRANCH   4   6
ENDBRANCH   3   4
ENDBRANCH   2   3
ENDBRANCH   1   2
BRANCH   1  25
ATOM     25  O   UNK     1       3.294  -5.186   0.000  0.00  0.00    +0.000 OA
BRANCH  25  26
ATOM     26  C   UNK     1       2.469  -5.186   0.000  0.00  0.00    +0.000 C 
ATOM     27  O   UNK     1       2.045  -5.893   0.000  0.00  0.00    +0.000 OA
BRANCH  26  28
ATOM     28  C   UNK     1       2.057  -4.467   0.000  0.00  0.00    +0.000 C 
BRANCH  28  29
ATOM     29  C   UNK     1       2.469  -3.748   0.000  0.00  0.00    +0.000 C 
BRANCH  29  30
ATOM     30  C   UNK     1       2.057  -3.041   0.000  0.00  0.00    +0.000 C 
BRANCH  30  31
ATOM     31  C   UNK     1       2.469  -2.322   0.000  0.00  0.00    +0.000 C 
BRANCH  31  33
ATOM     32  C   UNK     1       1.232  -1.615   0.000  0.00  0.00    +0.000 C 
ATOM     33  C   UNK     1       2.057  -1.615   0.000  0.00  0.00    +0.000 C 
BRANCH  32  34
ATOM     34  C   UNK     1       0.819  -2.322   0.000  0.00  0.00    +0.000 C 
BRANCH  34  36
ATOM     35  C   UNK     1      -0.407  -1.603   0.000  0.00  0.00    +0.000 C 
ATOM     36  C   UNK     1       0.006  -2.322   0.000  0.00  0.00    +0.000 C 
BRANCH  35  37
ATOM     37  C   UNK     1       0.006  -0.896   0.000  0.00  0.00    +0.000 C 
BRANCH  37  39
ATOM     38  C   UNK     1      -1.232  -0.177   0.000  0.00  0.00    +0.000 C 
ATOM     39  C   UNK     1      -0.407  -0.177   0.000  0.00  0.00    +0.000 C 
BRANCH  38  40
ATOM     40  C   UNK     1      -1.644  -0.896   0.000  0.00  0.00    +0.000 C 
BRANCH  40  42
ATOM     41  C   UNK     1      -2.882  -0.177   0.000  0.00  0.00    +0.000 C 
ATOM     42  C   UNK     1      -2.469  -0.896   0.000  0.00  0.00    +0.000 C 
BRANCH  41  43
ATOM     43  C   UNK     1      -2.469   0.542   0.000  0.00  0.00    +0.000 C 
BRANCH  43  45
ATOM     44  C   UNK     1      -3.707   1.249   0.000  0.00  0.00    +0.000 C 
ATOM     45  C   UNK     1      -2.882   1.249   0.000  0.00  0.00    +0.000 C 
BRANCH  44  47
ATOM     46  C   UNK     1      -4.945   0.542   0.000  0.00  0.00    +0.000 C 
ATOM     47  C   UNK     1      -4.120   0.542   0.000  0.00  0.00    +0.000 C 
ENDBRANCH  44  47
ENDBRANCH  43  45
ENDBRANCH  41  43
ENDBRANCH  40  42
ENDBRANCH  38  40
ENDBRANCH  37  39
ENDBRANCH  35  37
ENDBRANCH  34  36
ENDBRANCH  32  34
ENDBRANCH  31  33
ENDBRANCH  30  31
ENDBRANCH  29  30
ENDBRANCH  28  29
ENDBRANCH  26  28
ENDBRANCH  25  26
ENDBRANCH   1  25
BRANCH   1  48
ATOM     48  C   UNK     1       2.988  -4.055   0.000  0.00  0.00    +0.000 C 
BRANCH  48  49
ATOM     49  O   UNK     1       2.281  -4.467   0.000  0.00  0.00    +0.000 OA
BRANCH  49  50
ATOM     50  P   UNK     1       1.562  -4.055   0.000  0.00  0.00    +0.000 P 
ATOM     51  O   UNK     1       1.974  -3.336   0.000  0.00  0.00    +0.000 OA
ATOM     52  O   UNK     1       1.149  -4.762   0.000  0.00  0.00    +0.000 OA
BRANCH  50  53
ATOM     53  O   UNK     1       0.855  -3.642   0.000  0.00  0.00    +0.000 OA
BRANCH  53  54
ATOM     54  C   UNK     1       0.136  -4.043   0.000  0.00  0.00    +0.000 C 
BRANCH  54  55
ATOM     55  C   UNK     1      -0.572  -3.630   0.000  0.00  0.00    +0.000 C 
ATOM     56  N   UNK     1      -0.984  -4.349   0.000  0.00  0.00    +0.000 NA
BRANCH  55  57
ATOM     57  C   UNK     1      -1.291  -3.218   0.000  0.00  0.00    +0.000 C 
ATOM     58  O   UNK     1      -1.291  -2.393   0.000  0.00  0.00    +0.000 OA
ATOM     59  O   UNK     1      -2.010  -3.630   0.000  0.00  0.00    +0.000 OA
ENDBRANCH  55  57
ENDBRANCH  54  55
ENDBRANCH  53  54
ENDBRANCH  50  53
ENDBRANCH  49  50
ENDBRANCH  48  49
ENDBRANCH   1  48
TORSDOF 39
