REMARK  Name = 
REMARK  2 active torsions:
REMARK  status: ('A' for Active; 'I' for Inactive)
REMARK    1  A    between atoms: N_15  and  C_16
REMARK    2  A    between atoms: C_16  and  C_18
REMARK                            x       y       z     vdW  Elec       q    Type
REMARK                         _______ _______ _______ _____ _____    ______ ____
ROOT
ATOM      1  C   UNL     1      -0.350   0.206   0.000  0.00  0.00    +0.000 A 
ATOM      2  N   UNL     1       0.365  -0.206   0.000  0.00  0.00    +0.000 NA
ATOM      3  C   UNL     1       1.080   0.206   0.000  0.00  0.00    +0.000 A 
ATOM      4  C   UNL     1       1.080   1.030   0.000  0.00  0.00    +0.000 A 
ATOM      5  C   UNL     1       0.365   1.442   0.000  0.00  0.00    +0.000 A 
ATOM      6  N   UNL     1      -0.350   1.030   0.000  0.00  0.00    +0.000 NA
ATOM      7 CL   UNL     1       1.795   1.442   0.000  0.00  0.00    +0.000 Cl
ATOM      8  N   UNL     1       1.795  -0.206   0.000  0.00  0.00    +0.000 NA
ATOM      9  C   UNL     1       2.510   0.206   0.000  0.00  0.00    +0.000 A 
ATOM     10  N   UNL     1       2.596   1.025   0.000  0.00  0.00    +0.000 NA
ATOM     11  N   UNL     1       3.400   1.197   0.000  0.00  0.00    +0.000 NA
ATOM     12  C   UNL     1       3.817   0.482   0.000  0.00  0.00    +0.000 A 
ATOM     13  C   UNL     1       3.264  -0.130   0.000  0.00  0.00    +0.000 A 
ATOM     14  C   UNL     1       4.636   0.395   0.000  0.00  0.00    +0.000 C 
ATOM     15  N   UNL     1      -1.061  -0.206   0.000  0.00  0.00    +0.000 NA
ENDROOT
BRANCH  15  16
ATOM     16  C   UNL     1      -1.776   0.206   0.000  0.00  0.00    +0.000 C 
ATOM     17  C   UNL     1      -1.776   1.030   0.000  0.00  0.00    +0.000 C 
BRANCH  16  18
ATOM     18  C   UNL     1      -2.490  -0.206   0.000  0.00  0.00    +0.000 A 
ATOM     19  N   UNL     1      -2.490  -1.030   0.000  0.00  0.00    +0.000 NA
ATOM     20  C   UNL     1      -3.206  -1.442   0.000  0.00  0.00    +0.000 A 
ATOM     21  C   UNL     1      -3.921  -1.030   0.000  0.00  0.00    +0.000 A 
ATOM     22  C   UNL     1      -3.921  -0.206   0.000  0.00  0.00    +0.000 A 
ATOM     23  N   UNL     1      -3.206   0.206   0.000  0.00  0.00    +0.000 NA
ATOM     24  F   UNL     1      -4.636  -1.442   0.000  0.00  0.00    +0.000 F 
ENDBRANCH  16  18
ENDBRANCH  15  16
TORSDOF 2
