REMARK  Name = 
REMARK  9 active torsions:
REMARK  status: ('A' for Active; 'I' for Inactive)
REMARK    1  A    between atoms: N_7  and  CA_15
REMARK    2  A    between atoms: NE_8  and  CD_14
REMARK    3  A    between atoms: CB_11  and  CG_12
REMARK    4  A    between atoms: CB_11  and  CA_13
REMARK    5  A    between atoms: CG_12  and  CD_14
REMARK    6  A    between atoms: CA_13  and  C_18
REMARK    7  A    between atoms: CA_15  and  CB_16
REMARK    8  A    between atoms: CA_15  and  C_19
REMARK    9  A    between atoms: CB_16  and  CG_20
REMARK                            x       y       z     vdW  Elec       q    Type
REMARK                         _______ _______ _______ _____ _____    ______ ____
ROOT
ATOM      1  N   ASP A   1      -0.493   2.190   0.000  0.00  0.00    +0.000 NA
ATOM      2  NE  ASP A   1       0.221   0.953   0.000  0.00  0.00    +0.000 NA
ATOM      3  NH2 ASP A   1       0.936   2.190   0.000  0.00  0.00    +0.000 NA
ATOM      4  CZ  ASP A   1       0.221   1.778   0.000  0.00  0.00    +0.000 C 
ENDROOT
BRANCH   2   5
ATOM      5  CD  ASP A   1       0.936   0.540   0.000  0.00  0.00    +0.000 C 
BRANCH   5   6
ATOM      6  CG  ASP A   1       0.936  -0.285   0.000  0.00  0.00    +0.000 C 
BRANCH   6   7
ATOM      7  CB  ASP A   1       1.650  -0.697   0.000  0.00  0.00    +0.000 C 
BRANCH   7   9
ATOM      8  N   ASP A   1       0.936  -1.935   0.000  0.00  0.00    +0.000 NA
ATOM      9  CA  ASP A   1       1.650  -1.522   0.000  0.00  0.00    +0.000 C 
BRANCH   9  12
ATOM     10  O   ASP A   1       2.365  -2.760   0.000  0.00  0.00    +0.000 OA
ATOM     11  OXT ASP A   1       3.079  -1.522   0.000  0.00  0.00    +0.000 OA
ATOM     12  C   ASP A   1       2.365  -1.935   0.000  0.00  0.00    +0.000 C 
ENDBRANCH   9  12
ENDBRANCH   7   9
ENDBRANCH   6   7
ENDBRANCH   5   6
ENDBRANCH   2   5
BRANCH   1  13
ATOM     13  CA  ASP A   1      -1.207   1.778   0.000  0.00  0.00    +0.000 C 
BRANCH  13  16
ATOM     14  O   ASP A   1      -2.636   1.778   0.000  0.00  0.00    +0.000 OA
ATOM     15  OXT ASP A   1      -1.922   3.015   0.000  0.00  0.00    +0.000 OA
ATOM     16  C   ASP A   1      -1.922   2.190   0.000  0.00  0.00    +0.000 C 
ENDBRANCH  13  16
BRANCH  13  17
ATOM     17  CB  ASP A   1      -1.207   0.953   0.000  0.00  0.00    +0.000 C 
BRANCH  17  20
ATOM     18  OD1 ASP A   1      -1.922  -0.285   0.000  0.00  0.00    +0.000 OA
ATOM     19  OD2 ASP A   1      -2.636   0.953   0.000  0.00  0.00    +0.000 OA
ATOM     20  CG  ASP A   1      -1.922   0.540   0.000  0.00  0.00    +0.000 C 
ENDBRANCH  17  20
ENDBRANCH  13  17
ENDBRANCH   1  13
TORSDOF 9
