REMARK  Name = 
REMARK  2 active torsions:
REMARK  status: ('A' for Active; 'I' for Inactive)
REMARK    1  A    between atoms: C_1  and  C_2
REMARK    2  A    between atoms: N_11  and  C_14
REMARK                            x       y       z     vdW  Elec       q    Type
REMARK                         _______ _______ _______ _____ _____    ______ ____
ROOT
ATOM      1  C   UNL     1      -0.921  -0.356   0.000  0.00  0.00    +0.000 A 
ATOM      2  N   UNL     1      -0.437  -1.027   0.000  0.00  0.00    +0.000 NA
ATOM      3  N   UNL     1      -0.437   0.310   0.000  0.00  0.00    +0.000 NA
ATOM      4  C   UNL     1       0.346   0.056   0.000  0.00  0.00    +0.000 A 
ATOM      5  C   UNL     1       0.346  -0.769   0.000  0.00  0.00    +0.000 A 
ATOM      6  C   UNL     1       1.062   0.469   0.000  0.00  0.00    +0.000 A 
ATOM      7  C   UNL     1       1.775   0.056   0.000  0.00  0.00    +0.000 A 
ATOM      8  C   UNL     1       1.062  -1.181   0.000  0.00  0.00    +0.000 A 
ATOM      9  C   UNL     1       1.775  -0.769   0.000  0.00  0.00    +0.000 A 
ENDROOT
BRANCH   1  10
ATOM     10  C   UNL     1      -1.746  -0.356   0.000  0.00  0.00    +0.000 A 
ATOM     11  C   UNL     1      -2.158   0.356   0.000  0.00  0.00    +0.000 A 
ATOM     12  C   UNL     1      -2.158  -1.073   0.000  0.00  0.00    +0.000 A 
ATOM     13  C   UNL     1      -2.983   0.356   0.000  0.00  0.00    +0.000 A 
ATOM     14  N   UNL     1      -2.983  -1.073   0.000  0.00  0.00    +0.000 NA
ATOM     15  C   UNL     1      -3.396  -0.356   0.000  0.00  0.00    +0.000 A 
ATOM     16  C   UNL     1      -3.396   1.073   0.000  0.00  0.00    +0.000 A 
ATOM     17  O   UNL     1      -1.746  -1.785   0.000  0.00  0.00    +0.000 OA
ATOM     18  N   UNL     1      -1.746   1.073   0.000  0.00  0.00    +0.000 NA
ATOM     19  F   UNL     1      -2.983   1.785   0.000  0.00  0.00    +0.000 F 
ATOM     20  C   UNL     1      -4.221  -0.356   0.000  0.00  0.00    +0.000 A 
ATOM     21  C   UNL     1      -4.633   0.356   0.000  0.00  0.00    +0.000 A 
ATOM     22  C   UNL     1      -4.221   1.073   0.000  0.00  0.00    +0.000 A 
ENDBRANCH   1  10
BRANCH   7  23
ATOM     23  N   UNL     1       2.492   0.469   0.000  0.00  0.00    +0.000 N 
ATOM     24  N   UNL     1       3.921   1.294   0.000  0.00  0.00    +0.000 NA
ATOM     25  C   UNL     1       3.204   0.056   0.000  0.00  0.00    +0.000 C 
ATOM     26  C   UNL     1       2.492   1.294   0.000  0.00  0.00    +0.000 C 
ATOM     27  C   UNL     1       3.204   1.706   0.000  0.00  0.00    +0.000 C 
ATOM     28  C   UNL     1       3.921   0.469   0.000  0.00  0.00    +0.000 C 
ATOM     29  C   UNL     1       4.633   1.706   0.000  0.00  0.00    +0.000 C 
ENDBRANCH   7  23
TORSDOF 2
