REMARK  Name = 
REMARK  3 active torsions:
REMARK  status: ('A' for Active; 'I' for Inactive)
REMARK    1  A    between atoms: C_1  and  C_13
REMARK    2  A    between atoms: C_4  and  C_7
REMARK    3  A    between atoms: C_6  and  C_10
REMARK                            x       y       z     vdW  Elec       q    Type
REMARK                         _______ _______ _______ _____ _____    ______ ____
ROOT
ATOM      1  C   UNL     1      -0.715  -0.619   0.000  0.00  0.00    +0.000 A 
ATOM      2  C   UNL     1      -0.715   0.206   0.000  0.00  0.00    +0.000 A 
ATOM      3  C   UNL     1       0.000  -1.031   0.000  0.00  0.00    +0.000 A 
ATOM      4  C   UNL     1       0.715  -0.619   0.000  0.00  0.00    +0.000 A 
ATOM      5  C   UNL     1       0.715   0.206   0.000  0.00  0.00    +0.000 A 
ATOM      6  C   UNL     1       0.000   0.619   0.000  0.00  0.00    +0.000 A 
ENDROOT
BRANCH   4   7
ATOM      7  C   UNL     1       1.429  -1.031   0.000  0.00  0.00    +0.000 C 
ATOM      8  O   UNL     1       2.144  -0.619   0.000  0.00  0.00    +0.000 OA
ATOM      9  O   UNL     1       1.429  -1.856   0.000  0.00  0.00    +0.000 OA
ENDBRANCH   4   7
BRANCH   6  10
ATOM     10  C   UNL     1       0.000   1.444   0.000  0.00  0.00    +0.000 C 
ATOM     11  O   UNL     1       0.715   1.856   0.000  0.00  0.00    +0.000 OA
ATOM     12  O   UNL     1      -0.715   1.856   0.000  0.00  0.00    +0.000 OA
ENDBRANCH   6  10
BRANCH   1  13
ATOM     13  C   UNL     1      -1.429  -1.031   0.000  0.00  0.00    +0.000 C 
ATOM     14  O   UNL     1      -2.144  -0.619   0.000  0.00  0.00    +0.000 OA
ATOM     15  O   UNL     1      -1.429  -1.856   0.000  0.00  0.00    +0.000 OA
ENDBRANCH   1  13
TORSDOF 3
