REMARK  Name = 
REMARK  3 active torsions:
REMARK  status: ('A' for Active; 'I' for Inactive)
REMARK    1  A    between atoms: C_5  and  C_7
REMARK    2  A    between atoms: C_7  and  C_9
REMARK    3  A    between atoms: C_17  and  C_18
REMARK                            x       y       z     vdW  Elec       q    Type
REMARK                         _______ _______ _______ _____ _____    ______ ____
ROOT
ATOM      1  C   UNL     1      -0.143  -0.030   0.000  0.00  0.00    +0.000 A 
ATOM      2  C   UNL     1      -0.628  -0.698   0.000  0.00  0.00    +0.000 A 
ATOM      3  N   UNL     1      -0.143  -1.365   0.000  0.00  0.00    +0.000 NA
ATOM      4  N   UNL     1       0.641  -1.110   0.000  0.00  0.00    +0.000 N 
ATOM      5  C   UNL     1       0.641  -0.285   0.000  0.00  0.00    +0.000 A 
ATOM      6  N   UNL     1       1.356   0.127   0.000  0.00  0.00    +0.000 NA
ATOM      7  C   UNL     1       2.070  -0.285   0.000  0.00  0.00    +0.000 A 
ATOM      8  C   UNL     1       2.070  -1.110   0.000  0.00  0.00    +0.000 A 
ATOM      9  C   UNL     1       1.356  -1.523   0.000  0.00  0.00    +0.000 A 
ENDROOT
BRANCH   9  10
ATOM     10  C   UNL     1       1.356  -2.348   0.000  0.00  0.00    +0.000 A 
ATOM     11  C   UNL     1       2.070  -2.760   0.000  0.00  0.00    +0.000 A 
ATOM     12  C   UNL     1       2.070  -3.585   0.000  0.00  0.00    +0.000 A 
ATOM     13  N   UNL     1       1.356  -3.998   0.000  0.00  0.00    +0.000 NA
ATOM     14  C   UNL     1       0.641  -3.585   0.000  0.00  0.00    +0.000 A 
ATOM     15  C   UNL     1       0.641  -2.760   0.000  0.00  0.00    +0.000 A 
ENDBRANCH   9  10
BRANCH   1  16
ATOM     16  C   UNL     1      -0.398   0.754   0.000  0.00  0.00    +0.000 C 
ATOM     17  O   UNL     1       0.154   1.367   0.000  0.00  0.00    +0.000 OA
BRANCH  16  22
ATOM     18  C   UNL     1      -2.564   0.484   0.000  0.00  0.00    +0.000 A 
ATOM     19  C   UNL     1      -2.819   1.269   0.000  0.00  0.00    +0.000 A 
ATOM     20  C   UNL     1      -2.267   1.882   0.000  0.00  0.00    +0.000 A 
ATOM     21  N   UNL     1      -1.460   1.710   0.000  0.00  0.00    +0.000 NA
ATOM     22  C   UNL     1      -1.205   0.926   0.000  0.00  0.00    +0.000 A 
ATOM     23  C   UNL     1      -1.758   0.313   0.000  0.00  0.00    +0.000 A 
ENDBRANCH  16  22
ENDBRANCH   1  16
TORSDOF 3
