REMARK  Name = 
REMARK  2 active torsions:
REMARK  status: ('A' for Active; 'I' for Inactive)
REMARK    1  A    between atoms: C_9  and  C_13
REMARK    2  A    between atoms: CA_11  and  C_14
REMARK                            x       y       z     vdW  Elec       q    Type
REMARK                         _______ _______ _______ _____ _____    ______ ____
ROOT
ATOM      1  N   UNL     1       0.237  -2.044   0.000  0.00  0.00    +0.000 NA
ATOM      2  N   UNL     1      -1.258  -0.555   0.000  0.00  0.00    +0.000 NA
ATOM      3  N   UNL     1      -1.972  -1.793   0.000  0.00  0.00    +0.000 NA
ATOM      4  N   UNL     1      -1.258  -3.030   0.000  0.00  0.00    +0.000 NA
ATOM      5  C   UNL     1       0.237  -0.717   0.000  0.00  0.00    +0.000 A 
ATOM      6  C   UNL     1      -0.543  -0.968   0.000  0.00  0.00    +0.000 A 
ATOM      7  C   UNL     1       0.719  -1.381   0.000  0.00  0.00    +0.000 A 
ATOM      8  C   UNL     1      -0.543  -1.793   0.000  0.00  0.00    +0.000 A 
ATOM      9  C   UNL     1      -1.258  -2.205   0.000  0.00  0.00    +0.000 A 
ATOM     10  C   UNL     1      -1.972  -0.968   0.000  0.00  0.00    +0.000 A 
ENDROOT
BRANCH   5  14
ATOM     11  O   UNL     1       1.945  -0.165   0.000  0.00  0.00    +0.000 OA
ATOM     12  O   UNL     1       1.948   1.630   0.000  0.00  0.00    +0.000 OA
ATOM     13  N   UNL     1       0.010   0.736   0.000  0.00  0.00    +0.000 NA
ATOM     14  C   UNL     1       0.493   0.067   0.000  0.00  0.00    +0.000 C 
ATOM     15  C   UNL     1       1.279   0.321   0.000  0.00  0.00    +0.000 C 
ATOM     16  CA  UNL     1       0.496   1.402   0.000  0.00  0.00    +0.000 C 
ATOM     17  C   UNL     1       1.280   1.146   0.000  0.00  0.00    +0.000 C 
BRANCH  16  19
ATOM     18  O   UNL     1       0.795   2.800   0.000  0.00  0.00    +0.000 OA
ATOM     19  C   UNL     1       0.242   2.187   0.000  0.00  0.00    +0.000 C 
ENDBRANCH  16  19
ENDBRANCH   5  14
TORSDOF 2
