REMARK  Name = 
REMARK  4 active torsions:
REMARK  status: ('A' for Active; 'I' for Inactive)
REMARK    1  A    between atoms: C_3  and  C_18
REMARK    2  A    between atoms: C_4  and  C_16
REMARK    3  A    between atoms: C_10  and  N_13
REMARK    4  A    between atoms: C_19  and  C_20
REMARK                            x       y       z     vdW  Elec       q    Type
REMARK                         _______ _______ _______ _____ _____    ______ ____
ROOT
ATOM      1  C   UNL     1      -0.398   0.754   0.000  0.00  0.00    +0.000 C 
ATOM      2  N   UNL     1      -0.143  -0.030   0.000  0.00  0.00    +0.000 N 
ATOM      3  C   UNL     1      -0.628  -0.698   0.000  0.00  0.00    +0.000 A 
ATOM      4  C   UNL     1      -0.143  -1.365   0.000  0.00  0.00    +0.000 A 
ATOM      5  C   UNL     1       0.641  -1.110   0.000  0.00  0.00    +0.000 A 
ATOM      6  C   UNL     1       0.641  -0.285   0.000  0.00  0.00    +0.000 A 
ATOM      7  C   UNL     1       1.356   0.127   0.000  0.00  0.00    +0.000 C 
ATOM      8  O   UNL     1       1.356   0.952   0.000  0.00  0.00    +0.000 OA
ATOM      9  C   UNL     1       2.070  -0.285   0.000  0.00  0.00    +0.000 C 
ATOM     10  C   UNL     1       2.070  -1.110   0.000  0.00  0.00    +0.000 C 
ATOM     11  C   UNL     1       1.356  -1.523   0.000  0.00  0.00    +0.000 C 
ATOM     12  O   UNL     1       1.356  -2.348   0.000  0.00  0.00    +0.000 OA
ENDROOT
BRANCH  10  13
ATOM     13  N   UNL     1       2.784  -1.523   0.000  0.00  0.00    +0.000 N 
ATOM     14  C   UNL     1       3.610  -1.523   0.000  0.00  0.00    +0.000 C 
ATOM     15  C   UNL     1       3.197  -2.237   0.000  0.00  0.00    +0.000 C 
ENDBRANCH  10  13
BRANCH   4  16
ATOM     16  C   UNL     1      -0.398  -2.150   0.000  0.00  0.00    +0.000 C 
ATOM     17  O   UNL     1       0.154  -2.763   0.000  0.00  0.00    +0.000 OA
ENDBRANCH   4  16
BRANCH   3  18
ATOM     18  C   UNL     1      -1.453  -0.698   0.000  0.00  0.00    +0.000 C 
ATOM     19  C   UNL     1      -1.866   0.017   0.000  0.00  0.00    +0.000 C 
BRANCH  19  20
ATOM     20  C   UNL     1      -2.691   0.017   0.000  0.00  0.00    +0.000 C 
ATOM     21  O   UNL     1      -3.103  -0.698   0.000  0.00  0.00    +0.000 OA
ENDBRANCH  19  20
ENDBRANCH   3  18
TORSDOF 4
