REMARK  Name = 
REMARK  7 active torsions:
REMARK  status: ('A' for Active; 'I' for Inactive)
REMARK    1  A    between atoms: C_2  and  N_5
REMARK    2  A    between atoms: C_6  and  C_8
REMARK    3  A    between atoms: C_10  and  O_11
REMARK    4  A    between atoms: O_11  and  C_12
REMARK    5  A    between atoms: C_15  and  N_16
REMARK    6  A    between atoms: N_19  and  C_20
REMARK    7  A    between atoms: C_25  and  C_27
REMARK                            x       y       z     vdW  Elec       q    Type
REMARK                         _______ _______ _______ _____ _____    ______ ____
ROOT
ATOM      1  C   UNL     1      -2.143  -6.188   0.000  0.00  0.00    +0.000 A 
ATOM      2  C   UNL     1      -1.429  -6.600   0.000  0.00  0.00    +0.000 A 
ATOM      3  C   UNL     1      -1.429  -7.425   0.000  0.00  0.00    +0.000 A 
ATOM      4  C   UNL     1      -2.143  -7.838   0.000  0.00  0.00    +0.000 A 
ATOM      5  C   UNL     1      -2.858  -7.425   0.000  0.00  0.00    +0.000 A 
ATOM      6  C   UNL     1      -2.858  -6.600   0.000  0.00  0.00    +0.000 A 
ENDROOT
BRANCH   4   7
ATOM      7  N   UNL     1      -2.143  -8.662   0.000  0.00  0.00    +0.000 NA
ATOM      8  C   UNL     1      -2.858  -9.075   0.000  0.00  0.00    +0.000 C 
ATOM      9  O   UNL     1      -3.572  -8.662   0.000  0.00  0.00    +0.000 OA
ATOM     10  N   UNL     1      -2.858  -9.900   0.000  0.00  0.00    +0.000 NA
BRANCH  10  11
ATOM     11  C   UNL     1      -2.143 -10.312   0.000  0.00  0.00    +0.000 A 
ATOM     12  C   UNL     1      -1.429  -9.900   0.000  0.00  0.00    +0.000 A 
ATOM     13  C   UNL     1      -0.715 -10.312   0.000  0.00  0.00    +0.000 A 
ATOM     14  C   UNL     1      -0.715 -11.137   0.000  0.00  0.00    +0.000 A 
ATOM     15 CL   UNL     1       0.000 -11.550   0.000  0.00  0.00    +0.000 Cl
ATOM     16  C   UNL     1      -1.429 -11.550   0.000  0.00  0.00    +0.000 A 
ATOM     17  C   UNL     1      -2.143 -11.137   0.000  0.00  0.00    +0.000 A 
BRANCH  16  18
ATOM     18  C   UNL     1      -1.429 -12.375   0.000  0.00  0.00    +0.000 C 
ATOM     19  F   UNL     1      -1.429 -13.200   0.000  0.00  0.00    +0.000 F 
ATOM     20  F   UNL     1      -2.254 -12.375   0.000  0.00  0.00    +0.000 F 
ATOM     21  F   UNL     1      -0.604 -12.375   0.000  0.00  0.00    +0.000 F 
ENDBRANCH  16  18
ENDBRANCH  10  11
ENDBRANCH   4   7
BRANCH   1  22
ATOM     22  O   UNL     1      -2.143  -5.362   0.000  0.00  0.00    +0.000 OA
BRANCH  22  25
ATOM     23  C   UNL     1      -3.572  -3.712   0.000  0.00  0.00    +0.000 A 
ATOM     24  C   UNL     1      -2.858  -4.125   0.000  0.00  0.00    +0.000 A 
ATOM     25  C   UNL     1      -2.858  -4.950   0.000  0.00  0.00    +0.000 A 
ATOM     26  C   UNL     1      -3.572  -5.362   0.000  0.00  0.00    +0.000 A 
ATOM     27  C   UNL     1      -4.287  -4.950   0.000  0.00  0.00    +0.000 A 
ATOM     28  N   UNL     1      -4.287  -4.125   0.000  0.00  0.00    +0.000 NA
BRANCH  23  30
ATOM     29  N   UNL     1      -4.287  -2.475   0.000  0.00  0.00    +0.000 NA
ATOM     30  C   UNL     1      -3.572  -2.888   0.000  0.00  0.00    +0.000 C 
ATOM     31  O   UNL     1      -2.858  -2.475   0.000  0.00  0.00    +0.000 OA
BRANCH  29  33
ATOM     32  H   UNL     1      -3.462  -1.650   0.000  0.00  0.00    +0.000 HD
ATOM     33  C   UNL     1      -4.287  -1.650   0.000  0.00  0.00    +0.000 C 
ATOM     34  H   UNL     1      -4.287  -0.825   0.000  0.00  0.00    +0.000 HD
ATOM     35  H   UNL     1      -5.112  -1.650   0.000  0.00  0.00    +0.000 HD
ENDBRANCH  29  33
ENDBRANCH  23  30
ENDBRANCH  22  25
ENDBRANCH   1  22
TORSDOF 7
