REMARK  Name = 
REMARK  4 active torsions:
REMARK  status: ('A' for Active; 'I' for Inactive)
REMARK    1  A    between atoms: O_2  and  C_3
REMARK    2  A    between atoms: C_3  and  C_4
REMARK    3  A    between atoms: N_13  and  C_14
REMARK    4  A    between atoms: C_14  and  C_15
REMARK                            x       y       z     vdW  Elec       q    Type
REMARK                         _______ _______ _______ _____ _____    ______ ____
ROOT
ATOM      1  C   UNL     1       0.715  -5.362   0.000  0.00  0.00    +0.000 A 
ATOM      2  C   UNL     1       0.715  -6.188   0.000  0.00  0.00    +0.000 A 
ATOM      3  C   UNL     1       0.000  -6.600   0.000  0.00  0.00    +0.000 A 
ATOM      4  C   UNL     1      -0.715  -6.188   0.000  0.00  0.00    +0.000 A 
ATOM      5  N   UNL     1      -0.715  -5.362   0.000  0.00  0.00    +0.000 NA
ATOM      6  C   UNL     1       0.000  -4.950   0.000  0.00  0.00    +0.000 A 
ATOM      7  N   UNL     1       0.000  -4.125   0.000  0.00  0.00    +0.000 N 
ATOM      8  C   UNL     1      -0.715  -3.712   0.000  0.00  0.00    +0.000 C 
ATOM      9  C   UNL     1      -0.715  -2.888   0.000  0.00  0.00    +0.000 C 
ATOM     10  N   UNL     1       0.000  -2.475   0.000  0.00  0.00    +0.000 NA
ATOM     11  C   UNL     1       0.715  -2.888   0.000  0.00  0.00    +0.000 C 
ATOM     12  C   UNL     1       0.715  -3.712   0.000  0.00  0.00    +0.000 C 
ENDROOT
BRANCH   1  13
ATOM     13  C   UNL     1       1.429  -4.950   0.000  0.00  0.00    +0.000 C 
BRANCH  13  15
ATOM     14  C   UNL     1       2.858  -4.950   0.000  0.00  0.00    +0.000 C 
ATOM     15  O   UNL     1       2.143  -5.362   0.000  0.00  0.00    +0.000 OA
ENDBRANCH  13  15
ENDBRANCH   1  13
BRANCH  10  16
ATOM     16  C   UNL     1       0.000  -1.650   0.000  0.00  0.00    +0.000 C 
BRANCH  16  17
ATOM     17  C   UNL     1       0.715  -1.238   0.000  0.00  0.00    +0.000 C 
ATOM     18  C   UNL     1       0.715  -0.412   0.000  0.00  0.00    +0.000 C 
ATOM     19  O   UNL     1       1.429   0.000   0.000  0.00  0.00    +0.000 OA
ATOM     20  C   UNL     1       2.143  -0.412   0.000  0.00  0.00    +0.000 A 
ATOM     21  C   UNL     1       2.858   0.000   0.000  0.00  0.00    +0.000 A 
ATOM     22  C   UNL     1       3.572  -0.412   0.000  0.00  0.00    +0.000 A 
ATOM     23  C   UNL     1       3.572  -1.238   0.000  0.00  0.00    +0.000 A 
ATOM     24  C   UNL     1       2.858  -1.650   0.000  0.00  0.00    +0.000 A 
ATOM     25  C   UNL     1       2.143  -1.238   0.000  0.00  0.00    +0.000 A 
ATOM     26  O   UNL     1       1.429  -1.650   0.000  0.00  0.00    +0.000 OA
ENDBRANCH  16  17
ENDBRANCH  10  16
TORSDOF 4
