REMARK  Name = 
REMARK  10 active torsions:
REMARK  status: ('A' for Active; 'I' for Inactive)
REMARK    1  A    between atoms: N_2  and  C_3
REMARK    2  A    between atoms: C_3  and  C_4
REMARK    3  A    between atoms: C_4  and  C_5
REMARK    4  A    between atoms: C_7  and  C_15
REMARK    5  A    between atoms: C_9  and  C_11
REMARK    6  A    between atoms: C_19  and  C_21
REMARK    7  A    between atoms: C_21  and  C_22
REMARK    8  A    between atoms: C_21  and  N_28
REMARK    9  A    between atoms: N_31  and  C_34
REMARK   10  A    between atoms: C_34  and  C_35
REMARK                            x       y       z     vdW  Elec       q    Type
REMARK                         _______ _______ _______ _____ _____    ______ ____
ROOT
ATOM      1  C   UNL     1       3.572  -2.888   0.000  0.00  0.00    +0.000 C 
ATOM      2  N   UNL     1       3.572  -3.712   0.000  0.00  0.00    +0.000 N 
ATOM      3  C   UNL     1       4.287  -4.125   0.000  0.00  0.00    +0.000 C 
ATOM      4  O   UNL     1       4.287  -4.950   0.000  0.00  0.00    +0.000 OA
ENDROOT
BRANCH   3   5
ATOM      5  C   UNL     1       5.001  -3.712   0.000  0.00  0.00    +0.000 C 
BRANCH   5   6
ATOM      6  N   UNL     1       5.716  -4.125   0.000  0.00  0.00    +0.000 NA
ATOM      7  C   UNL     1       6.430  -3.712   0.000  0.00  0.00    +0.000 C 
ATOM      8  C   UNL     1       7.145  -4.125   0.000  0.00  0.00    +0.000 C 
ATOM      9  N   UNL     1       7.145  -4.950   0.000  0.00  0.00    +0.000 NA
ATOM     10  C   UNL     1       6.430  -5.362   0.000  0.00  0.00    +0.000 C 
ATOM     11  C   UNL     1       5.716  -4.950   0.000  0.00  0.00    +0.000 C 
BRANCH   9  12
ATOM     12  C   UNL     1       7.859  -5.362   0.000  0.00  0.00    +0.000 C 
BRANCH  12  13
ATOM     13  C   UNL     1       7.859  -6.188   0.000  0.00  0.00    +0.000 C 
ATOM     14  C   UNL     1       8.272  -6.902   0.000  0.00  0.00    +0.000 C 
ATOM     15  C   UNL     1       7.447  -6.902   0.000  0.00  0.00    +0.000 C 
ENDBRANCH  12  13
ENDBRANCH   9  12
ENDBRANCH   5   6
BRANCH   5  16
ATOM     16  C   UNL     1       5.001  -2.888   0.000  0.00  0.00    +0.000 A 
ATOM     17  C   UNL     1       4.287  -2.475   0.000  0.00  0.00    +0.000 A 
ATOM     18  C   UNL     1       4.287  -1.650   0.000  0.00  0.00    +0.000 A 
ATOM     19  C   UNL     1       5.001  -1.238   0.000  0.00  0.00    +0.000 A 
ATOM     20  C   UNL     1       5.716  -1.650   0.000  0.00  0.00    +0.000 A 
ATOM     21  C   UNL     1       5.716  -2.475   0.000  0.00  0.00    +0.000 A 
ENDBRANCH   5  16
ENDBRANCH   3   5
BRANCH   2  22
ATOM     22  C   UNL     1       2.858  -4.125   0.000  0.00  0.00    +0.000 C 
BRANCH  22  23
ATOM     23  C   UNL     1       2.143  -3.712   0.000  0.00  0.00    +0.000 C 
BRANCH  23  24
ATOM     24  C   UNL     1       1.429  -4.125   0.000  0.00  0.00    +0.000 A 
ATOM     25  C   UNL     1       1.429  -4.950   0.000  0.00  0.00    +0.000 A 
ATOM     26  C   UNL     1       0.715  -5.362   0.000  0.00  0.00    +0.000 A 
ATOM     27  C   UNL     1       0.000  -4.950   0.000  0.00  0.00    +0.000 A 
ATOM     28  C   UNL     1       0.000  -4.125   0.000  0.00  0.00    +0.000 A 
ATOM     29  C   UNL     1       0.715  -3.712   0.000  0.00  0.00    +0.000 A 
BRANCH  26  30
ATOM     30  C   UNL     1       0.715  -6.188   0.000  0.00  0.00    +0.000 C 
ATOM     31  F   UNL     1       0.715  -7.013   0.000  0.00  0.00    +0.000 F 
ATOM     32  F   UNL     1      -0.111  -6.188   0.000  0.00  0.00    +0.000 F 
ATOM     33  F   UNL     1       1.540  -6.188   0.000  0.00  0.00    +0.000 F 
ENDBRANCH  26  30
BRANCH  28  34
ATOM     34  C   UNL     1      -0.715  -3.712   0.000  0.00  0.00    +0.000 C 
ATOM     35  F   UNL     1      -1.429  -3.300   0.000  0.00  0.00    +0.000 F 
ATOM     36  F   UNL     1      -1.127  -4.427   0.000  0.00  0.00    +0.000 F 
ATOM     37  F   UNL     1      -0.302  -2.998   0.000  0.00  0.00    +0.000 F 
ENDBRANCH  28  34
ENDBRANCH  23  24
ENDBRANCH  22  23
ENDBRANCH   2  22
TORSDOF 10
