REMARK  Name = 
REMARK  1 active torsions:
REMARK  status: ('A' for Active; 'I' for Inactive)
REMARK    1  A    between atoms: C_1  and  C_4
REMARK                            x       y       z     vdW  Elec       q    Type
REMARK                         _______ _______ _______ _____ _____    ______ ____
ROOT
ATOM      1  C   UNL     1      -0.302  -0.206   0.000  0.00  0.00    +0.000 C 
ATOM      2  N   UNL     1      -0.302  -1.031   0.000  0.00  0.00    +0.000 NA
ATOM      3  C   UNL     1      -1.127  -0.206   0.000  0.00  0.00    +0.000 C 
ATOM      4  C   UNL     1      -0.715   0.508   0.000  0.00  0.00    +0.000 C 
ENDROOT
BRANCH   1   5
ATOM      5  C   UNL     1       0.412   0.206   0.000  0.00  0.00    +0.000 C 
ATOM      6  O   UNL     1       1.127  -0.206   0.000  0.00  0.00    +0.000 OA
ATOM      7  O   UNL     1       0.412   1.031   0.000  0.00  0.00    +0.000 OA
ENDBRANCH   1   5
TORSDOF 1
