REMARK  Name = 
REMARK  3 active torsions:
REMARK  status: ('A' for Active; 'I' for Inactive)
REMARK    1  A    between atoms: C_1  and  C_4
REMARK    2  A    between atoms: N_8  and  C_13
REMARK    3  A    between atoms: N_8  and  C_17
REMARK                            x       y       z     vdW  Elec       q    Type
REMARK                         _______ _______ _______ _____ _____    ______ ____
ROOT
ATOM      1  C   UNL     1      -0.356  -0.206   0.000  0.00  0.00    +0.000 A 
ATOM      2  C   UNL     1      -0.356   0.619   0.000  0.00  0.00    +0.000 A 
ATOM      3  C   UNL     1      -1.073  -0.619   0.000  0.00  0.00    +0.000 A 
ATOM      4  N   UNL     1      -1.073   1.031   0.000  0.00  0.00    +0.000 N 
ATOM      5  C   UNL     1      -1.786  -0.206   0.000  0.00  0.00    +0.000 A 
ATOM      6  C   UNL     1      -1.786   0.619   0.000  0.00  0.00    +0.000 A 
ATOM      7  O   UNL     1      -1.073  -1.444   0.000  0.00  0.00    +0.000 OA
ATOM      8  O   UNL     1       0.356   1.031   0.000  0.00  0.00    +0.000 OA
ATOM      9  C   UNL     1      -2.502  -0.619   0.000  0.00  0.00    +0.000 A 
ATOM     10  C   UNL     1      -1.073   1.856   0.000  0.00  0.00    +0.000 C 
ATOM     11  C   UNL     1      -2.502   1.031   0.000  0.00  0.00    +0.000 A 
ATOM     12 CL   UNL     1      -2.502  -1.444   0.000  0.00  0.00    +0.000 Cl
ATOM     13  C   UNL     1      -3.215   0.619   0.000  0.00  0.00    +0.000 A 
ATOM     14  C   UNL     1      -3.215  -0.206   0.000  0.00  0.00    +0.000 A 
ENDROOT
BRANCH   1  15
ATOM     15  C   UNL     1       0.356  -0.619   0.000  0.00  0.00    +0.000 C 
ATOM     16  N   UNL     1       1.073  -0.206   0.000  0.00  0.00    +0.000 N 
ATOM     17  O   UNL     1       0.356  -1.444   0.000  0.00  0.00    +0.000 OA
BRANCH  16  18
ATOM     18  C   UNL     1       1.786  -0.619   0.000  0.00  0.00    +0.000 A 
ATOM     19  C   UNL     1       1.786  -1.444   0.000  0.00  0.00    +0.000 A 
ATOM     20  C   UNL     1       2.502  -0.206   0.000  0.00  0.00    +0.000 A 
ATOM     21  C   UNL     1       2.502  -1.856   0.000  0.00  0.00    +0.000 A 
ATOM     22  C   UNL     1       3.215  -0.619   0.000  0.00  0.00    +0.000 A 
ATOM     23  C   UNL     1       3.215  -1.444   0.000  0.00  0.00    +0.000 A 
ENDBRANCH  16  18
BRANCH  16  24
ATOM     24  C   UNL     1       1.073   0.619   0.000  0.00  0.00    +0.000 C 
ATOM     25  C   UNL     1       1.786   1.031   0.000  0.00  0.00    +0.000 C 
ENDBRANCH  16  24
ENDBRANCH   1  15
TORSDOF 3
