REMARK  Name = 
REMARK  10 active torsions:
REMARK  status: ('A' for Active; 'I' for Inactive)
REMARK    1  A    between atoms: C_1  and  C_7
REMARK    2  A    between atoms: C_8  and  C_13
REMARK    3  A    between atoms: C_13  and  N_19
REMARK    4  A    between atoms: C_21  and  N_22
REMARK    5  A    between atoms: C_23  and  C_25
REMARK    6  A    between atoms: C_25  and  N_26
REMARK    7  A    between atoms: C_25  and  C_30
REMARK    8  A    between atoms: C_30  and  C_31
REMARK    9  A    between atoms: C_32  and  O_37
REMARK   10  A    between atoms: O_37  and  P_38
REMARK                            x       y       z     vdW  Elec       q    Type
REMARK                         _______ _______ _______ _____ _____    ______ ____
ROOT
ATOM      1  C   UNL     1      -2.178   1.352   0.000  0.00  0.00    +0.000 C 
ATOM      2  C   UNL     1      -2.427   0.563   0.000  0.00  0.00    +0.000 C 
ATOM      3  C   UNL     1      -1.140  -0.183   0.000  0.00  0.00    +0.000 C 
ATOM      4  C   UNL     1      -0.702   1.221   0.000  0.00  0.00    +0.000 C 
ATOM      5  C   UNL     1      -1.403   1.645   0.000  0.00  0.00    +0.000 C 
ATOM      6  N   UNL     1      -1.959  -0.110   0.000  0.00  0.00    +0.000 N 
ATOM      7  O   UNL     1      -0.848  -0.958   0.000  0.00  0.00    +0.000 OA
ATOM      8  C   UNL     1      -0.585   0.417   0.000  0.00  0.00    +0.000 C 
ENDROOT
BRANCH   8   9
ATOM      9  N   UNL     1       0.234   0.417   0.000  0.00  0.00    +0.000 NA
ATOM     10  C   UNL     1       0.950   0.826   0.000  0.00  0.00    +0.000 C 
ATOM     11  O   UNL     1       0.950   1.645   0.000  0.00  0.00    +0.000 OA
BRANCH  10  12
ATOM     12  C   UNL     1       1.667   0.417   0.000  0.00  0.00    +0.000 C 
BRANCH  12  13
ATOM     13  N   UNL     1       1.667  -0.417   0.000  0.00  0.00    +0.000 NA
ATOM     14  C   UNL     1       2.383  -0.826   0.000  0.00  0.00    +0.000 C 
ATOM     15  C   UNL     1       3.085  -0.417   0.000  0.00  0.00    +0.000 C 
ATOM     16  O   UNL     1       2.383  -1.645   0.000  0.00  0.00    +0.000 OA
ENDBRANCH  12  13
BRANCH  12  17
ATOM     17  C   UNL     1       2.383   0.826   0.000  0.00  0.00    +0.000 C 
BRANCH  17  18
ATOM     18  C   UNL     1       3.201   0.826   0.000  0.00  0.00    +0.000 A 
ATOM     19  C   UNL     1       4.839   0.826   0.000  0.00  0.00    +0.000 A 
ATOM     20  C   UNL     1       4.429   1.528   0.000  0.00  0.00    +0.000 A 
ATOM     21  C   UNL     1       3.611   1.528   0.000  0.00  0.00    +0.000 A 
ATOM     22  C   UNL     1       3.611   0.110   0.000  0.00  0.00    +0.000 A 
ATOM     23  C   UNL     1       4.429   0.110   0.000  0.00  0.00    +0.000 A 
BRANCH  19  24
ATOM     24  O   UNL     1       5.672   0.826   0.000  0.00  0.00    +0.000 OA
BRANCH  24  25
ATOM     25  P   UNL     1       6.491   0.826   0.000  0.00  0.00    +0.000 P 
ATOM     26  O   UNL     1       6.491   1.645   0.000  0.00  0.00    +0.000 OA
ATOM     27  O   UNL     1       7.309   0.826   0.000  0.00  0.00    +0.000 OA
ATOM     28  O   UNL     1       6.491  -0.007   0.000  0.00  0.00    +0.000 OA
ENDBRANCH  24  25
ENDBRANCH  19  24
ENDBRANCH  17  18
ENDBRANCH  12  17
ENDBRANCH  10  12
ENDBRANCH   8   9
BRANCH   6  29
ATOM     29  C   UNL     1      -2.383  -0.826   0.000  0.00  0.00    +0.000 C 
BRANCH  29  31
ATOM     30  C   UNL     1      -4.839  -0.826   0.000  0.00  0.00    +0.000 A 
ATOM     31  C   UNL     1      -3.201  -0.826   0.000  0.00  0.00    +0.000 A 
ATOM     32  C   UNL     1      -3.611  -0.110   0.000  0.00  0.00    +0.000 A 
ATOM     33  C   UNL     1      -4.429  -0.110   0.000  0.00  0.00    +0.000 A 
ATOM     34  C   UNL     1      -4.429  -1.542   0.000  0.00  0.00    +0.000 A 
ATOM     35  C   UNL     1      -3.611  -1.542   0.000  0.00  0.00    +0.000 A 
BRANCH  30  36
ATOM     36  C   UNL     1      -5.672  -0.826   0.000  0.00  0.00    +0.000 A 
ATOM     37  C   UNL     1      -6.081  -0.110   0.000  0.00  0.00    +0.000 A 
ATOM     38  C   UNL     1      -6.900  -0.110   0.000  0.00  0.00    +0.000 A 
ATOM     39  C   UNL     1      -7.309  -0.826   0.000  0.00  0.00    +0.000 A 
ATOM     40  C   UNL     1      -6.900  -1.542   0.000  0.00  0.00    +0.000 A 
ATOM     41  C   UNL     1      -6.081  -1.542   0.000  0.00  0.00    +0.000 A 
ENDBRANCH  30  36
ENDBRANCH  29  31
ENDBRANCH   6  29
TORSDOF 10
