REMARK  Name = 
REMARK  2 active torsions:
REMARK  status: ('A' for Active; 'I' for Inactive)
REMARK    1  A    between atoms: C_1  and  N_9
REMARK    2  A    between atoms: N_13  and  C_14
REMARK                            x       y       z     vdW  Elec       q    Type
REMARK                         _______ _______ _______ _____ _____    ______ ____
ROOT
ATOM      1  N   UNL     1      -1.786  -0.412   0.000  0.00  0.00    +0.000 NA
ATOM      2  C   UNL     1      -1.072   0.000   0.000  0.00  0.00    +0.000 C 
ATOM      3  N   UNL     1      -1.072   0.825   0.000  0.00  0.00    +0.000 N 
ATOM      4  C   UNL     1      -0.357   1.238   0.000  0.00  0.00    +0.000 C 
ATOM      5  N   UNL     1      -0.357   2.062   0.000  0.00  0.00    +0.000 NA
ATOM      6  C   UNL     1      -1.786   1.238   0.000  0.00  0.00    +0.000 C 
ENDROOT
BRANCH   1   7
ATOM      7  C   UNL     1      -1.786  -1.238   0.000  0.00  0.00    +0.000 A 
ATOM      8  C   UNL     1      -1.072  -1.650   0.000  0.00  0.00    +0.000 A 
ATOM      9  C   UNL     1      -1.072  -2.475   0.000  0.00  0.00    +0.000 A 
ATOM     10  C   UNL     1      -1.786  -2.888   0.000  0.00  0.00    +0.000 A 
ATOM     11  C   UNL     1      -1.786  -3.712   0.000  0.00  0.00    +0.000 C 
ATOM     12  C   UNL     1      -2.501  -2.475   0.000  0.00  0.00    +0.000 A 
ATOM     13  C   UNL     1      -2.501  -1.650   0.000  0.00  0.00    +0.000 A 
ATOM     14  C   UNL     1      -0.357  -1.238   0.000  0.00  0.00    +0.000 C 
ENDBRANCH   1   7
BRANCH   5  15
ATOM     15  C   UNL     1       0.357   2.475   0.000  0.00  0.00    +0.000 A 
ATOM     16  C   UNL     1       0.357   3.300   0.000  0.00  0.00    +0.000 A 
ATOM     17  C   UNL     1       1.072   3.712   0.000  0.00  0.00    +0.000 A 
ATOM     18  C   UNL     1       1.786   3.300   0.000  0.00  0.00    +0.000 A 
ATOM     19  C   UNL     1       2.501   3.712   0.000  0.00  0.00    +0.000 C 
ATOM     20  C   UNL     1       1.786   2.475   0.000  0.00  0.00    +0.000 A 
ATOM     21  C   UNL     1       1.072   2.062   0.000  0.00  0.00    +0.000 A 
ATOM     22  C   UNL     1      -0.357   3.712   0.000  0.00  0.00    +0.000 C 
ENDBRANCH   5  15
TORSDOF 2
