REMARK  Name = 
REMARK  5 active torsions:
REMARK  status: ('A' for Active; 'I' for Inactive)
REMARK    1  A    between atoms: O_2  and  C_3
REMARK    2  A    between atoms: C_7  and  C_8
REMARK    3  A    between atoms: N_9  and  N_10
REMARK    4  A    between atoms: N_10  and  C_17
REMARK    5  A    between atoms: C_11  and  C_13
REMARK                            x       y       z     vdW  Elec       q    Type
REMARK                         _______ _______ _______ _____ _____    ______ ____
ROOT
ATOM      1  N   UNL     1      -1.241   0.660   0.000  0.00  0.00    +0.000 N 
ATOM      2  C   UNL     1      -1.650   1.373   0.000  0.00  0.00    +0.000 C 
ATOM      3  O   UNL     1      -1.241   2.092   0.000  0.00  0.00    +0.000 OA
ENDROOT
BRANCH   1   4
ATOM      4  C   UNL     1      -1.650  -0.053   0.000  0.00  0.00    +0.000 A 
ATOM      5  C   UNL     1      -2.475  -0.053   0.000  0.00  0.00    +0.000 A 
ATOM      6  C   UNL     1      -2.884  -0.765   0.000  0.00  0.00    +0.000 A 
ATOM      7  C   UNL     1      -2.475  -1.485   0.000  0.00  0.00    +0.000 A 
ATOM      8  C   UNL     1      -2.884  -2.198   0.000  0.00  0.00    +0.000 C 
ATOM      9  C   UNL     1      -1.650  -1.485   0.000  0.00  0.00    +0.000 A 
ATOM     10  C   UNL     1      -1.241  -0.765   0.000  0.00  0.00    +0.000 A 
ATOM     11  C   UNL     1      -0.416  -0.765   0.000  0.00  0.00    +0.000 C 
ENDBRANCH   1   4
BRANCH   2  12
ATOM     12  C   UNL     1      -2.475   1.373   0.000  0.00  0.00    +0.000 C 
ATOM     13  F   UNL     1      -2.475   2.198   0.000  0.00  0.00    +0.000 F 
ATOM     14  F   UNL     1      -2.475   0.548   0.000  0.00  0.00    +0.000 F 
ATOM     15  F   UNL     1      -3.300   1.373   0.000  0.00  0.00    +0.000 F 
ENDBRANCH   2  12
BRANCH   1  17
ATOM     16  C   UNL     1       0.000   1.373   0.000  0.00  0.00    +0.000 C 
ATOM     17  N   UNL     1      -0.416   0.660   0.000  0.00  0.00    +0.000 NA
BRANCH  16  22
ATOM     18  C   UNL     1       2.066   0.660   0.000  0.00  0.00    +0.000 A 
ATOM     19  C   UNL     1       2.475   1.373   0.000  0.00  0.00    +0.000 A 
ATOM     20  C   UNL     1       2.066   2.092   0.000  0.00  0.00    +0.000 A 
ATOM     21  C   UNL     1       1.241   2.092   0.000  0.00  0.00    +0.000 A 
ATOM     22  C   UNL     1       0.825   1.373   0.000  0.00  0.00    +0.000 A 
ATOM     23  C   UNL     1       1.241   0.660   0.000  0.00  0.00    +0.000 A 
BRANCH  18  25
ATOM     24  C   UNL     1       3.300  -0.053   0.000  0.00  0.00    +0.000 C 
ATOM     25  O   UNL     1       2.475  -0.053   0.000  0.00  0.00    +0.000 OA
ENDBRANCH  18  25
ENDBRANCH  16  22
ENDBRANCH   1  17
TORSDOF 5
