REMARK  Name = 
REMARK  1 active torsions:
REMARK  status: ('A' for Active; 'I' for Inactive)
REMARK    1  A    between atoms: C_4  and  C_7
REMARK                            x       y       z     vdW  Elec       q    Type
REMARK                         _______ _______ _______ _____ _____    ______ ____
ROOT
ATOM      1  C   UNL     1      -0.053  -0.200   0.000  0.00  0.00    +0.000 A 
ATOM      2  C   UNL     1      -0.049   0.635   0.000  0.00  0.00    +0.000 A 
ATOM      3  C   UNL     1      -0.767   1.051   0.000  0.00  0.00    +0.000 A 
ATOM      4  C   UNL     1      -1.487   0.636   0.000  0.00  0.00    +0.000 A 
ATOM      5  C   UNL     1      -1.485  -0.198   0.000  0.00  0.00    +0.000 A 
ATOM      6  C   UNL     1      -0.767  -0.610   0.000  0.00  0.00    +0.000 A 
ATOM      7 CL   UNL     1      -2.201   1.049   0.000  0.00  0.00    +0.000 Cl
ATOM      8 CL   UNL     1      -0.765   1.876   0.000  0.00  0.00    +0.000 Cl
ENDROOT
BRANCH   1  12
ATOM      9  C   UNL     1       0.424  -1.403   0.000  0.00  0.00    +0.000 C 
ATOM     10  N   UNL     1       1.099  -1.876   0.000  0.00  0.00    +0.000 NA
ATOM     11  C   UNL     1       1.756  -1.380   0.000  0.00  0.00    +0.000 C 
ATOM     12  C   UNL     1       0.665  -0.616   0.000  0.00  0.00    +0.000 C 
ATOM     13  C   UNL     1       1.489  -0.605   0.000  0.00  0.00    +0.000 C 
ATOM     14  C   UNL     1       1.067   0.103   0.000  0.00  0.00    +0.000 C 
ENDBRANCH   1  12
TORSDOF 1
