REMARK  Name = 
REMARK  7 active torsions:
REMARK  status: ('A' for Active; 'I' for Inactive)
REMARK    1  A    between atoms: C_1  and  C_6
REMARK    2  A    between atoms: C_1  and  N_10
REMARK    3  A    between atoms: C_3  and  C_5
REMARK    4  A    between atoms: C_4  and  C_8
REMARK    5  A    between atoms: C_6  and  C_8
REMARK    6  A    between atoms: C_8  and  O_19
REMARK    7  A    between atoms: O_19  and  S_20
REMARK                            x       y       z     vdW  Elec       q    Type
REMARK                         _______ _______ _______ _____ _____    ______ ____
ROOT
ATOM      1  C   UNL     1      -0.257  -1.090   0.000  0.00  0.00    +0.000 C 
ENDROOT
BRANCH   1   6
ATOM      2  C   UNL     1      -0.487   0.362   0.000  0.00  0.00    +0.000 C 
ATOM      3  C   UNL     1      -1.567  -0.423   0.000  0.00  0.00    +0.000 C 
ATOM      4  C   UNL     1      -1.154   0.847   0.000  0.00  0.00    +0.000 C 
ATOM      5  C   UNL     1      -1.822   0.362   0.000  0.00  0.00    +0.000 C 
ATOM      6  N   UNL     1      -0.742  -0.423   0.000  0.00  0.00    +0.000 NA
ATOM      7  O   UNL     1      -1.154   1.671   0.000  0.00  0.00    +0.000 OA
ATOM      8  O   UNL     1      -2.606   0.617   0.000  0.00  0.00    +0.000 OA
BRANCH   3   9
ATOM      9  C   UNL     1      -2.052  -1.090   0.000  0.00  0.00    +0.000 C 
ATOM     10  O   UNL     1      -2.872  -1.004   0.000  0.00  0.00    +0.000 OA
ENDBRANCH   3   9
ENDBRANCH   1   6
BRANCH   1  11
ATOM     11  C   UNL     1       0.564  -1.004   0.000  0.00  0.00    +0.000 C 
ATOM     12  O   UNL     1       1.049  -1.671   0.000  0.00  0.00    +0.000 OA
BRANCH  11  13
ATOM     13  C   UNL     1       0.899  -0.250   0.000  0.00  0.00    +0.000 C 
BRANCH  13  14
ATOM     14  C   UNL     1       0.414   0.417   0.000  0.00  0.00    +0.000 C 
ATOM     15  O   UNL     1       0.750   1.171   0.000  0.00  0.00    +0.000 OA
ENDBRANCH  13  14
BRANCH  13  16
ATOM     16  O   UNL     1       1.720  -0.164   0.000  0.00  0.00    +0.000 OA
BRANCH  16  20
ATOM     17  O   UNL     1       2.689  -1.499   0.000  0.00  0.00    +0.000 OA
ATOM     18  O   UNL     1       1.537  -1.317   0.000  0.00  0.00    +0.000 OA
ATOM     19  O   UNL     1       2.872  -0.347   0.000  0.00  0.00    +0.000 OA
ATOM     20  S   UNL     1       2.205  -0.832   0.000  0.00  0.00    +0.000 S 
ENDBRANCH  16  20
ENDBRANCH  13  16
ENDBRANCH  11  13
ENDBRANCH   1  11
TORSDOF 7
