REMARK  Name = 
REMARK  2 active torsions:
REMARK  status: ('A' for Active; 'I' for Inactive)
REMARK    1  A    between atoms: C_5  and  C_14
REMARK    2  A    between atoms: C_14  and  C_27
REMARK                            x       y       z     vdW  Elec       q    Type
REMARK                         _______ _______ _______ _____ _____    ______ ____
ROOT
ATOM      1  C   UNL     1       1.166   0.429   0.000  0.00  0.00    +0.000 C 
ATOM      2  C   UNL     1      -0.246  -0.417   0.000  0.00  0.00    +0.000 C 
ATOM      3  C   UNL     1      -0.962  -0.846   0.000  0.00  0.00    +0.000 C 
ATOM      4  C   UNL     1       1.157  -0.365   0.000  0.00  0.00    +0.000 C 
ATOM      5  C   UNL     1       1.927   0.721   0.000  0.00  0.00    +0.000 C 
ATOM      6  C   UNL     1       0.444  -0.813   0.000  0.00  0.00    +0.000 C 
ATOM      7  C   UNL     1       2.426   0.073   0.000  0.00  0.00    +0.000 C 
ATOM      8  C   UNL     1      -0.962  -1.671   0.000  0.00  0.00    +0.000 C 
ATOM      9  C   UNL     1      -0.246   0.411   0.000  0.00  0.00    +0.000 C 
ATOM     10  C   UNL     1       0.408   0.834   0.000  0.00  0.00    +0.000 C 
ATOM     11  C   UNL     1       1.960  -0.621   0.000  0.00  0.00    +0.000 C 
ATOM     12  C   UNL     1      -1.708  -0.447   0.000  0.00  0.00    +0.000 C 
ATOM     13  C   UNL     1      -1.662  -2.109   0.000  0.00  0.00    +0.000 C 
ATOM     14  C   UNL     1       0.444  -1.641   0.000  0.00  0.00    +0.000 C 
ATOM     15  C   UNL     1      -2.420  -0.886   0.000  0.00  0.00    +0.000 C 
ATOM     16  C   UNL     1      -2.429  -1.708   0.000  0.00  0.00    +0.000 C 
ATOM     17  C   UNL     1      -0.213  -2.073   0.000  0.00  0.00    +0.000 C 
ATOM     18  C   UNL     1       3.123   0.073   0.000  0.00  0.00    +0.000 C 
ATOM     19  F   UNL     1      -0.240  -1.129   0.000  0.00  0.00    +0.000 F 
ATOM     20  O   UNL     1      -3.123  -2.155   0.000  0.00  0.00    +0.000 OA
ATOM     21  O   UNL     1       2.782   0.813   0.000  0.00  0.00    +0.000 OA
ATOM     22  C   UNL     1       1.038   1.233   0.000  0.00  0.00    +0.000 C 
ATOM     23  O   UNL     1      -0.971   0.779   0.000  0.00  0.00    +0.000 OA
ATOM     24  C   UNL     1      -0.980  -0.027   0.000  0.00  0.00    +0.000 C 
ENDROOT
BRANCH   5  25
ATOM     25  C   UNL     1       1.872   1.534   0.000  0.00  0.00    +0.000 C 
ATOM     26  O   UNL     1       2.666   1.781   0.000  0.00  0.00    +0.000 OA
BRANCH  25  27
ATOM     27  C   UNL     1       1.339   2.155   0.000  0.00  0.00    +0.000 C 
ATOM     28  O   UNL     1       0.527   2.036   0.000  0.00  0.00    +0.000 OA
ENDBRANCH  25  27
ENDBRANCH   5  25
TORSDOF 2
