REMARK  Name = 
REMARK  7 active torsions:
REMARK  status: ('A' for Active; 'I' for Inactive)
REMARK    1  A    between atoms: C_1  and  C_2
REMARK    2  A    between atoms: C_1  and  O_27
REMARK    3  A    between atoms: C_3  and  N_16
REMARK    4  A    between atoms: C_5  and  N_7
REMARK    5  A    between atoms: P_19  and  O_23
REMARK    6  A    between atoms: O_23  and  P_24
REMARK    7  A    between atoms: P_24  and  O_27
REMARK                            x       y       z     vdW  Elec       q    Type
REMARK                         _______ _______ _______ _____ _____    ______ ____
ROOT
ATOM      1  C   UNL     1       0.484  -0.907   0.000  0.00  0.00    +0.000 C 
ATOM      2  C   UNL     1       1.309  -0.907   0.000  0.00  0.00    +0.000 C 
ATOM      3  C   UNL     1       1.564  -0.122   0.000  0.00  0.00    +0.000 C 
ATOM      4  C   UNL     1       0.896   0.363   0.000  0.00  0.00    +0.000 C 
ATOM      5  O   UNL     1       0.229  -0.122   0.000  0.00  0.00    +0.000 OA
ENDROOT
BRANCH   4   6
ATOM      6  N   UNL     1       0.896   1.188   0.000  0.00  0.00    +0.000 N 
ATOM      7  C   UNL     1       0.182   1.600   0.000  0.00  0.00    +0.000 A 
ATOM      8  O   UNL     1      -0.533   1.188   0.000  0.00  0.00    +0.000 OA
ATOM      9  N   UNL     1       0.182   2.425   0.000  0.00  0.00    +0.000 NA
ATOM     10  C   UNL     1       0.896   2.838   0.000  0.00  0.00    +0.000 A 
ATOM     11  O   UNL     1       0.896   3.663   0.000  0.00  0.00    +0.000 OA
ATOM     12  C   UNL     1       1.611   2.425   0.000  0.00  0.00    +0.000 A 
ATOM     13  C   UNL     1       2.325   2.838   0.000  0.00  0.00    +0.000 C 
ATOM     14  C   UNL     1       1.611   1.600   0.000  0.00  0.00    +0.000 A 
ENDBRANCH   4   6
BRANCH   2  15
ATOM     15  N   UNL     1       1.794  -1.574   0.000  0.00  0.00    +0.000 NA
ATOM     16  N   UNL     1       1.458  -2.328   0.000  0.00  0.00    +0.000 NA
ATOM     17  N   UNL     1       1.123  -3.082   0.000  0.00  0.00    +0.000 NA
ENDBRANCH   2  15
BRANCH   1  18
ATOM     18  C   UNL     1      -0.001  -1.574   0.000  0.00  0.00    +0.000 C 
BRANCH  18  19
ATOM     19  O   UNL     1       0.334  -2.328   0.000  0.00  0.00    +0.000 OA
BRANCH  19  20
ATOM     20  P   UNL     1      -0.150  -2.995   0.000  0.00  0.00    +0.000 P 
ATOM     21  O   UNL     1       0.517  -3.480   0.000  0.00  0.00    +0.000 OA
ATOM     22  O   UNL     1      -0.635  -3.663   0.000  0.00  0.00    +0.000 OA
BRANCH  20  23
ATOM     23  O   UNL     1      -0.818  -2.510   0.000  0.00  0.00    +0.000 OA
BRANCH  23  24
ATOM     24  P   UNL     1      -1.571  -2.846   0.000  0.00  0.00    +0.000 P 
ATOM     25  O   UNL     1      -2.325  -3.182   0.000  0.00  0.00    +0.000 OA
ATOM     26  O   UNL     1      -1.236  -3.600   0.000  0.00  0.00    +0.000 OA
ATOM     27  O   UNL     1      -1.907  -2.092   0.000  0.00  0.00    +0.000 OA
ENDBRANCH  23  24
ENDBRANCH  20  23
ENDBRANCH  19  20
ENDBRANCH  18  19
ENDBRANCH   1  18
TORSDOF 7
