REMARK  Name = 
REMARK  6 active torsions:
REMARK  status: ('A' for Active; 'I' for Inactive)
REMARK    1  A    between atoms: C_2  and  C_7
REMARK    2  A    between atoms: C_5  and  C_12
REMARK    3  A    between atoms: N_8  and  O_10
REMARK    4  A    between atoms: C_15  and  C_17
REMARK    5  A    between atoms: C_20  and  C_23
REMARK    6  A    between atoms: N_25  and  O_26
REMARK                            x       y       z     vdW  Elec       q    Type
REMARK                         _______ _______ _______ _____ _____    ______ ____
ROOT
ATOM      1  C   UNL     1      -0.733  -0.852   0.000  0.00  0.00    +0.000 A 
ATOM      2  C   UNL     1      -0.437  -1.623   0.000  0.00  0.00    +0.000 A 
ATOM      3  C   UNL     1       0.387  -1.579   0.000  0.00  0.00    +0.000 A 
ATOM      4  C   UNL     1       0.601  -0.782   0.000  0.00  0.00    +0.000 A 
ATOM      5  O   UNL     1      -0.091  -0.333   0.000  0.00  0.00    +0.000 OA
ENDROOT
BRANCH   1  10
ATOM      6  C   UNL     1      -2.161   0.798   0.000  0.00  0.00    +0.000 A 
ATOM      7  C   UNL     1      -2.876   0.385   0.000  0.00  0.00    +0.000 A 
ATOM      8  C   UNL     1      -2.876  -0.440   0.000  0.00  0.00    +0.000 A 
ATOM      9  C   UNL     1      -2.161  -0.852   0.000  0.00  0.00    +0.000 A 
ATOM     10  C   UNL     1      -1.447  -0.440   0.000  0.00  0.00    +0.000 A 
ATOM     11  C   UNL     1      -1.447   0.385   0.000  0.00  0.00    +0.000 A 
BRANCH   7  12
ATOM     12  C   UNL     1      -3.590   0.798   0.000  0.00  0.00    +0.000 C 
ATOM     13  N   UNL     1      -4.305   0.385   0.000  0.00  0.00    +0.000 NA
ATOM     14  N   UNL     1      -3.590   1.623   0.000  0.00  0.00    +0.000 NA
BRANCH  13  15
ATOM     15  O   UNL     1      -5.019   0.798   0.000  0.00  0.00    +0.000 OA
ATOM     16  C   UNL     1      -5.734   0.385   0.000  0.00  0.00    +0.000 C 
ENDBRANCH  13  15
ENDBRANCH   7  12
ENDBRANCH   1  10
BRANCH   4  17
ATOM     17  C   UNL     1       1.371  -0.487   0.000  0.00  0.00    +0.000 A 
ATOM     18  C   UNL     1       2.012  -1.006   0.000  0.00  0.00    +0.000 A 
ATOM     19  C   UNL     1       2.782  -0.710   0.000  0.00  0.00    +0.000 A 
ATOM     20  C   UNL     1       2.911   0.104   0.000  0.00  0.00    +0.000 A 
ATOM     21  C   UNL     1       2.270   0.624   0.000  0.00  0.00    +0.000 A 
ATOM     22  C   UNL     1       1.500   0.328   0.000  0.00  0.00    +0.000 A 
BRANCH  20  23
ATOM     23  C   UNL     1       3.681   0.400   0.000  0.00  0.00    +0.000 C 
ATOM     24  N   UNL     1       3.810   1.215   0.000  0.00  0.00    +0.000 NA
ATOM     25  N   UNL     1       4.322  -0.119   0.000  0.00  0.00    +0.000 NA
BRANCH  25  26
ATOM     26  O   UNL     1       5.093   0.176   0.000  0.00  0.00    +0.000 OA
ATOM     27  C   UNL     1       5.734  -0.343   0.000  0.00  0.00    +0.000 C 
ENDBRANCH  25  26
ENDBRANCH  20  23
ENDBRANCH   4  17
TORSDOF 6
