REMARK  Name = 
REMARK  3 active torsions:
REMARK  status: ('A' for Active; 'I' for Inactive)
REMARK    1  A    between atoms: C_1  and  C_2
REMARK    2  A    between atoms: N_5  and  C_9
REMARK    3  A    between atoms: C_9  and  C_11
REMARK                            x       y       z     vdW  Elec       q    Type
REMARK                         _______ _______ _______ _____ _____    ______ ____
ROOT
ATOM      1  C   UNL     1      -0.357   0.412   0.000  0.00  0.00    +0.000 C 
ATOM      2  N   UNL     1       0.357   0.000   0.000  0.00  0.00    +0.000 NA
ATOM      3  O   UNL     1      -0.357   1.237   0.000  0.00  0.00    +0.000 OA
ENDROOT
BRANCH   1   4
ATOM      4  C   UNL     1      -1.072   0.000   0.000  0.00  0.00    +0.000 A 
ATOM      5  C   UNL     1      -1.072  -0.825   0.000  0.00  0.00    +0.000 A 
ATOM      6  C   UNL     1      -1.786   0.412   0.000  0.00  0.00    +0.000 A 
ATOM      7  C   UNL     1      -1.786  -1.237   0.000  0.00  0.00    +0.000 A 
ATOM      8  C   UNL     1      -2.501   0.000   0.000  0.00  0.00    +0.000 A 
ATOM      9  C   UNL     1      -2.501  -0.825   0.000  0.00  0.00    +0.000 A 
ENDBRANCH   1   4
BRANCH   2  10
ATOM     10  C   UNL     1       1.072   0.412   0.000  0.00  0.00    +0.000 C 
BRANCH  10  11
ATOM     11  C   UNL     1       1.786   0.000   0.000  0.00  0.00    +0.000 C 
ATOM     12  O   UNL     1       2.501   0.412   0.000  0.00  0.00    +0.000 OA
ATOM     13  O   UNL     1       1.786  -0.825   0.000  0.00  0.00    +0.000 OA
ENDBRANCH  10  11
ENDBRANCH   2  10
TORSDOF 3
