REMARK  Name = 
REMARK  5 active torsions:
REMARK  status: ('A' for Active; 'I' for Inactive)
REMARK    1  A    between atoms: C_6  and  C_7
REMARK    2  A    between atoms: C_7  and  C_8
REMARK    3  A    between atoms: C_7  and  C_15
REMARK    4  A    between atoms: C_21  and  C_27
REMARK    5  A    between atoms: C_31  and  C_33
REMARK                            x       y       z     vdW  Elec       q    Type
REMARK                         _______ _______ _______ _____ _____    ______ ____
ROOT
ATOM      1  C   UNL     1      -0.715  -0.412   0.000  0.00  0.00    +0.000 A 
ATOM      2  C   UNL     1      -0.715  -1.238   0.000  0.00  0.00    +0.000 A 
ATOM      3  C   UNL     1       0.000  -1.650   0.000  0.00  0.00    +0.000 A 
ATOM      4  C   UNL     1       0.715  -1.238   0.000  0.00  0.00    +0.000 A 
ATOM      5  C   UNL     1       0.715  -0.412   0.000  0.00  0.00    +0.000 A 
ATOM      6  C   UNL     1       0.000   0.000   0.000  0.00  0.00    +0.000 A 
ATOM      7  C   UNL     1       1.429   0.000   0.000  0.00  0.00    +0.000 A 
ATOM      8  C   UNL     1       2.143  -0.412   0.000  0.00  0.00    +0.000 A 
ATOM      9  C   UNL     1       2.143  -1.238   0.000  0.00  0.00    +0.000 A 
ATOM     10  O   UNL     1       2.858  -1.650   0.000  0.00  0.00    +0.000 OA
ATOM     11  N   UNL     1       1.429  -1.650   0.000  0.00  0.00    +0.000 N 
ATOM     12  C   UNL     1       1.429  -2.475   0.000  0.00  0.00    +0.000 C 
ENDROOT
BRANCH   7  13
ATOM     13  C   UNL     1       1.429   0.825   0.000  0.00  0.00    +0.000 A 
ATOM     14  C   UNL     1       0.715   1.238   0.000  0.00  0.00    +0.000 A 
ATOM     15  C   UNL     1       0.715   2.062   0.000  0.00  0.00    +0.000 A 
ATOM     16  C   UNL     1       1.429   2.475   0.000  0.00  0.00    +0.000 A 
ATOM     17  C   UNL     1       2.143   2.062   0.000  0.00  0.00    +0.000 A 
ATOM     18  C   UNL     1       2.143   1.238   0.000  0.00  0.00    +0.000 A 
BRANCH  17  19
ATOM     19  C   UNL     1       2.858   2.475   0.000  0.00  0.00    +0.000 C 
ATOM     20  C   UNL     1       3.572   2.888   0.000  0.00  0.00    +0.000 C 
ENDBRANCH  17  19
ENDBRANCH   7  13
BRANCH   1  21
ATOM     21  C   UNL     1      -1.429   0.000   0.000  0.00  0.00    +0.000 C 
ATOM     22  O   UNL     1      -2.143   0.412   0.000  0.00  0.00    +0.000 OA
BRANCH  21  23
ATOM     23  C   UNL     1      -1.016   0.715   0.000  0.00  0.00    +0.000 A 
ATOM     24  C   UNL     1      -1.429   1.429   0.000  0.00  0.00    +0.000 A 
ATOM     25  C   UNL     1      -1.016   2.143   0.000  0.00  0.00    +0.000 A 
ATOM     26  C   UNL     1      -0.191   2.143   0.000  0.00  0.00    +0.000 A 
ATOM     27  C   UNL     1       0.221   1.429   0.000  0.00  0.00    +0.000 A 
ATOM     28  C   UNL     1      -0.191   0.715   0.000  0.00  0.00    +0.000 A 
ATOM     29 CL   UNL     1       0.221   2.858   0.000  0.00  0.00    +0.000 Cl
ENDBRANCH  21  23
BRANCH  21  35
ATOM     30  C   UNL     1      -3.214  -0.188   0.000  0.00  0.00    +0.000 C 
ATOM     31  N   UNL     1      -2.662  -0.801   0.000  0.00  0.00    +0.000 N 
ATOM     32  C   UNL     1      -2.833  -1.608   0.000  0.00  0.00    +0.000 A 
ATOM     33  N   UNL     1      -2.119  -2.020   0.000  0.00  0.00    +0.000 NA
ATOM     34  C   UNL     1      -1.506  -1.468   0.000  0.00  0.00    +0.000 A 
ATOM     35  C   UNL     1      -1.841  -0.715   0.000  0.00  0.00    +0.000 A 
ENDBRANCH  21  35
ENDBRANCH   1  21
TORSDOF 5
