REMARK  Name = 
REMARK  8 active torsions:
REMARK  status: ('A' for Active; 'I' for Inactive)
REMARK    1  A    between atoms: O_3  and  C_20
REMARK    2  A    between atoms: O_3  and  C_22
REMARK    3  A    between atoms: O_7  and  C_39
REMARK    4  A    between atoms: O_7  and  C_50
REMARK    5  A    between atoms: O_13  and  C_55
REMARK    6  A    between atoms: N_15  and  C_18
REMARK    7  A    between atoms: N_16  and  C_47
REMARK    8  A    between atoms: C_50  and  C_51
REMARK                            x       y       z     vdW  Elec       q    Type
REMARK                         _______ _______ _______ _____ _____    ______ ____
ROOT
ATOM      1 CL   UNL     1      -0.216  -2.674   0.000  0.00  0.00    +0.000 Cl
ATOM      2  O   UNL     1       1.114  -2.712   0.000  0.00  0.00    +0.000 OA
ATOM      3  O   UNL     1      -2.773  -1.295   0.000  0.00  0.00    +0.000 OA
ATOM      4  O   UNL     1       0.448  -4.750   0.000  0.00  0.00    +0.000 OA
ATOM      5  O   UNL     1      -3.793  -2.109   0.000  0.00  0.00    +0.000 OA
ATOM      6  C   UNL     1       1.827  -1.373   0.000  0.00  0.00    +0.000 C 
ATOM      7  C   UNL     1       1.160  -1.858   0.000  0.00  0.00    +0.000 C 
ATOM      8  C   UNL     1       1.572  -0.588   0.000  0.00  0.00    +0.000 C 
ATOM      9  C   UNL     1       0.492  -1.373   0.000  0.00  0.00    +0.000 A 
ATOM     10  C   UNL     1       0.747  -0.588   0.000  0.00  0.00    +0.000 A 
ATOM     11  C   UNL     1       2.647  -1.371   0.000  0.00  0.00    +0.000 C 
ATOM     12  C   UNL     1       2.237  -0.108   0.000  0.00  0.00    +0.000 C 
ATOM     13  C   UNL     1       2.900  -0.591   0.000  0.00  0.00    +0.000 C 
ATOM     14  C   UNL     1       0.182   0.059   0.000  0.00  0.00    +0.000 A 
ATOM     15  C   UNL     1      -0.345  -1.565   0.000  0.00  0.00    +0.000 A 
ATOM     16  C   UNL     1      -0.660  -0.113   0.000  0.00  0.00    +0.000 A 
ATOM     17  C   UNL     1      -0.925  -0.930   0.000  0.00  0.00    +0.000 A 
ATOM     18  C   UNL     1      -1.511  -0.195   0.000  0.00  0.00    +0.000 C 
ATOM     19  C   UNL     1       0.728  -3.476   0.000  0.00  0.00    +0.000 A 
ATOM     20  C   UNL     1      -2.258  -0.612   0.000  0.00  0.00    +0.000 C 
ATOM     21  C   UNL     1       0.067  -4.019   0.000  0.00  0.00    +0.000 A 
ATOM     22  C   UNL     1      -0.097  -3.490   0.000  0.00  0.00    +0.000 A 
ATOM     23  C   UNL     1      -1.604  -4.128   0.000  0.00  0.00    +0.000 A 
ATOM     24  C   UNL     1      -0.757  -4.249   0.000  0.00  0.00    +0.000 A 
ATOM     25  C   UNL     1      -0.891  -3.713   0.000  0.00  0.00    +0.000 A 
ATOM     26  C   UNL     1      -2.330  -3.676   0.000  0.00  0.00    +0.000 C 
ATOM     27  C   UNL     1      -2.812  -2.969   0.000  0.00  0.00    +0.000 C 
ATOM     28  C   UNL     1      -2.969  -2.128   0.000  0.00  0.00    +0.000 C 
ENDROOT
BRANCH  26  29
ATOM     29  N   UNL     1      -3.035  -4.103   0.000  0.00  0.00    +0.000 N 
ATOM     30  H   UNL     1      -3.300  -3.666   0.000  0.00  0.00    +0.000 HD
ATOM     31  H   UNL     1      -2.770  -4.541   0.000  0.00  0.00    +0.000 HD
ATOM     32  H   UNL     1      -3.473  -4.368   0.000  0.00  0.00    +0.000 HD
ENDBRANCH  26  29
BRANCH  18  33
ATOM     33  O   UNL     1      -2.242   0.189   0.000  0.00  0.00    +0.000 OA
BRANCH  33  35
ATOM     34  O   UNL     1      -1.579   1.454   0.000  0.00  0.00    +0.000 OA
ATOM     35  C   UNL     1      -2.276   1.013   0.000  0.00  0.00    +0.000 C 
BRANCH  35  39
ATOM     36  O   UNL     1      -3.819   3.461   0.000  0.00  0.00    +0.000 OA
ATOM     37  O   UNL     1      -1.637   3.966   0.000  0.00  0.00    +0.000 OA
ATOM     38  N   UNL     1      -2.307   2.668   0.000  0.00  0.00    +0.000 N 
ATOM     39  C   UNL     1      -3.006   1.396   0.000  0.00  0.00    +0.000 A 
ATOM     40  C   UNL     1      -3.040   2.220   0.000  0.00  0.00    +0.000 A 
ATOM     41  C   UNL     1      -3.703   0.954   0.000  0.00  0.00    +0.000 A 
ATOM     42  C   UNL     1      -3.771   2.603   0.000  0.00  0.00    +0.000 A 
ATOM     43  C   UNL     1      -4.434   1.337   0.000  0.00  0.00    +0.000 A 
ATOM     44  C   UNL     1      -4.468   2.162   0.000  0.00  0.00    +0.000 A 
ATOM     45  C   UNL     1      -2.335   3.527   0.000  0.00  0.00    +0.000 C 
ATOM     46  C   UNL     1      -3.096   3.926   0.000  0.00  0.00    +0.000 C 
ATOM     47  C   UNL     1      -3.133   4.750   0.000  0.00  0.00    +0.000 C 
ATOM     48  H   UNL     1      -1.857   2.426   0.000  0.00  0.00    +0.000 HD
BRANCH  43  49
ATOM     49  O   UNL     1      -5.131   0.896   0.000  0.00  0.00    +0.000 OA
ATOM     50  C   UNL     1      -5.862   1.279   0.000  0.00  0.00    +0.000 C 
ENDBRANCH  43  49
ENDBRANCH  35  39
ENDBRANCH  33  35
ENDBRANCH  18  33
BRANCH   6  51
ATOM     51  O   UNL     1       2.082  -2.158   0.000  0.00  0.00    +0.000 OA
BRANCH  51  58
ATOM     52  O   UNL     1       3.441  -1.716   0.000  0.00  0.00    +0.000 OA
ATOM     53  O   UNL     1       4.206  -4.070   0.000  0.00  0.00    +0.000 OA
ATOM     54  O   UNL     1       2.592  -3.727   0.000  0.00  0.00    +0.000 OA
ATOM     55  C   UNL     1       4.503  -2.672   0.000  0.00  0.00    +0.000 C 
ATOM     56  C   UNL     1       4.248  -1.887   0.000  0.00  0.00    +0.000 C 
ATOM     57  C   UNL     1       3.951  -3.285   0.000  0.00  0.00    +0.000 C 
ATOM     58  C   UNL     1       2.889  -2.329   0.000  0.00  0.00    +0.000 C 
ATOM     59  C   UNL     1       3.144  -3.114   0.000  0.00  0.00    +0.000 C 
ATOM     60  C   UNL     1       5.032  -1.633   0.000  0.00  0.00    +0.000 C 
ATOM     61  C   UNL     1       4.419  -1.081   0.000  0.00  0.00    +0.000 C 
BRANCH  55  62
ATOM     62  N   UNL     1       5.310  -2.844   0.000  0.00  0.00    +0.000 NA
ATOM     63  C   UNL     1       5.862  -2.231   0.000  0.00  0.00    +0.000 C 
ATOM     64  C   UNL     1       5.565  -3.628   0.000  0.00  0.00    +0.000 C 
ENDBRANCH  55  62
ENDBRANCH  51  58
ENDBRANCH   6  51
TORSDOF 8
