REMARK  Name = 
REMARK  9 active torsions:
REMARK  status: ('A' for Active; 'I' for Inactive)
REMARK    1  A    between atoms: CA_3  and  C_22
REMARK    2  A    between atoms: C_4  and  C_14
REMARK    3  A    between atoms: CA_7  and  N_9
REMARK    4  A    between atoms: C_10  and  C_13
REMARK    5  A    between atoms: C_13  and  C_15
REMARK    6  A    between atoms: C_14  and  S_25
REMARK    7  A    between atoms: N_21  and  O_34
REMARK    8  A    between atoms: S_25  and  C_26
REMARK    9  A    between atoms: C_26  and  C_27
REMARK                            x       y       z     vdW  Elec       q    Type
REMARK                         _______ _______ _______ _____ _____    ______ ____
ROOT
ATOM      1  C   UNL     1      -0.144   0.000   0.000  0.00  0.00    +0.000 C 
ATOM      2  N   UNL     1      -0.144  -0.825   0.000  0.00  0.00    +0.000 N 
ATOM      3  CA  UNL     1       0.598  -1.238   0.000  0.00  0.00    +0.000 C 
ATOM      4  C   UNL     1       1.299  -0.825   0.000  0.00  0.00    +0.000 C 
ATOM      5  C   UNL     1       1.299   0.000   0.000  0.00  0.00    +0.000 C 
ATOM      6  S   UNL     1       0.598   0.412   0.000  0.00  0.00    +0.000 S 
ATOM      7  CA  UNL     1      -0.928   0.000   0.000  0.00  0.00    +0.000 C 
ATOM      8  C   UNL     1      -0.928  -0.825   0.000  0.00  0.00    +0.000 C 
ATOM      9  O   UNL     1      -1.671  -1.238   0.000  0.00  0.00    +0.000 OA
ENDROOT
BRANCH   3  10
ATOM     10  C   UNL     1       0.598  -2.062   0.000  0.00  0.00    +0.000 C 
ATOM     11  O   UNL     1       1.299  -2.475   0.000  0.00  0.00    +0.000 OA
ATOM     12  OXT UNL     1      -0.144  -2.475   0.000  0.00  0.00    +0.000 OA
ENDBRANCH   3  10
BRANCH   7  13
ATOM     13  N   UNL     1      -1.671   0.412   0.000  0.00  0.00    +0.000 NA
ATOM     14  C   UNL     1      -2.372   0.000   0.000  0.00  0.00    +0.000 C 
ATOM     15  O   UNL     1      -2.372  -0.825   0.000  0.00  0.00    +0.000 OA
BRANCH  14  16
ATOM     16  C   UNL     1      -3.073   0.412   0.000  0.00  0.00    +0.000 C 
ATOM     17  N   UNL     1      -3.073   1.238   0.000  0.00  0.00    +0.000 NA
BRANCH  16  18
ATOM     18  C   UNL     1      -3.816   0.000   0.000  0.00  0.00    +0.000 A 
ATOM     19  C   UNL     1      -4.476   0.495   0.000  0.00  0.00    +0.000 A 
ATOM     20  S   UNL     1      -5.136   0.000   0.000  0.00  0.00    +0.000 S 
ATOM     21  C   UNL     1      -4.888  -0.825   0.000  0.00  0.00    +0.000 A 
ATOM     22  N   UNL     1      -4.063  -0.825   0.000  0.00  0.00    +0.000 NA
ATOM     23  N   UNL     1      -5.383  -1.485   0.000  0.00  0.00    +0.000 NA
ENDBRANCH  16  18
BRANCH  17  24
ATOM     24  O   UNL     1      -2.372   1.650   0.000  0.00  0.00    +0.000 OA
ATOM     25  C   UNL     1      -2.372   2.475   0.000  0.00  0.00    +0.000 C 
ENDBRANCH  17  24
ENDBRANCH  14  16
ENDBRANCH   7  13
BRANCH   4  26
ATOM     26  C   UNL     1       2.001  -1.238   0.000  0.00  0.00    +0.000 C 
BRANCH  26  27
ATOM     27  S   UNL     1       2.702  -0.825   0.000  0.00  0.00    +0.000 S 
BRANCH  27  28
ATOM     28  C   UNL     1       3.403  -1.238   0.000  0.00  0.00    +0.000 C 
ATOM     29  O   UNL     1       3.403  -2.062   0.000  0.00  0.00    +0.000 OA
BRANCH  28  30
ATOM     30  C   UNL     1       4.104  -0.825   0.000  0.00  0.00    +0.000 A 
ATOM     31  C   UNL     1       4.104   0.000   0.000  0.00  0.00    +0.000 A 
ATOM     32  O   UNL     1       4.888  -1.073   0.000  0.00  0.00    +0.000 OA
ATOM     33  C   UNL     1       5.383  -0.412   0.000  0.00  0.00    +0.000 A 
ATOM     34  C   UNL     1       4.888   0.247   0.000  0.00  0.00    +0.000 A 
ENDBRANCH  28  30
ENDBRANCH  27  28
ENDBRANCH  26  27
ENDBRANCH   4  26
TORSDOF 9
