REMARK  Name = 
REMARK  2 active torsions:
REMARK  status: ('A' for Active; 'I' for Inactive)
REMARK    1  A    between atoms: C_4  and  C_7
REMARK    2  A    between atoms: C_7  and  C_8
REMARK                            x       y       z     vdW  Elec       q    Type
REMARK                         _______ _______ _______ _____ _____    ______ ____
ROOT
ATOM      1  C   UNL     1      -0.358  -0.412   0.000  0.00  0.00    +0.000 C 
ATOM      2  C   UNL     1      -0.358  -1.237   0.000  0.00  0.00    +0.000 C 
ENDROOT
BRANCH   1   3
ATOM      3  C   UNL     1       0.357   0.001   0.000  0.00  0.00    +0.000 A 
ATOM      4  C   UNL     1       0.357   0.826   0.000  0.00  0.00    +0.000 A 
ATOM      5  C   UNL     1       1.069   1.237   0.000  0.00  0.00    +0.000 A 
ATOM      6  C   UNL     1       1.784   0.824   0.000  0.00  0.00    +0.000 A 
ATOM      7  C   UNL     1       1.074  -0.413   0.000  0.00  0.00    +0.000 A 
ATOM      8  C   UNL     1       1.786   0.003   0.000  0.00  0.00    +0.000 A 
ATOM      9  O   UNL     1       1.074  -1.238   0.000  0.00  0.00    +0.000 OA
ATOM     10  O   UNL     1       2.499   1.237   0.000  0.00  0.00    +0.000 OA
ENDBRANCH   1   3
BRANCH   1  14
ATOM     11  C   UNL     1      -2.499   0.826   0.000  0.00  0.00    +0.000 A 
ATOM     12  C   UNL     1      -1.073   0.826   0.000  0.00  0.00    +0.000 A 
ATOM     13  C   UNL     1      -1.784   1.238   0.000  0.00  0.00    +0.000 A 
ATOM     14  C   UNL     1      -1.073   0.001   0.000  0.00  0.00    +0.000 A 
ATOM     15  C   UNL     1      -2.499  -0.003   0.000  0.00  0.00    +0.000 A 
ATOM     16  C   UNL     1      -1.783  -0.411   0.000  0.00  0.00    +0.000 A 
ENDBRANCH   1  14
TORSDOF 2
