REMARK  Name = 
REMARK  1 active torsions:
REMARK  status: ('A' for Active; 'I' for Inactive)
REMARK    1  A    between atoms: C_1  and  C_2
REMARK                            x       y       z     vdW  Elec       q    Type
REMARK                         _______ _______ _______ _____ _____    ______ ____
ROOT
ATOM      1  C   UNL     1       0.003  -0.622   0.000  0.00  0.00    +0.000 C 
ATOM      2  C   UNL     1      -0.718  -0.199   0.000  0.00  0.00    +0.000 C 
ATOM      3  C   UNL     1      -1.431  -0.614   0.000  0.00  0.00    +0.000 C 
ENDROOT
BRANCH   1   4
ATOM      4  C   UNL     1       0.716  -0.207   0.000  0.00  0.00    +0.000 C 
ATOM      5  O   UNL     1       0.716   0.622   0.000  0.00  0.00    +0.000 OA
ENDBRANCH   1   4
TORSDOF 1
