REMARK  Name = 
REMARK  2 active torsions:
REMARK  status: ('A' for Active; 'I' for Inactive)
REMARK    1  A    between atoms: C_1  and  CA_2
REMARK    2  A    between atoms: CA_2  and  CB_3
REMARK                            x       y       z     vdW  Elec       q    Type
REMARK                         _______ _______ _______ _____ _____    ______ ____
ROOT
ATOM      1  CA  SER A   1       0.000  -0.206   0.000  0.00  0.00    +0.000 C 
ATOM      2  N   SER A   1       0.000  -1.031   0.000  0.00  0.00    +0.000 NA
ENDROOT
BRANCH   1   3
ATOM      3  C   SER A   1       0.715   0.206   0.000  0.00  0.00    +0.000 C 
ATOM      4  OXT SER A   1       1.429  -0.206   0.000  0.00  0.00    +0.000 OA
ATOM      5  O   SER A   1       0.715   1.031   0.000  0.00  0.00    +0.000 OA
ENDBRANCH   1   3
BRANCH   1   6
ATOM      6  CB  SER A   1      -0.715   0.206   0.000  0.00  0.00    +0.000 C 
ATOM      7  OG  SER A   1      -1.429  -0.206   0.000  0.00  0.00    +0.000 OA
ENDBRANCH   1   6
TORSDOF 2
