REMARK  Name = 
REMARK  4 active torsions:
REMARK  status: ('A' for Active; 'I' for Inactive)
REMARK    1  A    between atoms: C_2  and  C_4
REMARK    2  A    between atoms: C_4  and  C_5
REMARK    3  A    between atoms: C_5  and  C_7
REMARK    4  A    between atoms: C_11  and  C_13
REMARK                            x       y       z     vdW  Elec       q    Type
REMARK                         _______ _______ _______ _____ _____    ______ ____
ROOT
ATOM      1  C   UNL     1       0.818  -0.375   0.000  0.00  0.00    +0.000 C 
ATOM      2  C   UNL     1       0.333  -1.043   0.000  0.00  0.00    +0.000 C 
ATOM      3  C   UNL     1       0.588  -1.827   0.000  0.00  0.00    +0.000 C 
ATOM      4  O   UNL     1      -0.451  -0.788   0.000  0.00  0.00    +0.000 OA
ATOM      5  C   UNL     1      -0.451   0.037   0.000  0.00  0.00    +0.000 C 
ATOM      6  N   UNL     1       0.333   0.292   0.000  0.00  0.00    +0.000 NA
ENDROOT
BRANCH   5   7
ATOM      7  C   UNL     1      -1.119   0.522   0.000  0.00  0.00    +0.000 A 
ATOM      8  C   UNL     1      -1.872   0.186   0.000  0.00  0.00    +0.000 A 
ATOM      9  C   UNL     1      -2.540   0.671   0.000  0.00  0.00    +0.000 A 
ATOM     10 CL   UNL     1      -3.293   0.336   0.000  0.00  0.00    +0.000 Cl
ATOM     11  C   UNL     1      -2.453   1.492   0.000  0.00  0.00    +0.000 A 
ATOM     12  C   UNL     1      -1.700   1.827   0.000  0.00  0.00    +0.000 A 
ATOM     13  C   UNL     1      -1.032   1.343   0.000  0.00  0.00    +0.000 A 
ATOM     14  O   UNL     1      -0.279   1.678   0.000  0.00  0.00    +0.000 OA
ENDBRANCH   5   7
BRANCH   1  15
ATOM     15  C   UNL     1       1.643  -0.375   0.000  0.00  0.00    +0.000 C 
ATOM     16  O   UNL     1       2.056   0.339   0.000  0.00  0.00    +0.000 OA
BRANCH  15  17
ATOM     17  C   UNL     1       2.056  -1.090   0.000  0.00  0.00    +0.000 C 
BRANCH  17  19
ATOM     18  O   UNL     1       3.293  -1.804   0.000  0.00  0.00    +0.000 OA
ATOM     19  C   UNL     1       2.881  -1.090   0.000  0.00  0.00    +0.000 C 
ATOM     20  O   UNL     1       3.293  -0.375   0.000  0.00  0.00    +0.000 OA
ENDBRANCH  17  19
ENDBRANCH  15  17
ENDBRANCH   1  15
TORSDOF 4
