REMARK  Name = 
REMARK  11 active torsions:
REMARK  status: ('A' for Active; 'I' for Inactive)
REMARK    1  A    between atoms: C_1  and  C_2
REMARK    2  A    between atoms: C_2  and  C_4
REMARK    3  A    between atoms: N_3  and  C_21
REMARK    4  A    between atoms: C_4  and  C_5
REMARK    5  A    between atoms: C_5  and  C_6
REMARK    6  A    between atoms: C_6  and  C_7
REMARK    7  A    between atoms: C_7  and  C_8
REMARK    8  A    between atoms: C_18  and  C_20
REMARK    9  A    between atoms: C_20  and  C_21
REMARK   10  A    between atoms: C_21  and  C_22
REMARK   11  A    between atoms: C_22  and  N_25
REMARK                            x       y       z     vdW  Elec       q    Type
REMARK                         _______ _______ _______ _____ _____    ______ ____
ROOT
ATOM      1  C   UNL     1       0.669  -0.235   0.000  0.00  0.00    +0.000 C 
ENDROOT
BRANCH   1   3
ATOM      2  C   UNL     1      -0.042  -1.489   0.000  0.00  0.00    +0.000 C 
ATOM      3  N   UNL     1      -0.042  -0.653   0.000  0.00  0.00    +0.000 NA
ATOM      4  O   UNL     1       0.674  -1.899   0.000  0.00  0.00    +0.000 OA
BRANCH   2   5
ATOM      5  C   UNL     1      -0.753  -1.908   0.000  0.00  0.00    +0.000 C 
BRANCH   5   6
ATOM      6  C   UNL     1      -1.464  -1.489   0.000  0.00  0.00    +0.000 C 
BRANCH   6   7
ATOM      7  C   UNL     1      -2.175  -1.908   0.000  0.00  0.00    +0.000 C 
BRANCH   7   8
ATOM      8  C   UNL     1      -2.886  -1.489   0.000  0.00  0.00    +0.000 C 
BRANCH   8   9
ATOM      9  C   UNL     1      -3.597  -1.908   0.000  0.00  0.00    +0.000 C 
BRANCH   9  10
ATOM     10  C   UNL     1      -4.308  -1.489   0.000  0.00  0.00    +0.000 C 
ATOM     11  C   UNL     1      -5.019  -1.908   0.000  0.00  0.00    +0.000 C 
ENDBRANCH   9  10
ENDBRANCH   8   9
ENDBRANCH   7   8
ENDBRANCH   6   7
ENDBRANCH   5   6
ENDBRANCH   2   5
ENDBRANCH   1   3
BRANCH   1  12
ATOM     12  C   UNL     1       1.380  -0.653   0.000  0.00  0.00    +0.000 C 
ATOM     13  O   UNL     1       1.380  -1.489   0.000  0.00  0.00    +0.000 OA
BRANCH  12  22
ATOM     14  C   UNL     1       3.555   0.602   0.000  0.00  0.00    +0.000 A 
ATOM     15  C   UNL     1       3.555  -0.235   0.000  0.00  0.00    +0.000 A 
ATOM     16  O   UNL     1       4.266  -0.653   0.000  0.00  0.00    +0.000 OA
ATOM     17  C   UNL     1       5.019  -0.235   0.000  0.00  0.00    +0.000 C 
ATOM     18  C   UNL     1       5.019   0.602   0.000  0.00  0.00    +0.000 C 
ATOM     19  O   UNL     1       4.266   1.020   0.000  0.00  0.00    +0.000 OA
ATOM     20  C   UNL     1       2.844   1.020   0.000  0.00  0.00    +0.000 A 
ATOM     21  C   UNL     1       2.091   0.602   0.000  0.00  0.00    +0.000 A 
ATOM     22  C   UNL     1       2.091  -0.235   0.000  0.00  0.00    +0.000 A 
ATOM     23  C   UNL     1       2.844  -0.653   0.000  0.00  0.00    +0.000 A 
ENDBRANCH  12  22
ENDBRANCH   1  12
BRANCH   1  24
ATOM     24  C   UNL     1       0.669   0.602   0.000  0.00  0.00    +0.000 C 
BRANCH  24  25
ATOM     25  N   UNL     1      -0.069   0.971   0.000  0.00  0.00    +0.000 NA
ATOM     26  C   UNL     1      -0.801   0.591   0.000  0.00  0.00    +0.000 C 
ATOM     27  C   UNL     1      -0.204   1.785   0.000  0.00  0.00    +0.000 C 
ATOM     28  C   UNL     1      -1.389   1.170   0.000  0.00  0.00    +0.000 C 
ATOM     29  C   UNL     1      -1.020   1.908   0.000  0.00  0.00    +0.000 C 
ENDBRANCH  24  25
ENDBRANCH   1  24
TORSDOF 11
