REMARK  Name = 
REMARK  7 active torsions:
REMARK  status: ('A' for Active; 'I' for Inactive)
REMARK    1  A    between atoms: C_1  and  C_4
REMARK    2  A    between atoms: N_2  and  C_4
REMARK    3  A    between atoms: N_2  and  C_7
REMARK    4  A    between atoms: O_6  and  C_8
REMARK    5  A    between atoms: O_6  and  C_12
REMARK    6  A    between atoms: C_7  and  C_9
REMARK    7  A    between atoms: C_12  and  C_13
REMARK                            x       y       z     vdW  Elec       q    Type
REMARK                         _______ _______ _______ _____ _____    ______ ____
ROOT
ATOM      1  C   UNL     1      -0.356  -0.212   0.000  0.00  0.00    +0.000 A 
ATOM      2  C   UNL     1       1.069   0.613   0.000  0.00  0.00    +0.000 A 
ATOM      3  C   UNL     1      -0.356   0.613   0.000  0.00  0.00    +0.000 A 
ATOM      4  C   UNL     1       0.356  -0.625   0.000  0.00  0.00    +0.000 A 
ATOM      5  C   UNL     1       0.356   1.025   0.000  0.00  0.00    +0.000 A 
ATOM      6  C   UNL     1       1.069  -0.212   0.000  0.00  0.00    +0.000 A 
ENDROOT
BRANCH   2   7
ATOM      7  C   UNL     1       1.781   1.029   0.000  0.00  0.00    +0.000 C 
BRANCH   7   8
ATOM      8  N   UNL     1       2.502   0.625   0.000  0.00  0.00    +0.000 NA
BRANCH   8   9
ATOM      9  C   UNL     1       3.215   1.038   0.000  0.00  0.00    +0.000 C 
ATOM     10  C   UNL     1       3.207   1.863   0.000  0.00  0.00    +0.000 C 
BRANCH   9  11
ATOM     11  C   UNL     1       3.932   0.625   0.000  0.00  0.00    +0.000 C 
ATOM     12  O   UNL     1       3.932  -0.200   0.000  0.00  0.00    +0.000 OA
ATOM     13  N   UNL     1       4.644   1.042   0.000  0.00  0.00    +0.000 NA
ENDBRANCH   9  11
ENDBRANCH   8   9
ENDBRANCH   7   8
ENDBRANCH   2   7
BRANCH   1  14
ATOM     14  O   UNL     1      -1.073  -0.625   0.000  0.00  0.00    +0.000 OA
BRANCH  14  15
ATOM     15  C   UNL     1      -1.786  -0.212   0.000  0.00  0.00    +0.000 C 
BRANCH  15  18
ATOM     16  C   UNL     1      -3.219  -0.212   0.000  0.00  0.00    +0.000 A 
ATOM     17  C   UNL     1      -3.932  -0.625   0.000  0.00  0.00    +0.000 A 
ATOM     18  C   UNL     1      -2.506  -0.625   0.000  0.00  0.00    +0.000 A 
ATOM     19  F   UNL     1      -4.644  -0.208   0.000  0.00  0.00    +0.000 F 
ATOM     20  C   UNL     1      -3.211  -1.863   0.000  0.00  0.00    +0.000 A 
ATOM     21  C   UNL     1      -3.932  -1.450   0.000  0.00  0.00    +0.000 A 
ATOM     22  C   UNL     1      -2.498  -1.450   0.000  0.00  0.00    +0.000 A 
ENDBRANCH  15  18
ENDBRANCH  14  15
ENDBRANCH   1  14
TORSDOF 7
