REMARK  Name = 
REMARK  10 active torsions:
REMARK  status: ('A' for Active; 'I' for Inactive)
REMARK    1  A    between atoms: C_2  and  C_4
REMARK    2  A    between atoms: C_4  and  C_5
REMARK    3  A    between atoms: C_5  and  C_6
REMARK    4  A    between atoms: C_5  and  C_12
REMARK    5  A    between atoms: C_6  and  C_7
REMARK    6  A    between atoms: N_14  and  C_15
REMARK    7  A    between atoms: C_15  and  C_16
REMARK    8  A    between atoms: C_15  and  C_22
REMARK    9  A    between atoms: C_22  and  O_24
REMARK   10  A    between atoms: O_24  and  C_25
REMARK                            x       y       z     vdW  Elec       q    Type
REMARK                         _______ _______ _______ _____ _____    ______ ____
ROOT
ATOM      1  C   UNL     1       0.715  -1.238   0.000  0.00  0.00    +0.000 C 
ENDROOT
BRANCH   1   2
ATOM      2  C   UNL     1       0.715  -0.412   0.000  0.00  0.00    +0.000 A 
ATOM      3  C   UNL     1       0.000   0.000   0.000  0.00  0.00    +0.000 A 
ATOM      4  C   UNL     1       0.000   0.825   0.000  0.00  0.00    +0.000 A 
ATOM      5  C   UNL     1       0.715   1.238   0.000  0.00  0.00    +0.000 A 
ATOM      6  C   UNL     1       1.429   0.825   0.000  0.00  0.00    +0.000 A 
ATOM      7  C   UNL     1       1.429   0.000   0.000  0.00  0.00    +0.000 A 
ENDBRANCH   1   2
BRANCH   1  10
ATOM      8  C   UNL     1      -0.715  -1.238   0.000  0.00  0.00    +0.000 C 
ATOM      9  O   UNL     1      -0.715  -0.412   0.000  0.00  0.00    +0.000 OA
ATOM     10  N   UNL     1       0.000  -1.650   0.000  0.00  0.00    +0.000 NA
BRANCH   8  11
ATOM     11  C   UNL     1      -1.429  -1.650   0.000  0.00  0.00    +0.000 C 
BRANCH  11  12
ATOM     12  C   UNL     1      -2.143  -1.238   0.000  0.00  0.00    +0.000 C 
ATOM     13  O   UNL     1      -2.143  -0.412   0.000  0.00  0.00    +0.000 OA
BRANCH  12  14
ATOM     14  C   UNL     1      -2.858  -1.650   0.000  0.00  0.00    +0.000 C 
ATOM     15  O   UNL     1      -2.858  -2.475   0.000  0.00  0.00    +0.000 OA
ATOM     16  N   UNL     1      -3.572  -1.238   0.000  0.00  0.00    +0.000 NA
ATOM     17  O   UNL     1      -4.287  -1.650   0.000  0.00  0.00    +0.000 OA
ENDBRANCH  12  14
ENDBRANCH  11  12
BRANCH  11  18
ATOM     18  C   UNL     1      -1.429  -2.475   0.000  0.00  0.00    +0.000 C 
BRANCH  18  20
ATOM     19  C   UNL     1      -0.715  -3.712   0.000  0.00  0.00    +0.000 C 
ATOM     20  C   UNL     1      -0.715  -2.888   0.000  0.00  0.00    +0.000 C 
ATOM     21  C   UNL     1       0.000  -2.475   0.000  0.00  0.00    +0.000 C 
ENDBRANCH  18  20
ENDBRANCH  11  18
ENDBRANCH   8  11
ENDBRANCH   1  10
BRANCH   1  22
ATOM     22  C   UNL     1       1.429  -1.650   0.000  0.00  0.00    +0.000 C 
ATOM     23  O   UNL     1       1.429  -2.475   0.000  0.00  0.00    +0.000 OA
BRANCH  22  24
ATOM     24  O   UNL     1       2.143  -1.238   0.000  0.00  0.00    +0.000 OA
BRANCH  24  25
ATOM     25  C   UNL     1       2.858  -1.650   0.000  0.00  0.00    +0.000 C 
ATOM     26  C   UNL     1       3.612  -1.314   0.000  0.00  0.00    +0.000 C 
ATOM     27  C   UNL     1       4.164  -1.927   0.000  0.00  0.00    +0.000 C 
ATOM     28  C   UNL     1       3.751  -2.642   0.000  0.00  0.00    +0.000 C 
ATOM     29  C   UNL     1       2.944  -2.470   0.000  0.00  0.00    +0.000 C 
ENDBRANCH  24  25
ENDBRANCH  22  24
ENDBRANCH   1  22
TORSDOF 10
