REMARK  Name = 
REMARK  6 active torsions:
REMARK  status: ('A' for Active; 'I' for Inactive)
REMARK    1  A    between atoms: C_7  and  C_40
REMARK    2  A    between atoms: C_9  and  O_10
REMARK    3  A    between atoms: O_10  and  C_11
REMARK    4  A    between atoms: C_20  and  O_21
REMARK    5  A    between atoms: O_21  and  C_22
REMARK    6  A    between atoms: C_25  and  C_27
REMARK                            x       y       z     vdW  Elec       q    Type
REMARK                         _______ _______ _______ _____ _____    ______ ____
ROOT
ATOM      1  O   UNL     1       0.000  -0.825   0.000  0.00  0.00    +0.000 OA
ATOM      2  S   UNL     1       0.000   0.000   0.000  0.00  0.00    +0.000 S 
ATOM      3  O   UNL     1       0.000   0.825   0.000  0.00  0.00    +0.000 OA
ATOM      4  O   UNL     1       0.825   0.000   0.000  0.00  0.00    +0.000 OA
ATOM      5  O   UNL     1      -0.825   0.000   0.000  0.00  0.00    +0.000 OA
ENDROOT
TORSDOF 0
REMARK  Name = 
REMARK  6 active torsions:
REMARK  status: ('A' for Active; 'I' for Inactive)
REMARK    1  A    between atoms: C_7  and  C_40
REMARK    2  A    between atoms: C_9  and  O_10
REMARK    3  A    between atoms: O_10  and  C_11
REMARK    4  A    between atoms: C_20  and  O_21
REMARK    5  A    between atoms: O_21  and  C_22
REMARK    6  A    between atoms: C_25  and  C_27
REMARK                            x       y       z     vdW  Elec       q    Type
REMARK                         _______ _______ _______ _____ _____    ______ ____
ROOT
ATOM      1  C   UNL     1       5.881   0.611   0.000  0.00  0.00    +0.000 C 
ATOM      2  C   UNL     1       6.216   1.365   0.000  0.00  0.00    +0.000 C 
ATOM      3  O   UNL     1       5.731   2.032   0.000  0.00  0.00    +0.000 OA
ATOM      4  C   UNL     1       7.037   1.451   0.000  0.00  0.00    +0.000 C 
ATOM      5  N   UNL     1       7.372   2.205   0.000  0.00  0.00    +0.000 NA
ATOM      6  C   UNL     1       7.522   0.784   0.000  0.00  0.00    +0.000 C 
ATOM      7  C   UNL     1       7.186   0.030   0.000  0.00  0.00    +0.000 C 
ATOM      8  N   UNL     1       7.671  -0.637   0.000  0.00  0.00    +0.000 NA
ATOM      9  C   UNL     1       6.366  -0.056   0.000  0.00  0.00    +0.000 C 
ENDROOT
BRANCH   1  10
ATOM     10  O   UNL     1       5.060   0.525   0.000  0.00  0.00    +0.000 OA
BRANCH  10  13
ATOM     11  C   UNL     1       4.163   2.462   0.000  0.00  0.00    +0.000 C 
ATOM     12  O   UNL     1       4.830   1.977   0.000  0.00  0.00    +0.000 OA
ATOM     13  C   UNL     1       4.575   1.192   0.000  0.00  0.00    +0.000 C 
ATOM     14  C   UNL     1       3.750   1.192   0.000  0.00  0.00    +0.000 C 
ATOM     15  O   UNL     1       3.265   0.525   0.000  0.00  0.00    +0.000 OA
ATOM     16  C   UNL     1       3.495   1.977   0.000  0.00  0.00    +0.000 C 
ATOM     17  O   UNL     1       2.711   2.232   0.000  0.00  0.00    +0.000 OA
BRANCH  11  18
ATOM     18  C   UNL     1       4.163   3.287   0.000  0.00  0.00    +0.000 C 
ATOM     19  C   UNL     1       4.877   3.700   0.000  0.00  0.00    +0.000 C 
ATOM     20  N   UNL     1       3.448   3.700   0.000  0.00  0.00    +0.000 NA
ENDBRANCH  11  18
ENDBRANCH  10  13
ENDBRANCH   1  10
BRANCH   9  21
ATOM     21  O   UNL     1       6.030  -0.810   0.000  0.00  0.00    +0.000 OA
BRANCH  21  22
ATOM     22  C   UNL     1       6.515  -1.477   0.000  0.00  0.00    +0.000 C 
ATOM     23  O   UNL     1       7.335  -1.391   0.000  0.00  0.00    +0.000 OA
ATOM     24  C   UNL     1       7.820  -2.058   0.000  0.00  0.00    +0.000 C 
ATOM     25  C   UNL     1       7.485  -2.812   0.000  0.00  0.00    +0.000 C 
ATOM     26  O   UNL     1       7.970  -3.480   0.000  0.00  0.00    +0.000 OA
ATOM     27  C   UNL     1       6.664  -2.898   0.000  0.00  0.00    +0.000 C 
ATOM     28  O   UNL     1       6.329  -3.652   0.000  0.00  0.00    +0.000 OA
ATOM     29  C   UNL     1       6.179  -2.231   0.000  0.00  0.00    +0.000 C 
ATOM     30  N   UNL     1       5.359  -2.317   0.000  0.00  0.00    +0.000 NA
BRANCH  24  31
ATOM     31  C   UNL     1       8.641  -1.972   0.000  0.00  0.00    +0.000 C 
ATOM     32  C   UNL     1       9.126  -2.640   0.000  0.00  0.00    +0.000 C 
ATOM     33  O   UNL     1       8.976  -1.219   0.000  0.00  0.00    +0.000 OA
ENDBRANCH  24  31
ENDBRANCH  21  22
ENDBRANCH   9  21
TORSDOF 6
