REMARK  Name = 
REMARK  9 active torsions:
REMARK  status: ('A' for Active; 'I' for Inactive)
REMARK    1  A    between atoms: C_1  and  O_7
REMARK    2  A    between atoms: C_3  and  C_15
REMARK    3  A    between atoms: O_7  and  C_8
REMARK    4  A    between atoms: C_11  and  O_14
REMARK    5  A    between atoms: O_14  and  C_23
REMARK    6  A    between atoms: C_15  and  C_16
REMARK    7  A    between atoms: C_16  and  O_20
REMARK    8  A    between atoms: C_17  and  O_18
REMARK    9  A    between atoms: C_24  and  C_29
REMARK                            x       y       z     vdW  Elec       q    Type
REMARK                         _______ _______ _______ _____ _____    ______ ____
ROOT
ATOM      1  O   UNL     1       0.714  -1.238   0.000  0.00  0.00    +0.000 OA
ENDROOT
BRANCH   1   2
ATOM      2  C   UNL     1       0.000  -0.825   0.000  0.00  0.00    +0.000 A 
ATOM      3  C   UNL     1       0.000  -0.000   0.000  0.00  0.00    +0.000 A 
ATOM      4  C   UNL     1      -0.715  -1.238   0.000  0.00  0.00    +0.000 A 
ATOM      5  C   UNL     1      -0.715   0.412   0.000  0.00  0.00    +0.000 A 
ATOM      6  C   UNL     1      -1.429  -0.825   0.000  0.00  0.00    +0.000 A 
ATOM      7  C   UNL     1      -1.429  -0.000   0.000  0.00  0.00    +0.000 A 
BRANCH   4   8
ATOM      8  C   UNL     1      -0.714  -2.063   0.000  0.00  0.00    +0.000 C 
ATOM      9  C   UNL     1      -1.429  -2.475   0.000  0.00  0.00    +0.000 C 
BRANCH   8  10
ATOM     10  C   UNL     1       0.000  -2.475   0.000  0.00  0.00    +0.000 C 
ATOM     11  O   UNL     1       0.000  -3.300   0.000  0.00  0.00    +0.000 OA
BRANCH  10  12
ATOM     12  O   UNL     1       0.715  -2.063   0.000  0.00  0.00    +0.000 OA
ATOM     13  C   UNL     1       1.429  -2.475   0.000  0.00  0.00    +0.000 C 
ENDBRANCH  10  12
ENDBRANCH   8  10
BRANCH   9  14
ATOM     14  O   UNL     1      -2.143  -2.063   0.000  0.00  0.00    +0.000 OA
ATOM     15  C   UNL     1      -2.858  -2.475   0.000  0.00  0.00    +0.000 C 
ENDBRANCH   9  14
ENDBRANCH   4   8
ENDBRANCH   1   2
BRANCH   1  16
ATOM     16  C   UNL     1       1.429  -0.825   0.000  0.00  0.00    +0.000 A 
ATOM     17  C   UNL     1       1.429  -0.000   0.000  0.00  0.00    +0.000 A 
ATOM     18  N   UNL     1       2.143  -1.238   0.000  0.00  0.00    +0.000 NA
ATOM     19  C   UNL     1       2.143   0.412   0.000  0.00  0.00    +0.000 A 
ATOM     20  C   UNL     1       2.858  -0.825   0.000  0.00  0.00    +0.000 A 
ATOM     21  N   UNL     1       2.858  -0.000   0.000  0.00  0.00    +0.000 NA
BRANCH  19  22
ATOM     22  O   UNL     1       2.143   1.237   0.000  0.00  0.00    +0.000 OA
BRANCH  22  23
ATOM     23  C   UNL     1       1.429   1.650   0.000  0.00  0.00    +0.000 A 
ATOM     24  C   UNL     1       1.429   2.475   0.000  0.00  0.00    +0.000 A 
ATOM     25  C   UNL     1       0.715   1.237   0.000  0.00  0.00    +0.000 A 
ATOM     26  C   UNL     1       0.714   2.887   0.000  0.00  0.00    +0.000 A 
ATOM     27  C   UNL     1       0.000   1.650   0.000  0.00  0.00    +0.000 A 
ATOM     28  C   UNL     1      -0.000   2.474   0.000  0.00  0.00    +0.000 A 
BRANCH  24  29
ATOM     29  C   UNL     1       2.143   2.887   0.000  0.00  0.00    +0.000 C 
ATOM     30  N   UNL     1       2.858   3.300   0.000  0.00  0.00    +0.000 NA
ENDBRANCH  24  29
ENDBRANCH  22  23
ENDBRANCH  19  22
ENDBRANCH   1  16
TORSDOF 9
