REMARK  Name = 
REMARK  4 active torsions:
REMARK  status: ('A' for Active; 'I' for Inactive)
REMARK    1  A    between atoms: C_1  and  C_2
REMARK    2  A    between atoms: C_1  and  C_3
REMARK    3  A    between atoms: C_1  and  S_4
REMARK    4  A    between atoms: C_2  and  C_5
REMARK                            x       y       z     vdW  Elec       q    Type
REMARK                         _______ _______ _______ _____ _____    ______ ____
ROOT
ATOM      1  C   UNL     1      -0.216   0.002   0.000  0.00  0.00    +0.000 C 
ENDROOT
BRANCH   1   2
ATOM      2  C   UNL     1      -0.926  -0.407   0.000  0.00  0.00    +0.000 C 
ATOM      3  O   UNL     1      -0.926  -1.243   0.000  0.00  0.00    +0.000 OA
ATOM      4  O   UNL     1      -1.678  -0.011   0.000  0.00  0.00    +0.000 OA
ENDBRANCH   1   2
BRANCH   1   5
ATOM      5  S   UNL     1      -0.216   0.832   0.000  0.00  0.00    +0.000 S 
ATOM      6 AU   UNL     1      -1.016   1.243   0.000  0.00  0.00    +0.000 Au
ENDBRANCH   1   5
BRANCH   1   7
ATOM      7  C   UNL     1       0.517  -0.407   0.000  0.00  0.00    +0.000 C 
BRANCH   7   8
ATOM      8  C   UNL     1       1.203   0.021   0.000  0.00  0.00    +0.000 C 
ATOM      9  O   UNL     1       1.203   0.892   0.000  0.00  0.00    +0.000 OA
ATOM     10  O   UNL     1       1.881  -0.340   0.000  0.00  0.00    +0.000 OA
ENDBRANCH   7   8
ENDBRANCH   1   7
TORSDOF 4
REMARK  Name = 
REMARK  4 active torsions:
REMARK  status: ('A' for Active; 'I' for Inactive)
REMARK    1  A    between atoms: C_1  and  C_2
REMARK    2  A    between atoms: C_1  and  C_3
REMARK    3  A    between atoms: C_1  and  S_4
REMARK    4  A    between atoms: C_2  and  C_5
REMARK                            x       y       z     vdW  Elec       q    Type
REMARK                         _______ _______ _______ _____ _____    ______ ____
ROOT
ATOM      1 NA   UNL     1       1.034  -0.991   0.000  0.00  0.00    +0.000 Na
ENDROOT
TORSDOF 0
REMARK  Name = 
REMARK  4 active torsions:
REMARK  status: ('A' for Active; 'I' for Inactive)
REMARK    1  A    between atoms: C_1  and  C_2
REMARK    2  A    between atoms: C_1  and  C_3
REMARK    3  A    between atoms: C_1  and  S_4
REMARK    4  A    between atoms: C_2  and  C_5
REMARK                            x       y       z     vdW  Elec       q    Type
REMARK                         _______ _______ _______ _____ _____    ______ ____
ROOT
ATOM      1 NA   UNL     1      -1.881  -0.791   0.000  0.00  0.00    +0.000 Na
ENDROOT
TORSDOF 0
