REMARK  Name = 
REMARK  4 active torsions:
REMARK  status: ('A' for Active; 'I' for Inactive)
REMARK    1  A    between atoms: C_2  and  C_3
REMARK    2  A    between atoms: C_3  and  N_4
REMARK    3  A    between atoms: C_7  and  C_10
REMARK    4  A    between atoms: C_14  and  S_16
REMARK                            x       y       z     vdW  Elec       q    Type
REMARK                         _______ _______ _______ _____ _____    ______ ____
ROOT
ATOM      1  C   UNL     1       0.715  -3.712   0.000  0.00  0.00    +0.000 A 
ATOM      2  C   UNL     1       1.429  -4.125   0.000  0.00  0.00    +0.000 A 
ATOM      3  C   UNL     1       1.429  -4.950   0.000  0.00  0.00    +0.000 A 
ATOM      4  C   UNL     1       0.715  -5.362   0.000  0.00  0.00    +0.000 A 
ATOM      5  C   UNL     1       0.000  -4.950   0.000  0.00  0.00    +0.000 A 
ATOM      6  C   UNL     1       0.000  -4.125   0.000  0.00  0.00    +0.000 A 
ENDROOT
BRANCH   1  10
ATOM      7  N   UNL     1       0.715  -1.238   0.000  0.00  0.00    +0.000 NA
ATOM      8  C   UNL     1       1.429  -1.650   0.000  0.00  0.00    +0.000 C 
ATOM      9  C   UNL     1       1.429  -2.475   0.000  0.00  0.00    +0.000 C 
ATOM     10  C   UNL     1       0.715  -2.888   0.000  0.00  0.00    +0.000 C 
ATOM     11  C   UNL     1       0.000  -2.475   0.000  0.00  0.00    +0.000 C 
ATOM     12  C   UNL     1       0.000  -1.650   0.000  0.00  0.00    +0.000 C 
BRANCH   7  13
ATOM     13  C   UNL     1       0.715  -0.412   0.000  0.00  0.00    +0.000 C 
BRANCH  13  15
ATOM     14  C   UNL     1       0.000   0.825   0.000  0.00  0.00    +0.000 C 
ATOM     15  C   UNL     1       0.000   0.000   0.000  0.00  0.00    +0.000 C 
ENDBRANCH  13  15
ENDBRANCH   7  13
ENDBRANCH   1  10
BRANCH   5  16
ATOM     16  S   UNL     1      -0.715  -5.362   0.000  0.00  0.00    +0.000 S 
ATOM     17  O   UNL     1      -1.429  -5.775   0.000  0.00  0.00    +0.000 OA
ATOM     18  O   UNL     1      -1.127  -4.648   0.000  0.00  0.00    +0.000 OA
ATOM     19  C   UNL     1      -0.302  -6.077   0.000  0.00  0.00    +0.000 C 
ENDBRANCH   5  16
TORSDOF 4
