REMARK  Name = 
REMARK  6 active torsions:
REMARK  status: ('A' for Active; 'I' for Inactive)
REMARK    1  A    between atoms: N_7  and  N_8
REMARK    2  A    between atoms: C_9  and  C_11
REMARK    3  A    between atoms: C_12  and  N_13
REMARK    4  A    between atoms: C_16  and  C_18
REMARK    5  A    between atoms: C_20  and  C_28
REMARK    6  A    between atoms: C_22  and  C_24
REMARK                            x       y       z     vdW  Elec       q    Type
REMARK                         _______ _______ _______ _____ _____    ______ ____
ROOT
ATOM      1  N   UNL     1       0.715  -1.238   0.000  0.00  0.00    +0.000 N 
ATOM      2  C   UNL     1       1.382  -1.722   0.000  0.00  0.00    +0.000 A 
ATOM      3  N   UNL     1       1.127  -2.507   0.000  0.00  0.00    +0.000 NA
ATOM      4  C   UNL     1       0.302  -2.507   0.000  0.00  0.00    +0.000 A 
ATOM      5  N   UNL     1       0.047  -1.722   0.000  0.00  0.00    +0.000 NA
ENDROOT
BRANCH   4   6
ATOM      6  C   UNL     1      -0.183  -3.175   0.000  0.00  0.00    +0.000 A 
ATOM      7  C   UNL     1       0.153  -3.928   0.000  0.00  0.00    +0.000 A 
ATOM      8  C   UNL     1      -0.332  -4.596   0.000  0.00  0.00    +0.000 A 
ATOM      9  C   UNL     1      -1.153  -4.509   0.000  0.00  0.00    +0.000 A 
ATOM     10  C   UNL     1      -1.488  -3.756   0.000  0.00  0.00    +0.000 A 
ATOM     11  C   UNL     1      -1.003  -3.088   0.000  0.00  0.00    +0.000 A 
BRANCH  10  12
ATOM     12  C   UNL     1      -2.309  -3.670   0.000  0.00  0.00    +0.000 C 
ATOM     13  F   UNL     1      -3.129  -3.583   0.000  0.00  0.00    +0.000 F 
ATOM     14  F   UNL     1      -2.223  -2.849   0.000  0.00  0.00    +0.000 F 
ATOM     15  F   UNL     1      -2.395  -4.490   0.000  0.00  0.00    +0.000 F 
ENDBRANCH  10  12
BRANCH   8  16
ATOM     16  C   UNL     1       0.003  -5.349   0.000  0.00  0.00    +0.000 C 
ATOM     17  F   UNL     1       0.339  -6.103   0.000  0.00  0.00    +0.000 F 
ATOM     18  F   UNL     1      -0.750  -5.685   0.000  0.00  0.00    +0.000 F 
ATOM     19  F   UNL     1       0.757  -5.014   0.000  0.00  0.00    +0.000 F 
ENDBRANCH   8  16
ENDBRANCH   4   6
BRANCH   1  21
ATOM     20  C   UNL     1       1.429   0.000   0.000  0.00  0.00    +0.000 C 
ATOM     21  C   UNL     1       0.715  -0.412   0.000  0.00  0.00    +0.000 C 
BRANCH  20  23
ATOM     22  N   UNL     1       2.858   0.000   0.000  0.00  0.00    +0.000 NA
ATOM     23  C   UNL     1       2.143  -0.412   0.000  0.00  0.00    +0.000 C 
ATOM     24  O   UNL     1       2.143  -1.238   0.000  0.00  0.00    +0.000 OA
BRANCH  22  31
ATOM     25  C   UNL     1       5.716   0.825   0.000  0.00  0.00    +0.000 A 
ATOM     26  C   UNL     1       5.716   0.000   0.000  0.00  0.00    +0.000 A 
ATOM     27  N   UNL     1       5.001  -0.412   0.000  0.00  0.00    +0.000 NA
ATOM     28  C   UNL     1       4.287   0.000   0.000  0.00  0.00    +0.000 A 
ATOM     29  C   UNL     1       4.287   0.825   0.000  0.00  0.00    +0.000 A 
ATOM     30  N   UNL     1       5.001   1.238   0.000  0.00  0.00    +0.000 NA
ATOM     31  N   UNL     1       3.572  -0.412   0.000  0.00  0.00    +0.000 NA
ENDBRANCH  22  31
ENDBRANCH  20  23
ENDBRANCH   1  21
TORSDOF 6
