REMARK  Name = 
REMARK  7 active torsions:
REMARK  status: ('A' for Active; 'I' for Inactive)
REMARK    1  A    between atoms: C_2  and  C_5
REMARK    2  A    between atoms: C_5  and  C_7
REMARK    3  A    between atoms: C_7  and  N_8
REMARK    4  A    between atoms: C_15  and  C_32
REMARK    5  A    between atoms: C_17  and  N_20
REMARK    6  A    between atoms: N_23  and  C_24
REMARK    7  A    between atoms: C_28  and  N_30
REMARK                            x       y       z     vdW  Elec       q    Type
REMARK                         _______ _______ _______ _____ _____    ______ ____
ROOT
ATOM      1  N   UNL     1       0.645  -0.514   0.000  0.00  0.00    +0.000 N 
ATOM      2  C   UNL     1       0.000   0.000   0.000  0.00  0.00    +0.000 A 
ATOM      3  C   UNL     1      -0.715  -0.412   0.000  0.00  0.00    +0.000 A 
ATOM      4  C   UNL     1      -1.429   0.000   0.000  0.00  0.00    +0.000 A 
ATOM      5  C   UNL     1      -1.429   0.825   0.000  0.00  0.00    +0.000 A 
ATOM      6  C   UNL     1      -0.715   1.238   0.000  0.00  0.00    +0.000 A 
ATOM      7  C   UNL     1       0.000   0.825   0.000  0.00  0.00    +0.000 A 
ATOM      8  C   UNL     1       0.645   1.339   0.000  0.00  0.00    +0.000 C 
ATOM      9  N   UNL     1       1.449   1.156   0.000  0.00  0.00    +0.000 NA
ATOM     10  C   UNL     1       1.807   0.412   0.000  0.00  0.00    +0.000 C 
ATOM     11  C   UNL     1       1.449  -0.331   0.000  0.00  0.00    +0.000 C 
ATOM     12  O   UNL     1       1.964  -0.976   0.000  0.00  0.00    +0.000 OA
ENDROOT
BRANCH   8  13
ATOM     13  C   UNL     1       0.461   2.144   0.000  0.00  0.00    +0.000 A 
ATOM     14  C   UNL     1      -0.327   2.387   0.000  0.00  0.00    +0.000 A 
ATOM     15  C   UNL     1      -0.510   3.191   0.000  0.00  0.00    +0.000 A 
ATOM     16  C   UNL     1       0.094   3.752   0.000  0.00  0.00    +0.000 A 
ATOM     17  C   UNL     1       0.883   3.509   0.000  0.00  0.00    +0.000 A 
ATOM     18  N   UNL     1       1.066   2.705   0.000  0.00  0.00    +0.000 NA
ENDBRANCH   8  13
BRANCH  10  19
ATOM     19  N   UNL     1       2.632   0.412   0.000  0.00  0.00    +0.000 NA
ATOM     20  C   UNL     1       3.045   1.127   0.000  0.00  0.00    +0.000 C 
ATOM     21  O   UNL     1       2.632   1.841   0.000  0.00  0.00    +0.000 OA
ATOM     22  N   UNL     1       3.870   1.127   0.000  0.00  0.00    +0.000 NA
BRANCH  22  23
ATOM     23  C   UNL     1       4.282   1.841   0.000  0.00  0.00    +0.000 A 
ATOM     24  C   UNL     1       3.870   2.556   0.000  0.00  0.00    +0.000 A 
ATOM     25  C   UNL     1       4.282   3.270   0.000  0.00  0.00    +0.000 A 
ATOM     26  C   UNL     1       5.107   3.270   0.000  0.00  0.00    +0.000 A 
ATOM     27  C   UNL     1       5.520   2.556   0.000  0.00  0.00    +0.000 A 
ATOM     28  C   UNL     1       5.107   1.841   0.000  0.00  0.00    +0.000 A 
BRANCH  27  29
ATOM     29  N   UNL     1       6.345   2.556   0.000  0.00  0.00    +0.000 NA
ATOM     30  C   UNL     1       6.757   3.270   0.000  0.00  0.00    +0.000 C 
ENDBRANCH  27  29
ENDBRANCH  22  23
ENDBRANCH  10  19
BRANCH   1  31
ATOM     31  C   UNL     1       0.461  -1.319   0.000  0.00  0.00    +0.000 C 
BRANCH  31  32
ATOM     32  C   UNL     1      -0.327  -1.562   0.000  0.00  0.00    +0.000 C 
ATOM     33  O   UNL     1      -0.932  -1.001   0.000  0.00  0.00    +0.000 OA
BRANCH  32  35
ATOM     34  C   UNL     1      -0.694  -3.171   0.000  0.00  0.00    +0.000 C 
ATOM     35  C   UNL     1      -0.510  -2.366   0.000  0.00  0.00    +0.000 C 
ATOM     36  C   UNL     1       0.294  -2.550   0.000  0.00  0.00    +0.000 C 
ATOM     37  C   UNL     1      -1.315  -2.183   0.000  0.00  0.00    +0.000 C 
ENDBRANCH  32  35
ENDBRANCH  31  32
ENDBRANCH   1  31
TORSDOF 7
