REMARK  Name = 
REMARK  6 active torsions:
REMARK  status: ('A' for Active; 'I' for Inactive)
REMARK    1  A    between atoms: N_2  and  C_3
REMARK    2  A    between atoms: N_2  and  C_22
REMARK    3  A    between atoms: C_3  and  C_4
REMARK    4  A    between atoms: C_9  and  O_20
REMARK    5  A    between atoms: C_13  and  C_14
REMARK    6  A    between atoms: C_22  and  C_23
REMARK                            x       y       z     vdW  Elec       q    Type
REMARK                         _______ _______ _______ _____ _____    ______ ____
ROOT
ATOM      1  C   UNL     1       1.429  -2.475   0.000  0.00  0.00    +0.000 C 
ATOM      2  C   UNL     1       1.429  -3.300   0.000  0.00  0.00    +0.000 C 
ATOM      3  C   UNL     1       0.715  -3.712   0.000  0.00  0.00    +0.000 C 
ATOM      4  C   UNL     1       0.000  -3.300   0.000  0.00  0.00    +0.000 A 
ATOM      5  C   UNL     1      -0.715  -3.712   0.000  0.00  0.00    +0.000 A 
ATOM      6  C   UNL     1      -1.429  -3.300   0.000  0.00  0.00    +0.000 A 
ATOM      7  C   UNL     1      -1.429  -2.475   0.000  0.00  0.00    +0.000 A 
ATOM      8  C   UNL     1      -0.715  -2.062   0.000  0.00  0.00    +0.000 A 
ATOM      9  C   UNL     1       0.000  -2.475   0.000  0.00  0.00    +0.000 A 
ATOM     10  C   UNL     1       0.715  -2.062   0.000  0.00  0.00    +0.000 C 
ENDROOT
BRANCH  10  11
ATOM     11  C   UNL     1       0.715  -1.238   0.000  0.00  0.00    +0.000 A 
ATOM     12  C   UNL     1       0.000  -0.825   0.000  0.00  0.00    +0.000 A 
ATOM     13  C   UNL     1       0.000   0.000   0.000  0.00  0.00    +0.000 A 
ATOM     14  C   UNL     1       0.715   0.412   0.000  0.00  0.00    +0.000 A 
ATOM     15  C   UNL     1       1.429   0.000   0.000  0.00  0.00    +0.000 A 
ATOM     16  C   UNL     1       1.429  -0.825   0.000  0.00  0.00    +0.000 A 
ENDBRANCH  10  11
BRANCH   6  17
ATOM     17  O   UNL     1      -2.143  -3.712   0.000  0.00  0.00    +0.000 OA
ATOM     18  C   UNL     1      -2.858  -3.300   0.000  0.00  0.00    +0.000 C 
ENDBRANCH   6  17
BRANCH   1  19
ATOM     19  C   UNL     1       2.143  -2.062   0.000  0.00  0.00    +0.000 C 
BRANCH  19  21
ATOM     20  C   UNL     1       2.858  -3.300   0.000  0.00  0.00    +0.000 C 
ATOM     21  N   UNL     1       2.858  -2.475   0.000  0.00  0.00    +0.000 NA
BRANCH  21  22
ATOM     22  C   UNL     1       3.572  -2.062   0.000  0.00  0.00    +0.000 C 
BRANCH  22  23
ATOM     23  C   UNL     1       4.287  -2.475   0.000  0.00  0.00    +0.000 C 
ATOM     24  O   UNL     1       5.001  -2.062   0.000  0.00  0.00    +0.000 OA
ATOM     25  O   UNL     1       4.287  -3.300   0.000  0.00  0.00    +0.000 OA
ENDBRANCH  22  23
ENDBRANCH  21  22
ENDBRANCH  19  21
ENDBRANCH   1  19
TORSDOF 6
