REMARK  Name = 
REMARK  3 active torsions:
REMARK  status: ('A' for Active; 'I' for Inactive)
REMARK    1  A    between atoms: C_6  and  C_10
REMARK    2  A    between atoms: N_9  and  C_13
REMARK    3  A    between atoms: C_10  and  C_13
REMARK                            x       y       z     vdW  Elec       q    Type
REMARK                         _______ _______ _______ _____ _____    ______ ____
ROOT
ATOM      1  C   UNL     1      -0.285   0.113   0.000  0.00  0.00    +0.000 C 
ATOM      2  C   UNL     1      -1.001   0.440   0.000  0.00  0.00    +0.000 A 
ATOM      3  C   UNL     1       0.417   0.440   0.000  0.00  0.00    +0.000 A 
ATOM      4  S   UNL     1      -0.722   1.955   0.000  0.00  0.00    +0.000 S 
ATOM      5  C   UNL     1      -1.213   1.262   0.000  0.00  0.00    +0.000 A 
ATOM      6  C   UNL     1      -0.285  -0.709   0.000  0.00  0.00    +0.000 C 
ATOM      7  C   UNL     1       0.652   1.292   0.000  0.00  0.00    +0.000 A 
ATOM      8  C   UNL     1       0.179   1.955   0.000  0.00  0.00    +0.000 C 
ATOM      9  C   UNL     1       1.010  -0.117   0.000  0.00  0.00    +0.000 A 
ATOM     10  C   UNL     1      -1.597  -0.139   0.000  0.00  0.00    +0.000 A 
ATOM     11  C   UNL     1      -2.013   1.478   0.000  0.00  0.00    +0.000 A 
ATOM     12  C   UNL     1       1.434   1.500   0.000  0.00  0.00    +0.000 A 
ATOM     13  C   UNL     1       1.796   0.099   0.000  0.00  0.00    +0.000 A 
ATOM     14  C   UNL     1      -2.384   0.086   0.000  0.00  0.00    +0.000 A 
ATOM     15  C   UNL     1      -2.592   0.890   0.000  0.00  0.00    +0.000 A 
ATOM     16  C   UNL     1       2.017   0.904   0.000  0.00  0.00    +0.000 A 
ENDROOT
BRANCH   6  17
ATOM     17  C   UNL     1       0.444  -1.133   0.000  0.00  0.00    +0.000 C 
BRANCH  17  18
ATOM     18  C   UNL     1       1.155  -0.727   0.000  0.00  0.00    +0.000 C 
BRANCH  18  19
ATOM     19  N   UNL     1       1.863  -1.133   0.000  0.00  0.00    +0.000 NA
ATOM     20  C   UNL     1       2.592  -0.727   0.000  0.00  0.00    +0.000 C 
ATOM     21  C   UNL     1       1.863  -1.955   0.000  0.00  0.00    +0.000 C 
ENDBRANCH  18  19
ENDBRANCH  17  18
ENDBRANCH   6  17
TORSDOF 3
