REMARK  Name = 
REMARK  13 active torsions:
REMARK  status: ('A' for Active; 'I' for Inactive)
REMARK    1  A    between atoms: C_1  and  N_2
REMARK    2  A    between atoms: C_1  and  C_22
REMARK    3  A    between atoms: C_1  and  B_26
REMARK    4  A    between atoms: C_3  and  C_4
REMARK    5  A    between atoms: C_4  and  C_5
REMARK    6  A    between atoms: C_4  and  N_12
REMARK    7  A    between atoms: C_5  and  C_6
REMARK    8  A    between atoms: C_13  and  C_15
REMARK    9  A    between atoms: C_22  and  C_23
REMARK   10  A    between atoms: C_28  and  C_36
REMARK   11  A    between atoms: C_29  and  C_31
REMARK   12  A    between atoms: C_31  and  C_32
REMARK   13  A    between atoms: C_36  and  C_37
REMARK                            x       y       z     vdW  Elec       q    Type
REMARK                         _______ _______ _______ _____ _____    ______ ____
ROOT
ATOM      1  N   UNL     1      -0.178   0.131   0.000  0.00  0.00    +0.000 NA
ATOM      2  C   UNL     1       0.537   0.544   0.000  0.00  0.00    +0.000 C 
ATOM      3  O   UNL     1       0.537   1.369   0.000  0.00  0.00    +0.000 OA
ENDROOT
BRANCH   1   4
ATOM      4  C   UNL     1      -0.892   0.544   0.000  0.00  0.00    +0.000 C 
BRANCH   4   5
ATOM      5  B   UNL     1      -1.607   0.131   0.000  0.00  0.00    +0.000 B 
ATOM      6  O   UNL     1      -1.693  -0.689   0.000  0.00  0.00    +0.000 OA
ATOM      7  C   UNL     1      -2.500  -0.861   0.000  0.00  0.00    +0.000 C 
ATOM      8  C   UNL     1      -2.913  -0.146   0.000  0.00  0.00    +0.000 C 
ATOM      9  O   UNL     1      -2.361   0.467   0.000  0.00  0.00    +0.000 OA
BRANCH   7  10
ATOM     10  C   UNL     1      -3.184  -1.322   0.000  0.00  0.00    +0.000 C 
ATOM     11  O   UNL     1      -3.925  -0.960   0.000  0.00  0.00    +0.000 OA
BRANCH  10  12
ATOM     12  C   UNL     1      -3.126  -2.145   0.000  0.00  0.00    +0.000 C 
ATOM     13  O   UNL     1      -3.810  -2.606   0.000  0.00  0.00    +0.000 OA
ENDBRANCH  10  12
ENDBRANCH   7  10
BRANCH   8  14
ATOM     14  C   UNL     1      -3.465   0.467   0.000  0.00  0.00    +0.000 C 
ATOM     15  O   UNL     1      -3.210   1.252   0.000  0.00  0.00    +0.000 OA
BRANCH  14  16
ATOM     16  C   UNL     1      -4.271   0.295   0.000  0.00  0.00    +0.000 C 
ATOM     17  O   UNL     1      -4.824   0.908   0.000  0.00  0.00    +0.000 OA
ENDBRANCH  14  16
ENDBRANCH   8  14
ENDBRANCH   4   5
BRANCH   4  18
ATOM     18  C   UNL     1      -0.892   1.369   0.000  0.00  0.00    +0.000 C 
BRANCH  18  19
ATOM     19  C   UNL     1      -1.607   1.781   0.000  0.00  0.00    +0.000 C 
ATOM     20  C   UNL     1      -2.321   1.369   0.000  0.00  0.00    +0.000 C 
ATOM     21  C   UNL     1      -1.607   2.606   0.000  0.00  0.00    +0.000 C 
ENDBRANCH  18  19
ENDBRANCH   4  18
ENDBRANCH   1   4
BRANCH   2  22
ATOM     22  C   UNL     1       1.251   0.131   0.000  0.00  0.00    +0.000 C 
BRANCH  22  23
ATOM     23  N   UNL     1       1.966   0.544   0.000  0.00  0.00    +0.000 NA
ATOM     24  C   UNL     1       2.680   0.131   0.000  0.00  0.00    +0.000 C 
ATOM     25  O   UNL     1       2.680  -0.694   0.000  0.00  0.00    +0.000 OA
BRANCH  24  26
ATOM     26  C   UNL     1       3.395   0.544   0.000  0.00  0.00    +0.000 A 
ATOM     27  C   UNL     1       4.109   0.131   0.000  0.00  0.00    +0.000 A 
ATOM     28  N   UNL     1       4.824   0.544   0.000  0.00  0.00    +0.000 NA
ATOM     29  C   UNL     1       4.824   1.369   0.000  0.00  0.00    +0.000 A 
ATOM     30  C   UNL     1       4.109   1.781   0.000  0.00  0.00    +0.000 A 
ATOM     31  N   UNL     1       3.395   1.369   0.000  0.00  0.00    +0.000 NA
ENDBRANCH  24  26
ENDBRANCH  22  23
BRANCH  22  32
ATOM     32  C   UNL     1       1.251  -0.694   0.000  0.00  0.00    +0.000 C 
BRANCH  32  33
ATOM     33  C   UNL     1       0.537  -1.106   0.000  0.00  0.00    +0.000 A 
ATOM     34  C   UNL     1       0.537  -1.931   0.000  0.00  0.00    +0.000 A 
ATOM     35  C   UNL     1      -0.178  -2.344   0.000  0.00  0.00    +0.000 A 
ATOM     36  C   UNL     1      -0.892  -1.931   0.000  0.00  0.00    +0.000 A 
ATOM     37  C   UNL     1      -0.892  -1.106   0.000  0.00  0.00    +0.000 A 
ATOM     38  C   UNL     1      -0.178  -0.694   0.000  0.00  0.00    +0.000 A 
ENDBRANCH  32  33
ENDBRANCH  22  32
ENDBRANCH   2  22
TORSDOF 13
