REMARK  Name = 
REMARK  7 active torsions:
REMARK  status: ('A' for Active; 'I' for Inactive)
REMARK    1  A    between atoms: C_6  and  N_7
REMARK    2  A    between atoms: N_7  and  C_8
REMARK    3  A    between atoms: C_8  and  C_9
REMARK    4  A    between atoms: C_15  and  C_17
REMARK    5  A    between atoms: C_19  and  C_20
REMARK    6  A    between atoms: C_23  and  O_24
REMARK    7  A    between atoms: O_24  and  C_25
REMARK                            x       y       z     vdW  Elec       q    Type
REMARK                         _______ _______ _______ _____ _____    ______ ____
ROOT
ATOM      1  N   UNL     1       4.287  -1.650   0.000  0.00  0.00    +0.000 NA
ATOM      2  C   UNL     1       4.287  -2.475   0.000  0.00  0.00    +0.000 A 
ATOM      3  N   UNL     1       5.001  -2.888   0.000  0.00  0.00    +0.000 NA
ATOM      4  C   UNL     1       5.001  -3.712   0.000  0.00  0.00    +0.000 A 
ATOM      5  N   UNL     1       4.287  -4.125   0.000  0.00  0.00    +0.000 NA
ATOM      6  C   UNL     1       3.572  -3.712   0.000  0.00  0.00    +0.000 A 
ATOM      7  C   UNL     1       3.572  -2.888   0.000  0.00  0.00    +0.000 A 
ENDROOT
BRANCH   7   8
ATOM      8  C   UNL     1       2.858  -2.475   0.000  0.00  0.00    +0.000 A 
ATOM      9  C   UNL     1       2.143  -2.888   0.000  0.00  0.00    +0.000 A 
ATOM     10  C   UNL     1       1.429  -2.475   0.000  0.00  0.00    +0.000 A 
ATOM     11  C   UNL     1       1.429  -1.650   0.000  0.00  0.00    +0.000 A 
ATOM     12  C   UNL     1       2.143  -1.238   0.000  0.00  0.00    +0.000 A 
ATOM     13  C   UNL     1       2.858  -1.650   0.000  0.00  0.00    +0.000 A 
BRANCH  11  14
ATOM     14  O   UNL     1       0.715  -1.238   0.000  0.00  0.00    +0.000 OA
BRANCH  14  15
ATOM     15  C   UNL     1       0.715  -0.412   0.000  0.00  0.00    +0.000 A 
ATOM     16  C   UNL     1       0.000   0.000   0.000  0.00  0.00    +0.000 A 
ATOM     17  C   UNL     1       0.000   0.825   0.000  0.00  0.00    +0.000 A 
ATOM     18  C   UNL     1       0.715   1.238   0.000  0.00  0.00    +0.000 A 
ATOM     19  C   UNL     1       1.429   0.825   0.000  0.00  0.00    +0.000 A 
ATOM     20  C   UNL     1       1.429   0.000   0.000  0.00  0.00    +0.000 A 
ENDBRANCH  14  15
ENDBRANCH  11  14
ENDBRANCH   7   8
BRANCH   6  21
ATOM     21  N   UNL     1       2.858  -4.125   0.000  0.00  0.00    +0.000 NA
BRANCH  21  22
ATOM     22  C   UNL     1       2.858  -4.950   0.000  0.00  0.00    +0.000 C 
BRANCH  22  23
ATOM     23  C   UNL     1       3.572  -5.362   0.000  0.00  0.00    +0.000 C 
ATOM     24  C   UNL     1       4.287  -4.950   0.000  0.00  0.00    +0.000 C 
ATOM     25  C   UNL     1       5.001  -5.362   0.000  0.00  0.00    +0.000 C 
ATOM     26  N   UNL     1       5.001  -6.188   0.000  0.00  0.00    +0.000 N 
ATOM     27  C   UNL     1       4.287  -6.600   0.000  0.00  0.00    +0.000 C 
ATOM     28  C   UNL     1       3.572  -6.188   0.000  0.00  0.00    +0.000 C 
ATOM     29  C   UNL     1       5.716  -6.600   0.000  0.00  0.00    +0.000 C 
ATOM     30  O   UNL     1       6.430  -6.188   0.000  0.00  0.00    +0.000 OA
BRANCH  29  31
ATOM     31  C   UNL     1       5.716  -7.425   0.000  0.00  0.00    +0.000 C 
ATOM     32  C   UNL     1       6.430  -7.838   0.000  0.00  0.00    +0.000 C 
ENDBRANCH  29  31
ENDBRANCH  22  23
ENDBRANCH  21  22
ENDBRANCH   6  21
TORSDOF 7
