REMARK  Name = 
REMARK  2 active torsions:
REMARK  status: ('A' for Active; 'I' for Inactive)
REMARK    1  A    between atoms: C_9  and  C_13
REMARK    2  A    between atoms: C_11  and  C_13
REMARK                            x       y       z     vdW  Elec       q    Type
REMARK                         _______ _______ _______ _____ _____    ______ ____
ROOT
ATOM      1  C   UNL     1       0.005   0.420   0.000  0.00  0.00    +0.000 C 
ATOM      2  O   UNL     1       0.009   1.245   0.000  0.00  0.00    +0.000 OA
ENDROOT
BRANCH   1   8
ATOM      3  C   UNL     1       2.143  -0.827   0.000  0.00  0.00    +0.000 A 
ATOM      4  C   UNL     1       2.147  -0.002   0.000  0.00  0.00    +0.000 A 
ATOM      5  C   UNL     1       1.427  -1.236   0.000  0.00  0.00    +0.000 A 
ATOM      6  C   UNL     1       1.434   0.414   0.000  0.00  0.00    +0.000 A 
ATOM      7  C   UNL     1       0.714  -0.820   0.000  0.00  0.00    +0.000 A 
ATOM      8  C   UNL     1       0.718   0.005   0.000  0.00  0.00    +0.000 A 
ATOM      9  O   UNL     1       2.860  -1.245   0.000  0.00  0.00    +0.000 OA
ENDBRANCH   1   8
BRANCH   1  14
ATOM     10  C   UNL     1      -1.431  -1.223   0.000  0.00  0.00    +0.000 A 
ATOM     11  C   UNL     1      -0.715  -0.814   0.000  0.00  0.00    +0.000 A 
ATOM     12  C   UNL     1      -2.140   0.018   0.000  0.00  0.00    +0.000 A 
ATOM     13  C   UNL     1      -2.103  -0.807   0.000  0.00  0.00    +0.000 A 
ATOM     14  C   UNL     1      -0.711   0.011   0.000  0.00  0.00    +0.000 A 
ATOM     15  C   UNL     1      -1.424   0.427   0.000  0.00  0.00    +0.000 A 
ATOM     16  O   UNL     1      -2.860  -1.216   0.000  0.00  0.00    +0.000 OA
ENDBRANCH   1  14
TORSDOF 2
