REMARK  Name = 
REMARK  5 active torsions:
REMARK  status: ('A' for Active; 'I' for Inactive)
REMARK    1  A    between atoms: C_2  and  O_3
REMARK    2  A    between atoms: O_3  and  C_4
REMARK    3  A    between atoms: N_11  and  C_14
REMARK    4  A    between atoms: P_21  and  O_24
REMARK    5  A    between atoms: O_24  and  C_25
REMARK                            x       y       z     vdW  Elec       q    Type
REMARK                         _______ _______ _______ _____ _____    ______ ____
ROOT
ATOM      1  C   UNL     1      -0.628  -0.698   0.000  0.00  0.00    +0.000 C 
ATOM      2  C   UNL     1      -0.143  -1.365   0.000  0.00  0.00    +0.000 C 
ATOM      3  C   UNL     1       0.641  -1.110   0.000  0.00  0.00    +0.000 C 
ATOM      4  C   UNL     1       0.641  -0.285   0.000  0.00  0.00    +0.000 C 
ATOM      5  O   UNL     1      -0.143  -0.030   0.000  0.00  0.00    +0.000 OA
ATOM      6  C   UNL     1       1.356   0.127   0.000  0.00  0.00    +0.000 C 
ATOM      7  O   UNL     1       2.070  -0.285   0.000  0.00  0.00    +0.000 OA
ATOM      8  P   UNL     1       2.070  -1.110   0.000  0.00  0.00    +0.000 P 
ATOM      9  O   UNL     1       2.882  -0.967   0.000  0.00  0.00    +0.000 OA
ATOM     10  O   UNL     1       1.356  -1.523   0.000  0.00  0.00    +0.000 OA
ATOM     11  C   UNL     1      -0.751  -1.924   0.000  0.00  0.00    +0.000 C 
ATOM     12  F   UNL     1       0.020  -2.174   0.000  0.00  0.00    +0.000 F 
ENDROOT
BRANCH   1  20
ATOM     13  C   UNL     1      -3.336  -1.663   0.000  0.00  0.00    +0.000 A 
ATOM     14  C   UNL     1      -2.723  -1.110   0.000  0.00  0.00    +0.000 A 
ATOM     15  C   UNL     1      -1.938  -1.365   0.000  0.00  0.00    +0.000 A 
ATOM     16  N   UNL     1      -1.767  -2.172   0.000  0.00  0.00    +0.000 NA
ATOM     17  C   UNL     1      -2.380  -2.724   0.000  0.00  0.00    +0.000 A 
ATOM     18  N   UNL     1      -3.164  -2.469   0.000  0.00  0.00    +0.000 NA
ATOM     19  N   UNL     1      -2.208  -3.531   0.000  0.00  0.00    +0.000 NA
ATOM     20  N   UNL     1      -1.453  -0.698   0.000  0.00  0.00    +0.000 N 
ATOM     21  C   UNL     1      -1.938  -0.030   0.000  0.00  0.00    +0.000 A 
ATOM     22  N   UNL     1      -2.723  -0.285   0.000  0.00  0.00    +0.000 NA
BRANCH  13  23
ATOM     23  O   UNL     1      -4.121  -1.407   0.000  0.00  0.00    +0.000 OA
BRANCH  23  25
ATOM     24  C   UNL     1      -5.518  -1.705   0.000  0.00  0.00    +0.000 C 
ATOM     25  C   UNL     1      -4.734  -1.960   0.000  0.00  0.00    +0.000 C 
ENDBRANCH  23  25
ENDBRANCH  13  23
ENDBRANCH   1  20
BRANCH   8  26
ATOM     26  O   UNL     1       2.352  -1.886   0.000  0.00  0.00    +0.000 OA
BRANCH  26  27
ATOM     27  C   UNL     1       1.822  -2.518   0.000  0.00  0.00    +0.000 C 
ATOM     28  C   UNL     1       2.104  -3.293   0.000  0.00  0.00    +0.000 C 
ATOM     29  C   UNL     1       1.010  -2.374   0.000  0.00  0.00    +0.000 C 
ENDBRANCH  26  27
ENDBRANCH   8  26
TORSDOF 5
