REMARK  Name = 
REMARK  14 active torsions:
REMARK  status: ('A' for Active; 'I' for Inactive)
REMARK    1  A    between atoms: P_2  and  O_20
REMARK    2  A    between atoms: C_3  and  C_4
REMARK    3  A    between atoms: C_3  and  O_19
REMARK    4  A    between atoms: C_7  and  C_8
REMARK    5  A    between atoms: C_8  and  C_10
REMARK    6  A    between atoms: C_9  and  C_10
REMARK    7  A    between atoms: C_11  and  C_12
REMARK    8  A    between atoms: C_12  and  C_13
REMARK    9  A    between atoms: C_13  and  C_14
REMARK   10  A    between atoms: C_15  and  C_16
REMARK   11  A    between atoms: C_16  and  C_17
REMARK   12  A    between atoms: C_17  and  C_18
REMARK   13  A    between atoms: O_19  and  P_21
REMARK   14  A    between atoms: O_20  and  P_21
REMARK                            x       y       z     vdW  Elec       q    Type
REMARK                         _______ _______ _______ _____ _____    ______ ____
ROOT
ATOM      1  C   UNL     1       0.715   0.216   0.000  0.00  0.00    +0.000 C 
ENDROOT
BRANCH   1   3
ATOM      2  C   UNL     1      -0.715   0.216   0.000  0.00  0.00    +0.000 C 
ATOM      3  C   UNL     1       0.000  -0.196   0.000  0.00  0.00    +0.000 C 
ATOM      4  C   UNL     1      -0.714   1.041   0.000  0.00  0.00    +0.000 C 
BRANCH   2   5
ATOM      5  C   UNL     1      -1.429  -0.196   0.000  0.00  0.00    +0.000 C 
BRANCH   5   6
ATOM      6  C   UNL     1      -2.143   0.216   0.000  0.00  0.00    +0.000 C 
BRANCH   6   8
ATOM      7  C   UNL     1      -3.572   0.216   0.000  0.00  0.00    +0.000 C 
ATOM      8  C   UNL     1      -2.858  -0.196   0.000  0.00  0.00    +0.000 C 
ATOM      9  C   UNL     1      -3.572   1.041   0.000  0.00  0.00    +0.000 C 
BRANCH   7  10
ATOM     10  C   UNL     1      -4.287  -0.196   0.000  0.00  0.00    +0.000 C 
BRANCH  10  11
ATOM     11  C   UNL     1      -5.001   0.216   0.000  0.00  0.00    +0.000 C 
BRANCH  11  14
ATOM     12  C   UNL     1      -7.145  -0.196   0.000  0.00  0.00    +0.000 C 
ATOM     13  C   UNL     1      -6.430   0.216   0.000  0.00  0.00    +0.000 C 
ATOM     14  C   UNL     1      -5.716  -0.196   0.000  0.00  0.00    +0.000 C 
ATOM     15  C   UNL     1      -6.430   1.041   0.000  0.00  0.00    +0.000 C 
ENDBRANCH  11  14
ENDBRANCH  10  11
ENDBRANCH   7  10
ENDBRANCH   6   8
ENDBRANCH   5   6
ENDBRANCH   2   5
ENDBRANCH   1   3
BRANCH   1  16
ATOM     16  C   UNL     1       1.429  -0.196   0.000  0.00  0.00    +0.000 C 
BRANCH  16  18
ATOM     17  C   UNL     1       2.858  -0.196   0.000  0.00  0.00    +0.000 C 
ATOM     18  C   UNL     1       2.143   0.216   0.000  0.00  0.00    +0.000 C 
ATOM     19  C   UNL     1       2.144   1.041   0.000  0.00  0.00    +0.000 C 
BRANCH  17  20
ATOM     20  C   UNL     1       3.572   0.216   0.000  0.00  0.00    +0.000 C 
BRANCH  20  21
ATOM     21  O   UNL     1       4.287  -0.196   0.000  0.00  0.00    +0.000 OA
BRANCH  21  22
ATOM     22  P   UNL     1       5.001   0.216   0.000  0.00  0.00    +0.000 P 
ATOM     23  O   UNL     1       5.002   1.041   0.000  0.00  0.00    +0.000 OA
ATOM     24  O   UNL     1       5.001  -0.609   0.000  0.00  0.00    +0.000 OA
BRANCH  22  25
ATOM     25  O   UNL     1       5.716  -0.196   0.000  0.00  0.00    +0.000 OA
BRANCH  25  27
ATOM     26  O   UNL     1       7.145  -0.196   0.000  0.00  0.00    +0.000 OA
ATOM     27  P   UNL     1       6.430   0.216   0.000  0.00  0.00    +0.000 P 
ATOM     28  O   UNL     1       6.430   1.041   0.000  0.00  0.00    +0.000 OA
ATOM     29  O   UNL     1       6.430  -0.609   0.000  0.00  0.00    +0.000 OA
ENDBRANCH  25  27
ENDBRANCH  22  25
ENDBRANCH  21  22
ENDBRANCH  20  21
ENDBRANCH  17  20
ENDBRANCH  16  18
ENDBRANCH   1  16
TORSDOF 14
