REMARK  Name = 
REMARK  12 active torsions:
REMARK  status: ('A' for Active; 'I' for Inactive)
REMARK    1  A    between atoms: C_2  and  C_4
REMARK    2  A    between atoms: C_2  and  N_11
REMARK    3  A    between atoms: C_4  and  C_5
REMARK    4  A    between atoms: C_13  and  C_15
REMARK    5  A    between atoms: C_15  and  N_16
REMARK    6  A    between atoms: N_16  and  C_17
REMARK    7  A    between atoms: N_16  and  C_20
REMARK    8  A    between atoms: C_17  and  C_18
REMARK    9  A    between atoms: C_20  and  C_21
REMARK   10  A    between atoms: N_23  and  C_25
REMARK   11  A    between atoms: C_25  and  C_28
REMARK   12  A    between atoms: C_28  and  C_29
REMARK                            x       y       z     vdW  Elec       q    Type
REMARK                         _______ _______ _______ _____ _____    ______ ____
ROOT
ATOM      1  N   UNL     1       2.858  -4.950   0.000  0.00  0.00    +0.000 NA
ENDROOT
BRANCH   1   2
ATOM      2  C   UNL     1       2.858  -5.775   0.000  0.00  0.00    +0.000 C 
BRANCH   2   5
ATOM      3  N   UNL     1       2.143  -7.013   0.000  0.00  0.00    +0.000 N 
ATOM      4  C   UNL     1       2.858  -7.425   0.000  0.00  0.00    +0.000 C 
ATOM      5  C   UNL     1       2.143  -6.188   0.000  0.00  0.00    +0.000 C 
ATOM      6  O   UNL     1       1.429  -5.775   0.000  0.00  0.00    +0.000 OA
BRANCH   3   8
ATOM      7  C   UNL     1       1.841  -8.139   0.000  0.00  0.00    +0.000 C 
ATOM      8  C   UNL     1       1.429  -7.425   0.000  0.00  0.00    +0.000 C 
ATOM      9  C   UNL     1       1.016  -6.710   0.000  0.00  0.00    +0.000 C 
BRANCH   8  10
ATOM     10  C   UNL     1       0.715  -7.838   0.000  0.00  0.00    +0.000 C 
BRANCH  10  11
ATOM     11  C   UNL     1       0.715  -8.662   0.000  0.00  0.00    +0.000 A 
ATOM     12  C   UNL     1       1.429  -9.075   0.000  0.00  0.00    +0.000 A 
ATOM     13  C   UNL     1       1.429  -9.900   0.000  0.00  0.00    +0.000 A 
ATOM     14  C   UNL     1       0.715 -10.312   0.000  0.00  0.00    +0.000 A 
ATOM     15  C   UNL     1       0.000  -9.900   0.000  0.00  0.00    +0.000 A 
ATOM     16  C   UNL     1       0.000  -9.075   0.000  0.00  0.00    +0.000 A 
ENDBRANCH  10  11
ENDBRANCH   8  10
ENDBRANCH   3   8
ENDBRANCH   2   5
ENDBRANCH   1   2
BRANCH   1  17
ATOM     17  C   UNL     1       3.572  -4.537   0.000  0.00  0.00    +0.000 C 
BRANCH  17  18
ATOM     18  C   UNL     1       3.572  -3.712   0.000  0.00  0.00    +0.000 C 
ATOM     19  O   UNL     1       2.858  -3.300   0.000  0.00  0.00    +0.000 OA
ATOM     20  N   UNL     1       4.287  -3.300   0.000  0.00  0.00    +0.000 N 
ATOM     21  C   UNL     1       5.001  -3.712   0.000  0.00  0.00    +0.000 C 
BRANCH  20  22
ATOM     22  C   UNL     1       4.287  -2.475   0.000  0.00  0.00    +0.000 C 
ATOM     23  C   UNL     1       5.112  -2.475   0.000  0.00  0.00    +0.000 C 
ATOM     24  C   UNL     1       3.462  -2.475   0.000  0.00  0.00    +0.000 C 
BRANCH  22  25
ATOM     25  C   UNL     1       4.287  -1.650   0.000  0.00  0.00    +0.000 C 
BRANCH  25  26
ATOM     26  C   UNL     1       5.001  -1.238   0.000  0.00  0.00    +0.000 A 
ATOM     27  C   UNL     1       5.001  -0.412   0.000  0.00  0.00    +0.000 A 
ATOM     28  C   UNL     1       5.716   0.000   0.000  0.00  0.00    +0.000 A 
ATOM     29  C   UNL     1       6.430  -0.412   0.000  0.00  0.00    +0.000 A 
ATOM     30  C   UNL     1       6.430  -1.238   0.000  0.00  0.00    +0.000 A 
ATOM     31  C   UNL     1       5.716  -1.650   0.000  0.00  0.00    +0.000 A 
ENDBRANCH  25  26
ENDBRANCH  22  25
ENDBRANCH  20  22
ENDBRANCH  17  18
ENDBRANCH   1  17
BRANCH   1  32
ATOM     32  C   UNL     1       2.143  -4.537   0.000  0.00  0.00    +0.000 C 
BRANCH  32  33
ATOM     33  C   UNL     1       1.429  -4.950   0.000  0.00  0.00    +0.000 C 
ATOM     34  O   UNL     1       0.715  -4.537   0.000  0.00  0.00    +0.000 OA
ENDBRANCH  32  33
ENDBRANCH   1  32
TORSDOF 12
