REMARK  Name = 
REMARK  10 active torsions:
REMARK  status: ('A' for Active; 'I' for Inactive)
REMARK    1  A    between atoms: C_6  and  S_7
REMARK    2  A    between atoms: S_7  and  N_10
REMARK    3  A    between atoms: N_10  and  C_11
REMARK    4  A    between atoms: N_10  and  C_24
REMARK    5  A    between atoms: C_11  and  C_12
REMARK    6  A    between atoms: C_15  and  C_19
REMARK    7  A    between atoms: C_24  and  C_25
REMARK    8  A    between atoms: C_24  and  C_31
REMARK    9  A    between atoms: C_25  and  C_26
REMARK   10  A    between atoms: C_26  and  C_27
REMARK                            x       y       z     vdW  Elec       q    Type
REMARK                         _______ _______ _______ _____ _____    ______ ____
ROOT
ATOM      1  N   UNL     1       1.429   7.179   0.000  0.00  0.00    +0.000 NA
ENDROOT
BRANCH   1   2
ATOM      2  S   UNL     1       1.429   8.004   0.000  0.00  0.00    +0.000 S 
ATOM      3  O   UNL     1       2.254   8.004   0.000  0.00  0.00    +0.000 OA
ATOM      4  O   UNL     1       0.604   8.004   0.000  0.00  0.00    +0.000 OA
BRANCH   2  10
ATOM      5  C   UNL     1       0.715   9.241   0.000  0.00  0.00    +0.000 A 
ATOM      6  C   UNL     1       0.715  10.066   0.000  0.00  0.00    +0.000 A 
ATOM      7  C   UNL     1       1.429  10.479   0.000  0.00  0.00    +0.000 A 
ATOM      8  C   UNL     1       2.143  10.066   0.000  0.00  0.00    +0.000 A 
ATOM      9  C   UNL     1       2.143   9.241   0.000  0.00  0.00    +0.000 A 
ATOM     10  C   UNL     1       1.429   8.829   0.000  0.00  0.00    +0.000 A 
ATOM     11 CL   UNL     1       1.429  11.304   0.000  0.00  0.00    +0.000 Cl
ENDBRANCH   2  10
ENDBRANCH   1   2
BRANCH   1  12
ATOM     12  C   UNL     1       2.143   6.766   0.000  0.00  0.00    +0.000 C 
BRANCH  12  13
ATOM     13  C   UNL     1       2.858   7.179   0.000  0.00  0.00    +0.000 C 
ATOM     14  O   UNL     1       2.858   8.004   0.000  0.00  0.00    +0.000 OA
ATOM     15  N   UNL     1       3.572   6.766   0.000  0.00  0.00    +0.000 NA
ENDBRANCH  12  13
BRANCH  12  16
ATOM     16  C   UNL     1       2.143   5.941   0.000  0.00  0.00    +0.000 C 
BRANCH  16  17
ATOM     17  C   UNL     1       2.858   5.529   0.000  0.00  0.00    +0.000 C 
BRANCH  17  18
ATOM     18  C   UNL     1       2.858   4.704   0.000  0.00  0.00    +0.000 C 
ATOM     19  F   UNL     1       2.033   4.704   0.000  0.00  0.00    +0.000 F 
ATOM     20  F   UNL     1       3.683   4.704   0.000  0.00  0.00    +0.000 F 
ATOM     21  F   UNL     1       2.858   3.879   0.000  0.00  0.00    +0.000 F 
ENDBRANCH  17  18
ENDBRANCH  16  17
ENDBRANCH  12  16
ENDBRANCH   1  12
BRANCH   1  22
ATOM     22  C   UNL     1       0.715   6.766   0.000  0.00  0.00    +0.000 C 
BRANCH  22  23
ATOM     23  C   UNL     1       0.715   5.941   0.000  0.00  0.00    +0.000 A 
ATOM     24  C   UNL     1       1.429   5.529   0.000  0.00  0.00    +0.000 A 
ATOM     25  C   UNL     1       1.429   4.704   0.000  0.00  0.00    +0.000 A 
ATOM     26  C   UNL     1       0.715   4.291   0.000  0.00  0.00    +0.000 A 
ATOM     27  C   UNL     1       0.000   4.704   0.000  0.00  0.00    +0.000 A 
ATOM     28  C   UNL     1       0.000   5.529   0.000  0.00  0.00    +0.000 A 
ATOM     29  F   UNL     1      -0.715   5.941   0.000  0.00  0.00    +0.000 F 
BRANCH  26  30
ATOM     30  C   UNL     1       0.715   3.466   0.000  0.00  0.00    +0.000 A 
ATOM     31  N   UNL     1       1.382   2.981   0.000  0.00  0.00    +0.000 NA
ATOM     32  C   UNL     1       1.127   2.196   0.000  0.00  0.00    +0.000 A 
ATOM     33  O   UNL     1       0.302   2.196   0.000  0.00  0.00    +0.000 OA
ATOM     34  N   UNL     1       0.047   2.981   0.000  0.00  0.00    +0.000 NA
ENDBRANCH  26  30
ENDBRANCH  22  23
ENDBRANCH   1  22
TORSDOF 10
