REMARK  Name = 
REMARK  4 active torsions:
REMARK  status: ('A' for Active; 'I' for Inactive)
REMARK    1  A    between atoms: C_4  and  C_7
REMARK    2  A    between atoms: C_7  and  C_9
REMARK    3  A    between atoms: C_10  and  C_11
REMARK    4  A    between atoms: C_12  and  C_13
REMARK                            x       y       z     vdW  Elec       q    Type
REMARK                         _______ _______ _______ _____ _____    ______ ____
ROOT
ATOM      1  C   UNL     1       0.825   1.067   0.000  0.00  0.00    +0.000 C 
ATOM      2  O   UNL     1       1.235   1.783   0.000  0.00  0.00    +0.000 OA
ENDROOT
BRANCH   1   6
ATOM      3  C   UNL     1       2.060  -1.072   0.000  0.00  0.00    +0.000 A 
ATOM      4  C   UNL     1       2.470  -0.356   0.000  0.00  0.00    +0.000 A 
ATOM      5  C   UNL     1       2.060   0.356   0.000  0.00  0.00    +0.000 A 
ATOM      6  C   UNL     1       1.235   0.356   0.000  0.00  0.00    +0.000 A 
ATOM      7  C   UNL     1       0.825  -0.356   0.000  0.00  0.00    +0.000 A 
ATOM      8  C   UNL     1       1.235  -1.072   0.000  0.00  0.00    +0.000 A 
ENDBRANCH   1   6
BRANCH   1   9
ATOM      9  C   UNL     1       0.000   1.067   0.000  0.00  0.00    +0.000 C 
ATOM     10  C   UNL     1      -0.410   0.356   0.000  0.00  0.00    +0.000 C 
BRANCH  10  11
ATOM     11  C   UNL     1      -1.235   0.356   0.000  0.00  0.00    +0.000 C 
ATOM     12  C   UNL     1      -1.645  -0.356   0.000  0.00  0.00    +0.000 C 
ATOM     13  O   UNL     1      -2.470  -0.356   0.000  0.00  0.00    +0.000 OA
BRANCH  12  14
ATOM     14  C   UNL     1      -1.235  -1.072   0.000  0.00  0.00    +0.000 C 
ATOM     15  O   UNL     1      -1.645  -1.783   0.000  0.00  0.00    +0.000 OA
ATOM     16  O   UNL     1      -0.410  -1.072   0.000  0.00  0.00    +0.000 OA
ENDBRANCH  12  14
ENDBRANCH  10  11
ENDBRANCH   1   9
TORSDOF 4
