REMARK  Name = 
REMARK  10 active torsions:
REMARK  status: ('A' for Active; 'I' for Inactive)
REMARK    1  A    between atoms: C_2  and  C_3
REMARK    2  A    between atoms: C_3  and  C_4
REMARK    3  A    between atoms: C_3  and  C_9
REMARK    4  A    between atoms: C_3  and  C_14
REMARK    5  A    between atoms: C_4  and  O_5
REMARK    6  A    between atoms: O_5  and  N_6
REMARK    7  A    between atoms: C_9  and  O_10
REMARK    8  A    between atoms: O_10  and  N_11
REMARK    9  A    between atoms: C_14  and  O_15
REMARK   10  A    between atoms: O_15  and  N_16
REMARK                            x       y       z     vdW  Elec       q    Type
REMARK                         _______ _______ _______ _____ _____    ______ ____
ROOT
ATOM      1  C   UNL     1       1.540   0.412   0.000  0.00  0.00    +0.000 C 
ENDROOT
BRANCH   1   3
ATOM      2  C   UNL     1       0.111   0.412   0.000  0.00  0.00    +0.000 C 
ATOM      3  C   UNL     1       0.825   0.000   0.000  0.00  0.00    +0.000 C 
ENDBRANCH   1   3
BRANCH   1   4
ATOM      4  C   UNL     1       1.952  -0.302   0.000  0.00  0.00    +0.000 C 
BRANCH   4   5
ATOM      5  O   UNL     1       2.777  -0.302   0.000  0.00  0.00    +0.000 OA
BRANCH   5   6
ATOM      6  N   UNL     1       3.189  -1.016   0.000  0.00  0.00    +0.000 N 
ATOM      7  O   UNL     1       4.014  -1.016   0.000  0.00  0.00    +0.000 OA
ATOM      8  O   UNL     1       2.777  -1.731   0.000  0.00  0.00    +0.000 OA
ENDBRANCH   5   6
ENDBRANCH   4   5
ENDBRANCH   1   4
BRANCH   1   9
ATOM      9  C   UNL     1       2.254   0.825   0.000  0.00  0.00    +0.000 C 
BRANCH   9  10
ATOM     10  O   UNL     1       2.968   0.412   0.000  0.00  0.00    +0.000 OA
BRANCH  10  11
ATOM     11  N   UNL     1       3.683   0.825   0.000  0.00  0.00    +0.000 N 
ATOM     12  O   UNL     1       4.397   0.412   0.000  0.00  0.00    +0.000 OA
ATOM     13  O   UNL     1       3.683   1.650   0.000  0.00  0.00    +0.000 OA
ENDBRANCH  10  11
ENDBRANCH   9  10
ENDBRANCH   1   9
BRANCH   1  14
ATOM     14  C   UNL     1       1.127   1.127   0.000  0.00  0.00    +0.000 C 
BRANCH  14  15
ATOM     15  O   UNL     1       0.302   1.127   0.000  0.00  0.00    +0.000 OA
BRANCH  15  16
ATOM     16  N   UNL     1      -0.111   1.841   0.000  0.00  0.00    +0.000 N 
ATOM     17  O   UNL     1      -0.935   1.841   0.000  0.00  0.00    +0.000 OA
ATOM     18  O   UNL     1       0.302   2.556   0.000  0.00  0.00    +0.000 OA
ENDBRANCH  15  16
ENDBRANCH  14  15
ENDBRANCH   1  14
TORSDOF 10
