REMARK  Name = 
REMARK  3 active torsions:
REMARK  status: ('A' for Active; 'I' for Inactive)
REMARK    1  A    between atoms: C_1  and  C_17
REMARK    2  A    between atoms: N_9  and  N_10
REMARK    3  A    between atoms: N_16  and  C_17
REMARK                            x       y       z     vdW  Elec       q    Type
REMARK                         _______ _______ _______ _____ _____    ______ ____
ROOT
ATOM      1  C   UNL     1       2.811   0.897   0.000  0.00  0.00    +0.000 C 
ATOM      2  N   UNL     1       2.811   1.722   0.000  0.00  0.00    +0.000 NA
ATOM      3  N   UNL     1       3.478   0.412   0.000  0.00  0.00    +0.000 NA
ATOM      4  C   UNL     1       3.223  -0.372   0.000  0.00  0.00    +0.000 C 
ATOM      5  C   UNL     1       2.398  -0.372   0.000  0.00  0.00    +0.000 C 
ATOM      6  N   UNL     1       2.143   0.412   0.000  0.00  0.00    +0.000 N 
ENDROOT
BRANCH   2   7
ATOM      7  N   UNL     1       3.525   2.135   0.000  0.00  0.00    +0.000 N 
ATOM      8  O   UNL     1       4.240   1.722   0.000  0.00  0.00    +0.000 OA
ATOM      9  O   UNL     1       3.525   2.960   0.000  0.00  0.00    +0.000 OA
ENDBRANCH   2   7
BRANCH   6  10
ATOM     10  C   UNL     1       1.429   0.825   0.000  0.00  0.00    +0.000 C 
BRANCH  10  11
ATOM     11  C   UNL     1       0.715   0.412   0.000  0.00  0.00    +0.000 A 
ATOM     12  C   UNL     1       0.715  -0.412   0.000  0.00  0.00    +0.000 A 
ATOM     13  N   UNL     1       0.000  -0.825   0.000  0.00  0.00    +0.000 NA
ATOM     14  C   UNL     1      -0.715  -0.412   0.000  0.00  0.00    +0.000 A 
ATOM     15  C   UNL     1      -0.715   0.412   0.000  0.00  0.00    +0.000 A 
ATOM     16  C   UNL     1       0.000   0.825   0.000  0.00  0.00    +0.000 A 
ATOM     17 CL   UNL     1      -1.429  -0.825   0.000  0.00  0.00    +0.000 Cl
ENDBRANCH  10  11
ENDBRANCH   6  10
TORSDOF 3
