REMARK  Name = 
REMARK  11 active torsions:
REMARK  status: ('A' for Active; 'I' for Inactive)
REMARK    1  A    between atoms: C_1  and  O_12
REMARK    2  A    between atoms: C_5  and  N_8
REMARK    3  A    between atoms: O_12  and  C_13
REMARK    4  A    between atoms: C_16  and  C_59
REMARK    5  A    between atoms: C_17  and  O_34
REMARK    6  A    between atoms: C_18  and  O_19
REMARK    7  A    between atoms: O_34  and  C_35
REMARK    8  A    between atoms: C_38  and  O_45
REMARK    9  A    between atoms: C_39  and  N_42
REMARK   10  A    between atoms: O_45  and  C_46
REMARK   11  A    between atoms: C_59  and  C_60
REMARK                            x       y       z     vdW  Elec       q    Type
REMARK                         _______ _______ _______ _____ _____    ______ ____
ROOT
ATOM      1  C   UNL     1      -2.626   0.444   0.000  0.00  0.00    +0.000 C 
ATOM      2  C   UNL     1      -1.919   0.038   0.000  0.00  0.00    +0.000 C 
ATOM      3  C   UNL     1      -1.919  -0.774   0.000  0.00  0.00    +0.000 C 
ATOM      4  C   UNL     1      -1.211  -1.187   0.000  0.00  0.00    +0.000 C 
ATOM      5  C   UNL     1      -1.211  -2.011   0.000  0.00  0.00    +0.000 C 
ATOM      6  C   UNL     1      -1.914  -2.412   0.000  0.00  0.00    +0.000 C 
ATOM      7  C   UNL     1      -1.914  -3.237   0.000  0.00  0.00    +0.000 C 
ATOM      8  C   UNL     1      -2.636  -3.652   0.000  0.00  0.00    +0.000 C 
ATOM      9  C   UNL     1      -3.349  -3.230   0.000  0.00  0.00    +0.000 C 
ATOM     10  O   UNL     1      -4.056  -3.647   0.000  0.00  0.00    +0.000 OA
ATOM     11  C   UNL     1      -4.768  -3.230   0.000  0.00  0.00    +0.000 C 
ATOM     12  C   UNL     1      -5.490  -3.647   0.000  0.00  0.00    +0.000 C 
ATOM     13  C   UNL     1      -4.768  -2.403   0.000  0.00  0.00    +0.000 C 
ATOM     14  C   UNL     1      -4.056  -1.991   0.000  0.00  0.00    +0.000 C 
ATOM     15  C   UNL     1      -4.056  -1.166   0.000  0.00  0.00    +0.000 C 
ATOM     16  C   UNL     1      -3.337  -0.774   0.000  0.00  0.00    +0.000 C 
ATOM     17  C   UNL     1      -3.337   0.045   0.000  0.00  0.00    +0.000 C 
ATOM     18  O   UNL     1      -3.349  -2.398   0.000  0.00  0.00    +0.000 OA
ATOM     19  O   UNL     1      -1.202  -3.656   0.000  0.00  0.00    +0.000 OA
ATOM     20  C   UNL     1      -1.336   0.618   0.000  0.00  0.00    +0.000 C 
ENDROOT
BRANCH   6  21
ATOM     21  O   UNL     1      -2.641  -2.005   0.000  0.00  0.00    +0.000 OA
ATOM     22  C   UNL     1      -2.641  -1.177   0.000  0.00  0.00    +0.000 C 
ENDBRANCH   6  21
BRANCH   5  23
ATOM     23  O   UNL     1      -0.408  -2.267   0.000  0.00  0.00    +0.000 OA
BRANCH  23  24
ATOM     24  C   UNL     1       0.414  -2.267   0.000  0.00  0.00    +0.000 C 
ATOM     25  O   UNL     1       0.791  -3.005   0.000  0.00  0.00    +0.000 OA
ATOM     26  C   UNL     1       1.614  -3.052   0.000  0.00  0.00    +0.000 C 
ATOM     27  C   UNL     1       2.067  -2.354   0.000  0.00  0.00    +0.000 C 
ATOM     28  C   UNL     1       1.699  -1.616   0.000  0.00  0.00    +0.000 C 
ATOM     29  C   UNL     1       0.869  -1.567   0.000  0.00  0.00    +0.000 C 
ATOM     30  O   UNL     1       0.319  -0.943   0.000  0.00  0.00    +0.000 OA
ATOM     31  C   UNL     1       2.159  -3.671   0.000  0.00  0.00    +0.000 C 
BRANCH  28  32
ATOM     32  N   UNL     1       2.148  -0.919   0.000  0.00  0.00    +0.000 NA
ATOM     33  C   UNL     1       1.775  -0.176   0.000  0.00  0.00    +0.000 C 
ATOM     34  C   UNL     1       2.958  -0.748   0.000  0.00  0.00    +0.000 C 
ENDBRANCH  28  32
BRANCH  27  35
ATOM     35  O   UNL     1       2.898  -2.354   0.000  0.00  0.00    +0.000 OA
BRANCH  35  36
ATOM     36  C   UNL     1       3.446  -3.018   0.000  0.00  0.00    +0.000 C 
ATOM     37  O   UNL     1       3.183  -3.806   0.000  0.00  0.00    +0.000 OA
ATOM     38  C   UNL     1       3.812  -4.500   0.000  0.00  0.00    +0.000 C 
ATOM     39  C   UNL     1       4.537  -4.262   0.000  0.00  0.00    +0.000 C 
ATOM     40  C   UNL     1       4.805  -3.479   0.000  0.00  0.00    +0.000 C 
ATOM     41  C   UNL     1       4.258  -2.852   0.000  0.00  0.00    +0.000 C 
ATOM     42  O   UNL     1       5.412  -2.917   0.000  0.00  0.00    +0.000 OA
ATOM     43  C   UNL     1       5.490  -3.927   0.000  0.00  0.00    +0.000 C 
ATOM     44  O   UNL     1       5.089  -4.878   0.000  0.00  0.00    +0.000 OA
ATOM     45  C   UNL     1       3.622  -5.104   0.000  0.00  0.00    +0.000 C 
ENDBRANCH  35  36
ENDBRANCH  27  35
ENDBRANCH  23  24
ENDBRANCH   5  23
BRANCH   1  46
ATOM     46  O   UNL     1      -3.094   1.436   0.000  0.00  0.00    +0.000 OA
BRANCH  46  47
ATOM     47  C   UNL     1      -2.974   2.204   0.000  0.00  0.00    +0.000 C 
ATOM     48  O   UNL     1      -2.289   2.669   0.000  0.00  0.00    +0.000 OA
ATOM     49  C   UNL     1      -2.347   3.490   0.000  0.00  0.00    +0.000 C 
ATOM     50  C   UNL     1      -3.089   3.852   0.000  0.00  0.00    +0.000 C 
ATOM     51  C   UNL     1      -3.770   3.395   0.000  0.00  0.00    +0.000 C 
ATOM     52  C   UNL     1      -3.717   2.568   0.000  0.00  0.00    +0.000 C 
ATOM     53  C   UNL     1      -1.632   3.915   0.000  0.00  0.00    +0.000 C 
BRANCH  50  54
ATOM     54  N   UNL     1      -3.089   4.687   0.000  0.00  0.00    +0.000 NA
ATOM     55  C   UNL     1      -3.811   5.104   0.000  0.00  0.00    +0.000 C 
ATOM     56  C   UNL     1      -2.382   5.104   0.000  0.00  0.00    +0.000 C 
ENDBRANCH  50  54
ENDBRANCH  46  47
ENDBRANCH   1  46
BRANCH   4  57
ATOM     57  C   UNL     1      -0.629  -0.604   0.000  0.00  0.00    +0.000 C 
BRANCH  57  58
ATOM     58  C   UNL     1      -0.416   0.183   0.000  0.00  0.00    +0.000 C 
ATOM     59  O   UNL     1       0.338   0.322   0.000  0.00  0.00    +0.000 OA
ENDBRANCH  57  58
ENDBRANCH   4  57
TORSDOF 11
