REMARK  Name = 
REMARK  2 active torsions:
REMARK  status: ('A' for Active; 'I' for Inactive)
REMARK    1  A    between atoms: S_1  and  C_6
REMARK    2  A    between atoms: O_2  and  C_5
REMARK                            x       y       z     vdW  Elec       q    Type
REMARK                         _______ _______ _______ _____ _____    ______ ____
ROOT
ATOM      1  C   UNL     1       0.000  -0.604   0.000  0.00  0.00    +0.000 A 
ATOM      2  C   UNL     1       0.000   1.046   0.000  0.00  0.00    +0.000 A 
ATOM      3  C   UNL     1      -0.715  -0.191   0.000  0.00  0.00    +0.000 A 
ATOM      4  C   UNL     1       0.715  -0.191   0.000  0.00  0.00    +0.000 A 
ATOM      5  C   UNL     1      -0.715   0.634   0.000  0.00  0.00    +0.000 A 
ATOM      6  C   UNL     1       0.715   0.634   0.000  0.00  0.00    +0.000 A 
ENDROOT
BRANCH   2   7
ATOM      7  S   UNL     1       0.000   1.872   0.000  0.00  0.00    +0.000 S 
ATOM      8  O   UNL     1       0.715   2.284   0.000  0.00  0.00    +0.000 OA
ATOM      9  O   UNL     1      -0.715   2.284   0.000  0.00  0.00    +0.000 OA
ENDBRANCH   2   7
BRANCH   1  10
ATOM     10  O   UNL     1       0.000  -1.429   0.000  0.00  0.00    +0.000 OA
ATOM     11  C   UNL     1      -0.715  -1.841   0.000  0.00  0.00    +0.000 C 
ENDBRANCH   1  10
TORSDOF 2
