REMARK  Name = 
REMARK  8 active torsions:
REMARK  status: ('A' for Active; 'I' for Inactive)
REMARK    1  A    between atoms: C_4  and  N_24
REMARK    2  A    between atoms: C_10  and  C_11
REMARK    3  A    between atoms: C_10  and  N_24
REMARK    4  A    between atoms: C_11  and  N_25
REMARK    5  A    between atoms: C_12  and  C_13
REMARK    6  A    between atoms: C_12  and  N_24
REMARK    7  A    between atoms: C_14  and  C_15
REMARK    8  A    between atoms: C_14  and  C_16
REMARK                            x       y       z     vdW  Elec       q    Type
REMARK                         _______ _______ _______ _____ _____    ______ ____
ROOT
ATOM      1  C   UNL     1      -4.799   0.751   0.000  0.00  0.00    +0.000 C 
ATOM      2  C   UNL     1      -4.205  -2.044   0.000  0.00  0.00    +0.000 C 
ATOM      3  C   UNL     1      -2.221   0.853   0.000  0.00  0.00    +0.000 A 
ATOM      4  C   UNL     1      -2.888  -0.304   0.000  0.00  0.00    +0.000 A 
ATOM      5  C   UNL     1      -3.440   0.309   0.000  0.00  0.00    +0.000 A 
ATOM      6  C   UNL     1      -3.143  -1.088   0.000  0.00  0.00    +0.000 A 
ATOM      7  C   UNL     1      -4.502  -0.647   0.000  0.00  0.00    +0.000 A 
ATOM      8  N   UNL     1      -3.028   1.024   0.000  0.00  0.00    +0.000 NA
ATOM      9  N   UNL     1      -4.247   0.138   0.000  0.00  0.00    +0.000 N 
ATOM     10  N   UNL     1      -3.950  -1.260   0.000  0.00  0.00    +0.000 N 
ATOM     11  N   UNL     1      -2.135   0.032   0.000  0.00  0.00    +0.000 N 
ATOM     12  O   UNL     1      -2.591  -1.701   0.000  0.00  0.00    +0.000 OA
ATOM     13  O   UNL     1      -5.309  -0.818   0.000  0.00  0.00    +0.000 OA
ENDROOT
BRANCH  11  14
ATOM     14  C   UNL     1      -1.420  -0.381   0.000  0.00  0.00    +0.000 C 
BRANCH  14  15
ATOM     15  C   UNL     1      -0.706   0.032   0.000  0.00  0.00    +0.000 C 
BRANCH  15  16
ATOM     16  N   UNL     1       0.009  -0.381   0.000  0.00  0.00    +0.000 NA
BRANCH  16  18
ATOM     17  C   UNL     1       0.723  -1.618   0.000  0.00  0.00    +0.000 C 
ATOM     18  C   UNL     1       0.009  -1.206   0.000  0.00  0.00    +0.000 C 
ENDBRANCH  16  18
BRANCH  16  19
ATOM     19  C   UNL     1       0.723   0.032   0.000  0.00  0.00    +0.000 C 
BRANCH  19  20
ATOM     20  C   UNL     1       1.438  -0.381   0.000  0.00  0.00    +0.000 C 
ATOM     21  O   UNL     1       2.152   0.032   0.000  0.00  0.00    +0.000 OA
ENDBRANCH  19  20
ENDBRANCH  16  19
ENDBRANCH  15  16
ENDBRANCH  14  15
ENDBRANCH  11  14
BRANCH   3  22
ATOM     22  C   UNL     1      -1.608   1.405   0.000  0.00  0.00    +0.000 C 
BRANCH  22  28
ATOM     23  C   UNL     1      -2.122   3.825   0.000  0.00  0.00    +0.000 A 
ATOM     24  C   UNL     1      -2.735   3.273   0.000  0.00  0.00    +0.000 A 
ATOM     25  C   UNL     1      -1.338   3.571   0.000  0.00  0.00    +0.000 A 
ATOM     26  C   UNL     1      -2.564   2.466   0.000  0.00  0.00    +0.000 A 
ATOM     27  C   UNL     1      -1.166   2.764   0.000  0.00  0.00    +0.000 A 
ATOM     28  C   UNL     1      -1.779   2.212   0.000  0.00  0.00    +0.000 A 
ENDBRANCH  22  28
ENDBRANCH   3  22
TORSDOF 8
