REMARK  Name = 
REMARK  4 active torsions:
REMARK  status: ('A' for Active; 'I' for Inactive)
REMARK    1  A    between atoms: N_8  and  C_17
REMARK    2  A    between atoms: C_17  and  C_18
REMARK    3  A    between atoms: C_18  and  C_19
REMARK    4  A    between atoms: C_19  and  N_21
REMARK                            x       y       z     vdW  Elec       q    Type
REMARK                         _______ _______ _______ _____ _____    ______ ____
ROOT
ATOM      1  C   UNL     1      -2.790   1.573   0.000  0.00  0.00    +0.000 A 
ATOM      2  C   UNL     1      -3.504   1.986   0.000  0.00  0.00    +0.000 A 
ATOM      3  C   UNL     1      -4.219   1.573   0.000  0.00  0.00    +0.000 A 
ATOM      4  C   UNL     1      -4.219   0.748   0.000  0.00  0.00    +0.000 A 
ATOM      5  C   UNL     1      -3.505   0.336   0.000  0.00  0.00    +0.000 A 
ATOM      6  C   UNL     1      -2.790   0.748   0.000  0.00  0.00    +0.000 A 
ATOM      7  S   UNL     1      -2.075   0.336   0.000  0.00  0.00    +0.000 S 
ATOM      8  N   UNL     1      -2.075   1.986   0.000  0.00  0.00    +0.000 N 
ATOM      9  C   UNL     1      -0.646   1.986   0.000  0.00  0.00    +0.000 A 
ATOM     10  C   UNL     1      -1.361   1.573   0.000  0.00  0.00    +0.000 A 
ATOM     11  C   UNL     1      -1.361   0.748   0.000  0.00  0.00    +0.000 A 
ATOM     12  C   UNL     1      -0.646   0.336   0.000  0.00  0.00    +0.000 A 
ATOM     13  C   UNL     1       0.068   0.748   0.000  0.00  0.00    +0.000 A 
ATOM     14  C   UNL     1       0.068   1.573   0.000  0.00  0.00    +0.000 A 
ATOM     15  O   UNL     1      -2.659  -0.248   0.000  0.00  0.00    +0.000 OA
ATOM     16  O   UNL     1      -1.492  -0.247   0.000  0.00  0.00    +0.000 OA
ENDROOT
BRANCH   8  17
ATOM     17  C   UNL     1      -2.075   2.811   0.000  0.00  0.00    +0.000 C 
BRANCH  17  18
ATOM     18  C   UNL     1      -2.790   3.223   0.000  0.00  0.00    +0.000 C 
ATOM     19  C   UNL     1      -2.790   4.048   0.000  0.00  0.00    +0.000 C 
BRANCH  18  20
ATOM     20  C   UNL     1      -3.505   2.811   0.000  0.00  0.00    +0.000 C 
BRANCH  20  21
ATOM     21  N   UNL     1      -4.219   3.223   0.000  0.00  0.00    +0.000 NA
ATOM     22  C   UNL     1      -4.933   2.811   0.000  0.00  0.00    +0.000 C 
ATOM     23  C   UNL     1      -4.219   4.048   0.000  0.00  0.00    +0.000 C 
ENDBRANCH  20  21
ENDBRANCH  18  20
ENDBRANCH  17  18
ENDBRANCH   8  17
TORSDOF 4
