REMARK  Name = 
REMARK  13 active torsions:
REMARK  status: ('A' for Active; 'I' for Inactive)
REMARK    1  A    between atoms: C_9  and  N_11
REMARK    2  A    between atoms: C_12  and  C_13
REMARK    3  A    between atoms: C_13  and  C_14
REMARK    4  A    between atoms: C_13  and  C_21
REMARK    5  A    between atoms: C_14  and  C_15
REMARK    6  A    between atoms: C_15  and  C_16
REMARK    7  A    between atoms: C_16  and  C_17
REMARK    8  A    between atoms: C_16  and  C_31
REMARK    9  A    between atoms: N_18  and  C_19
REMARK   10  A    between atoms: C_21  and  C_22
REMARK   11  A    between atoms: C_22  and  C_23
REMARK   12  A    between atoms: C_31  and  C_32
REMARK   13  A    between atoms: C_32  and  C_33
REMARK                            x       y       z     vdW  Elec       q    Type
REMARK                         _______ _______ _______ _____ _____    ______ ____
ROOT
ATOM      1  C   UNL     1      -0.358   0.047   0.000  0.00  0.00    +0.000 C 
ATOM      2  O   UNL     1      -0.349   0.792   0.000  0.00  0.00    +0.000 OA
ENDROOT
BRANCH   1   3
ATOM      3  C   UNL     1       0.358  -0.349   0.000  0.00  0.00    +0.000 C 
ATOM      4  O   UNL     1       0.368  -1.151   0.000  0.00  0.00    +0.000 OA
BRANCH   3   5
ATOM      5  C   UNL     1       1.066   0.075   0.000  0.00  0.00    +0.000 C 
BRANCH   5   6
ATOM      6  C   UNL     1       1.792  -0.330   0.000  0.00  0.00    +0.000 C 
ATOM      7  N   UNL     1       2.500   0.094   0.000  0.00  0.00    +0.000 NA
ATOM      8  O   UNL     1       1.792  -1.122   0.000  0.00  0.00    +0.000 OA
BRANCH   7   9
ATOM      9  C   UNL     1       3.226  -0.311   0.000  0.00  0.00    +0.000 C 
ATOM     10  C   UNL     1       3.896   0.179   0.000  0.00  0.00    +0.000 C 
ATOM     11  C   UNL     1       3.481  -1.094   0.000  0.00  0.00    +0.000 A 
ATOM     12  C   UNL     1       4.556  -0.311   0.000  0.00  0.00    +0.000 C 
ATOM     13  C   UNL     1       4.301  -1.094   0.000  0.00  0.00    +0.000 A 
ATOM     14  O   UNL     1       3.886   0.934   0.000  0.00  0.00    +0.000 OA
ATOM     15  C   UNL     1       3.066  -1.811   0.000  0.00  0.00    +0.000 A 
ATOM     16  C   UNL     1       3.481  -2.528   0.000  0.00  0.00    +0.000 A 
ATOM     17  C   UNL     1       4.301  -2.528   0.000  0.00  0.00    +0.000 A 
ATOM     18  C   UNL     1       4.716  -1.811   0.000  0.00  0.00    +0.000 A 
ENDBRANCH   7   9
ENDBRANCH   5   6
BRANCH   5  19
ATOM     19  C   UNL     1       1.075   0.839   0.000  0.00  0.00    +0.000 C 
BRANCH  19  20
ATOM     20  C   UNL     1       1.839   1.330   0.000  0.00  0.00    +0.000 C 
BRANCH  20  21
ATOM     21  C   UNL     1       1.839   2.122   0.000  0.00  0.00    +0.000 A 
ATOM     22  C   UNL     1       2.556   3.367   0.000  0.00  0.00    +0.000 A 
ATOM     23  C   UNL     1       2.556   2.537   0.000  0.00  0.00    +0.000 A 
ATOM     24  C   UNL     1       1.839   3.783   0.000  0.00  0.00    +0.000 A 
ATOM     25  C   UNL     1       1.122   3.367   0.000  0.00  0.00    +0.000 A 
ATOM     26  C   UNL     1       1.122   2.537   0.000  0.00  0.00    +0.000 A 
ENDBRANCH  20  21
ENDBRANCH  19  20
ENDBRANCH   5  19
ENDBRANCH   3   5
ENDBRANCH   1   3
BRANCH   1  27
ATOM     27  C   UNL     1      -1.066  -0.377   0.000  0.00  0.00    +0.000 C 
BRANCH  27  29
ATOM     28  N   UNL     1      -2.500  -0.396   0.000  0.00  0.00    +0.000 NA
ATOM     29  C   UNL     1      -1.792   0.028   0.000  0.00  0.00    +0.000 C 
ATOM     30  O   UNL     1      -1.792   0.745   0.000  0.00  0.00    +0.000 OA
BRANCH  28  39
ATOM     31  C   UNL     1      -4.301   2.217   0.000  0.00  0.00    +0.000 A 
ATOM     32  C   UNL     1      -3.481   2.217   0.000  0.00  0.00    +0.000 A 
ATOM     33  C   UNL     1      -4.716   1.509   0.000  0.00  0.00    +0.000 A 
ATOM     34  C   UNL     1      -3.066   1.509   0.000  0.00  0.00    +0.000 A 
ATOM     35  C   UNL     1      -4.301   0.792   0.000  0.00  0.00    +0.000 A 
ATOM     36  C   UNL     1      -3.481   0.792   0.000  0.00  0.00    +0.000 A 
ATOM     37  C   UNL     1      -4.556   0.000   0.000  0.00  0.00    +0.000 C 
ATOM     38  C   UNL     1      -3.886  -0.481   0.000  0.00  0.00    +0.000 C 
ATOM     39  C   UNL     1      -3.226   0.000   0.000  0.00  0.00    +0.000 C 
ATOM     40  O   UNL     1      -3.886  -1.179   0.000  0.00  0.00    +0.000 OA
ENDBRANCH  28  39
ENDBRANCH  27  29
BRANCH  27  41
ATOM     41  C   UNL     1      -1.056  -1.132   0.000  0.00  0.00    +0.000 C 
BRANCH  41  42
ATOM     42  C   UNL     1      -1.575  -1.547   0.000  0.00  0.00    +0.000 C 
BRANCH  42  43
ATOM     43  C   UNL     1      -1.575  -2.132   0.000  0.00  0.00    +0.000 A 
ATOM     44  C   UNL     1      -0.858  -2.547   0.000  0.00  0.00    +0.000 A 
ATOM     45  C   UNL     1      -0.858  -3.367   0.000  0.00  0.00    +0.000 A 
ATOM     46  C   UNL     1      -1.575  -3.783   0.000  0.00  0.00    +0.000 A 
ATOM     47  C   UNL     1      -2.292  -2.547   0.000  0.00  0.00    +0.000 A 
ATOM     48  C   UNL     1      -2.292  -3.367   0.000  0.00  0.00    +0.000 A 
ENDBRANCH  42  43
ENDBRANCH  41  42
ENDBRANCH  27  41
ENDBRANCH   1  27
TORSDOF 13
