REMARK  Name = 
REMARK  7 active torsions:
REMARK  status: ('A' for Active; 'I' for Inactive)
REMARK    1  A    between atoms: C_4  and  N_19
REMARK    2  A    between atoms: N_19  and  N_20
REMARK    3  A    between atoms: C_21  and  C_23
REMARK    4  A    between atoms: C_23  and  C_24
REMARK    5  A    between atoms: C_23  and  C_30
REMARK    6  A    between atoms: C_24  and  C_25
REMARK    7  A    between atoms: C_30  and  N_31
REMARK                            x       y       z     vdW  Elec       q    Type
REMARK                         _______ _______ _______ _____ _____    ______ ____
ROOT
ATOM      1  C   UNL     1       2.143  -6.188   0.000  0.00  0.00    +0.000 C 
ATOM      2  C   UNL     1       2.858  -5.775   0.000  0.00  0.00    +0.000 A 
ATOM      3  N   UNL     1       2.858  -4.950   0.000  0.00  0.00    +0.000 NA
ATOM      4  C   UNL     1       3.572  -4.537   0.000  0.00  0.00    +0.000 A 
ATOM      5  C   UNL     1       4.287  -4.950   0.000  0.00  0.00    +0.000 A 
ATOM      6  C   UNL     1       4.287  -5.775   0.000  0.00  0.00    +0.000 A 
ATOM      7  N   UNL     1       3.572  -6.188   0.000  0.00  0.00    +0.000 NA
ATOM      8  N   UNL     1       5.001  -6.188   0.000  0.00  0.00    +0.000 N 
ATOM      9  C   UNL     1       5.716  -5.775   0.000  0.00  0.00    +0.000 C 
ATOM     10  C   UNL     1       6.430  -6.188   0.000  0.00  0.00    +0.000 C 
ATOM     11  N   UNL     1       6.430  -7.013   0.000  0.00  0.00    +0.000 NA
ATOM     12  C   UNL     1       7.145  -7.425   0.000  0.00  0.00    +0.000 C 
ATOM     13  C   UNL     1       7.145  -8.250   0.000  0.00  0.00    +0.000 C 
ATOM     14  O   UNL     1       6.430  -8.662   0.000  0.00  0.00    +0.000 OA
ATOM     15  C   UNL     1       5.716  -8.250   0.000  0.00  0.00    +0.000 C 
ATOM     16  C   UNL     1       5.716  -7.425   0.000  0.00  0.00    +0.000 C 
ATOM     17  C   UNL     1       5.001  -7.013   0.000  0.00  0.00    +0.000 C 
ATOM     18  F   UNL     1       5.001  -4.537   0.000  0.00  0.00    +0.000 F 
ENDROOT
BRANCH   4  19
ATOM     19  N   UNL     1       3.572  -3.712   0.000  0.00  0.00    +0.000 NA
BRANCH  19  20
ATOM     20  N   UNL     1       4.287  -3.300   0.000  0.00  0.00    +0.000 NA
ATOM     21  C   UNL     1       4.287  -2.475   0.000  0.00  0.00    +0.000 C 
ATOM     22  O   UNL     1       3.572  -2.062   0.000  0.00  0.00    +0.000 OA
BRANCH  21  23
ATOM     23  C   UNL     1       5.001  -2.062   0.000  0.00  0.00    +0.000 C 
BRANCH  23  24
ATOM     24  C   UNL     1       5.716  -2.475   0.000  0.00  0.00    +0.000 C 
BRANCH  24  25
ATOM     25  N   UNL     1       5.716  -3.300   0.000  0.00  0.00    +0.000 N 
ATOM     26  C   UNL     1       6.430  -3.712   0.000  0.00  0.00    +0.000 C 
ATOM     27  O   UNL     1       6.430  -4.537   0.000  0.00  0.00    +0.000 OA
ATOM     28  O   UNL     1       5.001  -3.712   0.000  0.00  0.00    +0.000 OA
ENDBRANCH  24  25
ENDBRANCH  23  24
BRANCH  23  29
ATOM     29  C   UNL     1       5.001  -1.238   0.000  0.00  0.00    +0.000 C 
BRANCH  29  30
ATOM     30  C   UNL     1       5.716  -0.825   0.000  0.00  0.00    +0.000 C 
ATOM     31  C   UNL     1       5.802  -0.004   0.000  0.00  0.00    +0.000 C 
ATOM     32  C   UNL     1       6.609   0.167   0.000  0.00  0.00    +0.000 C 
ATOM     33  C   UNL     1       7.021  -0.547   0.000  0.00  0.00    +0.000 C 
ATOM     34  C   UNL     1       6.469  -1.161   0.000  0.00  0.00    +0.000 C 
ENDBRANCH  29  30
ENDBRANCH  23  29
ENDBRANCH  21  23
ENDBRANCH  19  20
ENDBRANCH   4  19
TORSDOF 7
