REMARK  Name = 
REMARK  8 active torsions:
REMARK  status: ('A' for Active; 'I' for Inactive)
REMARK    1  A    between atoms: O_2  and  C_3
REMARK    2  A    between atoms: C_10  and  C_11
REMARK    3  A    between atoms: C_11  and  N_12
REMARK    4  A    between atoms: C_13  and  C_15
REMARK    5  A    between atoms: N_18  and  C_25
REMARK    6  A    between atoms: C_25  and  C_26
REMARK    7  A    between atoms: N_29  and  C_32
REMARK    8  A    between atoms: C_32  and  C_33
REMARK                            x       y       z     vdW  Elec       q    Type
REMARK                         _______ _______ _______ _____ _____    ______ ____
ROOT
ATOM      1  C   UNL     1       1.136  -0.130   0.000  0.00  0.00    +0.000 A 
ATOM      2  C   UNL     1       0.651  -0.797   0.000  0.00  0.00    +0.000 A 
ATOM      3  C   UNL     1      -0.174  -0.797   0.000  0.00  0.00    +0.000 C 
ATOM      4  N   UNL     1       1.136  -1.465   0.000  0.00  0.00    +0.000 N 
ATOM      5  C   UNL     1       1.921  -1.210   0.000  0.00  0.00    +0.000 A 
ATOM      6  C   UNL     1       1.921  -0.385   0.000  0.00  0.00    +0.000 A 
ATOM      7  C   UNL     1       2.635   0.028   0.000  0.00  0.00    +0.000 A 
ATOM      8  C   UNL     1       3.350  -0.385   0.000  0.00  0.00    +0.000 A 
ATOM      9  C   UNL     1       3.350  -1.210   0.000  0.00  0.00    +0.000 A 
ATOM     10  C   UNL     1       2.635  -1.622   0.000  0.00  0.00    +0.000 A 
ENDROOT
BRANCH   1  12
ATOM     11  N   UNL     1       1.433   1.268   0.000  0.00  0.00    +0.000 NA
ATOM     12  C   UNL     1       0.881   0.655   0.000  0.00  0.00    +0.000 C 
ATOM     13  O   UNL     1       0.074   0.826   0.000  0.00  0.00    +0.000 OA
BRANCH  11  14
ATOM     14  C   UNL     1       1.178   2.052   0.000  0.00  0.00    +0.000 C 
BRANCH  14  22
ATOM     15  C   UNL     1       1.475   3.450   0.000  0.00  0.00    +0.000 A 
ATOM     16  C   UNL     1       2.027   4.063   0.000  0.00  0.00    +0.000 A 
ATOM     17  C   UNL     1       2.834   3.892   0.000  0.00  0.00    +0.000 A 
ATOM     18  C   UNL     1       3.386   4.505   0.000  0.00  0.00    +0.000 C 
ATOM     19  N   UNL     1       3.089   3.107   0.000  0.00  0.00    +0.000 NA
ATOM     20  C   UNL     1       2.537   2.494   0.000  0.00  0.00    +0.000 A 
ATOM     21  O   UNL     1       2.792   1.709   0.000  0.00  0.00    +0.000 OA
ATOM     22  C   UNL     1       1.730   2.666   0.000  0.00  0.00    +0.000 A 
BRANCH  15  24
ATOM     23  C   UNL     1       0.116   3.009   0.000  0.00  0.00    +0.000 C 
ATOM     24  O   UNL     1       0.668   3.622   0.000  0.00  0.00    +0.000 OA
ENDBRANCH  15  24
ENDBRANCH  14  22
ENDBRANCH  11  14
ENDBRANCH   1  12
BRANCH   4  25
ATOM     25  C   UNL     1       0.881  -2.249   0.000  0.00  0.00    +0.000 C 
ATOM     26  C   UNL     1       1.433  -2.862   0.000  0.00  0.00    +0.000 C 
BRANCH  25  27
ATOM     27  C   UNL     1       0.074  -2.421   0.000  0.00  0.00    +0.000 C 
ATOM     28  C   UNL     1      -0.181  -3.205   0.000  0.00  0.00    +0.000 C 
ATOM     29  C   UNL     1      -0.988  -3.377   0.000  0.00  0.00    +0.000 C 
ATOM     30  N   UNL     1      -1.540  -2.764   0.000  0.00  0.00    +0.000 NA
ATOM     31  C   UNL     1      -1.285  -1.979   0.000  0.00  0.00    +0.000 C 
ATOM     32  C   UNL     1      -0.478  -1.808   0.000  0.00  0.00    +0.000 C 
BRANCH  30  33
ATOM     33  C   UNL     1      -2.347  -2.936   0.000  0.00  0.00    +0.000 C 
BRANCH  33  34
ATOM     34  C   UNL     1      -2.602  -3.720   0.000  0.00  0.00    +0.000 C 
ATOM     35  F   UNL     1      -2.857  -4.505   0.000  0.00  0.00    +0.000 F 
ATOM     36  F   UNL     1      -3.386  -3.465   0.000  0.00  0.00    +0.000 F 
ATOM     37  F   UNL     1      -1.817  -3.975   0.000  0.00  0.00    +0.000 F 
ENDBRANCH  33  34
ENDBRANCH  30  33
ENDBRANCH  25  27
ENDBRANCH   4  25
TORSDOF 8
