REMARK  Name = 
REMARK  4 active torsions:
REMARK  status: ('A' for Active; 'I' for Inactive)
REMARK    1  A    between atoms: C_5  and  N_7
REMARK    2  A    between atoms: N_10  and  C_11
REMARK    3  A    between atoms: N_14  and  C_16
REMARK    4  A    between atoms: C_19  and  C_22
REMARK                            x       y       z     vdW  Elec       q    Type
REMARK                         _______ _______ _______ _____ _____    ______ ____
ROOT
ATOM      1  C   UNL     1       0.715  -1.238   0.000  0.00  0.00    +0.000 C 
ATOM      2  C   UNL     1       1.382  -1.722   0.000  0.00  0.00    +0.000 C 
ATOM      3  C   UNL     1       1.127  -2.507   0.000  0.00  0.00    +0.000 C 
ATOM      4  N   UNL     1       0.302  -2.507   0.000  0.00  0.00    +0.000 N 
ATOM      5  C   UNL     1       0.047  -1.722   0.000  0.00  0.00    +0.000 C 
ENDROOT
BRANCH   4   6
ATOM      6  C   UNL     1      -0.183  -3.175   0.000  0.00  0.00    +0.000 A 
ATOM      7  C   UNL     1       0.153  -3.928   0.000  0.00  0.00    +0.000 A 
ATOM      8  C   UNL     1      -0.332  -4.596   0.000  0.00  0.00    +0.000 A 
ATOM      9  C   UNL     1      -1.153  -4.509   0.000  0.00  0.00    +0.000 A 
ATOM     10  C   UNL     1      -1.488  -3.756   0.000  0.00  0.00    +0.000 A 
ATOM     11  N   UNL     1      -1.003  -3.088   0.000  0.00  0.00    +0.000 NA
BRANCH   9  12
ATOM     12  C   UNL     1      -1.638  -5.177   0.000  0.00  0.00    +0.000 C 
ATOM     13  F   UNL     1      -2.123  -5.844   0.000  0.00  0.00    +0.000 F 
ATOM     14  F   UNL     1      -2.305  -4.692   0.000  0.00  0.00    +0.000 F 
ATOM     15  F   UNL     1      -0.970  -5.662   0.000  0.00  0.00    +0.000 F 
ENDBRANCH   9  12
ENDBRANCH   4   6
BRANCH   1  19
ATOM     16  N   UNL     1       1.429   0.825   0.000  0.00  0.00    +0.000 NA
ATOM     17  C   UNL     1       1.429   0.000   0.000  0.00  0.00    +0.000 C 
ATOM     18  O   UNL     1       2.143  -0.412   0.000  0.00  0.00    +0.000 OA
ATOM     19  N   UNL     1       0.715  -0.412   0.000  0.00  0.00    +0.000 NA
BRANCH  16  24
ATOM     20  C   UNL     1       2.858   2.475   0.000  0.00  0.00    +0.000 A 
ATOM     21  C   UNL     1       3.572   2.062   0.000  0.00  0.00    +0.000 A 
ATOM     22  C   UNL     1       3.572   1.238   0.000  0.00  0.00    +0.000 A 
ATOM     23  C   UNL     1       2.858   0.825   0.000  0.00  0.00    +0.000 A 
ATOM     24  C   UNL     1       2.143   1.238   0.000  0.00  0.00    +0.000 A 
ATOM     25  C   UNL     1       2.143   2.062   0.000  0.00  0.00    +0.000 A 
ATOM     26 BR   UNL     1       2.858   0.000   0.000  0.00  0.00    +0.000 Br
ENDBRANCH  16  24
ENDBRANCH   1  19
TORSDOF 4
