REMARK  Name = 
REMARK  6 active torsions:
REMARK  status: ('A' for Active; 'I' for Inactive)
REMARK    1  A    between atoms: C_2  and  C_3
REMARK    2  A    between atoms: C_3  and  C_20
REMARK    3  A    between atoms: N_7  and  C_9
REMARK    4  A    between atoms: C_9  and  C_10
REMARK    5  A    between atoms: C_24  and  N_26
REMARK    6  A    between atoms: N_26  and  S_27
REMARK                            x       y       z     vdW  Elec       q    Type
REMARK                         _______ _______ _______ _____ _____    ______ ____
ROOT
ATOM      1  C   UNL     1       0.625  -3.998   0.000  0.00  0.00    +0.000 C 
ATOM      2  C   UNL     1       0.880  -3.213   0.000  0.00  0.00    +0.000 C 
ATOM      3  C   UNL     1       0.073  -3.385   0.000  0.00  0.00    +0.000 C 
ATOM      4  C   UNL     1      -0.340  -2.670   0.000  0.00  0.00    +0.000 C 
ATOM      5  N   UNL     1       0.212  -2.057   0.000  0.00  0.00    +0.000 NA
ATOM      6  C   UNL     1       0.966  -2.393   0.000  0.00  0.00    +0.000 C 
ENDROOT
BRANCH   1   7
ATOM      7  C   UNL     1       1.353  -4.385   0.000  0.00  0.00    +0.000 A 
ATOM      8  C   UNL     1       2.053  -3.948   0.000  0.00  0.00    +0.000 A 
ATOM      9  C   UNL     1       2.781  -4.335   0.000  0.00  0.00    +0.000 A 
ATOM     10  C   UNL     1       2.810  -5.160   0.000  0.00  0.00    +0.000 A 
ATOM     11  C   UNL     1       2.110  -5.597   0.000  0.00  0.00    +0.000 A 
ATOM     12  C   UNL     1       1.382  -5.209   0.000  0.00  0.00    +0.000 A 
BRANCH  11  13
ATOM     13  N   UNL     1       2.139  -6.421   0.000  0.00  0.00    +0.000 NA
BRANCH  13  14
ATOM     14  S   UNL     1       2.868  -6.809   0.000  0.00  0.00    +0.000 S 
ATOM     15  O   UNL     1       3.596  -7.196   0.000  0.00  0.00    +0.000 OA
ATOM     16  O   UNL     1       2.480  -7.537   0.000  0.00  0.00    +0.000 OA
ATOM     17  C   UNL     1       3.255  -6.080   0.000  0.00  0.00    +0.000 C 
ENDBRANCH  13  14
ENDBRANCH  11  13
ENDBRANCH   1   7
BRANCH   1  19
ATOM     18  C   UNL     1       0.426  -5.413   0.000  0.00  0.00    +0.000 C 
ATOM     19  C   UNL     1       0.117  -4.648   0.000  0.00  0.00    +0.000 C 
ENDBRANCH   1  19
BRANCH   5  20
ATOM     20  C   UNL     1       0.041  -1.250   0.000  0.00  0.00    +0.000 C 
BRANCH  20  21
ATOM     21  C   UNL     1       0.654  -0.698   0.000  0.00  0.00    +0.000 C 
ATOM     22  C   UNL     1       1.139  -0.030   0.000  0.00  0.00    +0.000 C 
ATOM     23  C   UNL     1       1.923  -0.285   0.000  0.00  0.00    +0.000 A 
ATOM     24  C   UNL     1       2.638   0.127   0.000  0.00  0.00    +0.000 A 
ATOM     25  C   UNL     1       3.352  -0.285   0.000  0.00  0.00    +0.000 A 
ATOM     26  C   UNL     1       3.352  -1.110   0.000  0.00  0.00    +0.000 A 
ATOM     27  C   UNL     1       2.638  -1.523   0.000  0.00  0.00    +0.000 A 
ATOM     28  C   UNL     1       1.923  -1.110   0.000  0.00  0.00    +0.000 A 
ATOM     29  C   UNL     1       1.139  -1.365   0.000  0.00  0.00    +0.000 C 
ATOM     30  O   UNL     1       0.041  -0.146   0.000  0.00  0.00    +0.000 OA
ENDBRANCH  20  21
ENDBRANCH   5  20
TORSDOF 6
