REMARK  Name = 
REMARK  4 active torsions:
REMARK  status: ('A' for Active; 'I' for Inactive)
REMARK    1  A    between atoms: C_5  and  C_12
REMARK    2  A    between atoms: C_14  and  N_15
REMARK    3  A    between atoms: C_16  and  C_18
REMARK    4  A    between atoms: C_21  and  C_24
REMARK                            x       y       z     vdW  Elec       q    Type
REMARK                         _______ _______ _______ _____ _____    ______ ____
ROOT
ATOM      1  C   UNL     1       1.837   0.535   0.000  0.00  0.00    +0.000 A 
ATOM      2  C   UNL     1       1.083   0.871   0.000  0.00  0.00    +0.000 A 
ATOM      3  C   UNL     1       0.997   1.691   0.000  0.00  0.00    +0.000 A 
ATOM      4  C   UNL     1       1.665   2.176   0.000  0.00  0.00    +0.000 A 
ATOM      5  C   UNL     1       2.418   1.840   0.000  0.00  0.00    +0.000 A 
ATOM      6  C   UNL     1       2.505   1.020   0.000  0.00  0.00    +0.000 A 
ATOM      7  F   UNL     1       3.258   0.684   0.000  0.00  0.00    +0.000 F 
ENDROOT
BRANCH   1  12
ATOM      8  C   UNL     1       0.884  -2.150   0.000  0.00  0.00    +0.000 C 
ATOM      9  C   UNL     1       1.139  -1.365   0.000  0.00  0.00    +0.000 C 
ATOM     10  O   UNL     1       0.654  -0.698   0.000  0.00  0.00    +0.000 OA
ATOM     11  C   UNL     1       1.139  -0.030   0.000  0.00  0.00    +0.000 C 
ATOM     12  C   UNL     1       1.923  -0.285   0.000  0.00  0.00    +0.000 C 
ATOM     13  N   UNL     1       2.638   0.127   0.000  0.00  0.00    +0.000 NA
ATOM     14  C   UNL     1       3.352  -0.285   0.000  0.00  0.00    +0.000 C 
ATOM     15  N   UNL     1       4.067   0.127   0.000  0.00  0.00    +0.000 NA
ATOM     16  S   UNL     1       3.352  -1.110   0.000  0.00  0.00    +0.000 S 
ATOM     17  C   UNL     1       2.638  -1.523   0.000  0.00  0.00    +0.000 C 
ATOM     18  C   UNL     1       1.923  -1.110   0.000  0.00  0.00    +0.000 C 
ENDBRANCH   1  12
BRANCH   3  19
ATOM     19  N   UNL     1       0.243   2.027   0.000  0.00  0.00    +0.000 NA
ATOM     20  C   UNL     1      -0.424   1.542   0.000  0.00  0.00    +0.000 C 
ATOM     21  O   UNL     1      -0.338   0.721   0.000  0.00  0.00    +0.000 OA
BRANCH  20  22
ATOM     22  C   UNL     1      -1.178   1.877   0.000  0.00  0.00    +0.000 A 
ATOM     23  N   UNL     1      -1.845   1.392   0.000  0.00  0.00    +0.000 NA
ATOM     24  C   UNL     1      -2.599   1.728   0.000  0.00  0.00    +0.000 A 
ATOM     25  C   UNL     1      -2.685   2.548   0.000  0.00  0.00    +0.000 A 
ATOM     26  N   UNL     1      -2.018   3.033   0.000  0.00  0.00    +0.000 NA
ATOM     27  C   UNL     1      -1.264   2.698   0.000  0.00  0.00    +0.000 A 
BRANCH  25  28
ATOM     28  C   UNL     1      -3.439   2.884   0.000  0.00  0.00    +0.000 C 
ATOM     29  F   UNL     1      -4.106   2.399   0.000  0.00  0.00    +0.000 F 
ATOM     30  F   UNL     1      -3.525   3.704   0.000  0.00  0.00    +0.000 F 
ENDBRANCH  25  28
ENDBRANCH  20  22
ENDBRANCH   3  19
TORSDOF 4
