REMARK  Name = 
REMARK  11 active torsions:
REMARK  status: ('A' for Active; 'I' for Inactive)
REMARK    1  A    between atoms: C_3  and  C_13
REMARK    2  A    between atoms: C_5  and  C_7
REMARK    3  A    between atoms: C_13  and  O_14
REMARK    4  A    between atoms: O_14  and  C_15
REMARK    5  A    between atoms: C_18  and  C_21
REMARK    6  A    between atoms: C_21  and  O_22
REMARK    7  A    between atoms: O_22  and  N_23
REMARK    8  A    between atoms: C_24  and  C_25
REMARK    9  A    between atoms: C_24  and  C_30
REMARK   10  A    between atoms: C_25  and  C_26
REMARK   11  A    between atoms: C_26  and  C_27
REMARK                            x       y       z     vdW  Elec       q    Type
REMARK                         _______ _______ _______ _____ _____    ______ ____
ROOT
ATOM      1  C   UNL     1       5.266  -6.593   0.000  0.00  0.00    +0.000 A 
ATOM      2  C   UNL     1       5.438  -5.786   0.000  0.00  0.00    +0.000 A 
ATOM      3  C   UNL     1       6.222  -5.531   0.000  0.00  0.00    +0.000 A 
ATOM      4  C   UNL     1       6.835  -6.083   0.000  0.00  0.00    +0.000 A 
ATOM      5  C   UNL     1       6.664  -6.890   0.000  0.00  0.00    +0.000 A 
ATOM      6  C   UNL     1       5.879  -7.145   0.000  0.00  0.00    +0.000 A 
ENDROOT
BRANCH   4   7
ATOM      7  C   UNL     1       7.620  -5.828   0.000  0.00  0.00    +0.000 C 
BRANCH   7   8
ATOM      8  O   UNL     1       7.792  -5.021   0.000  0.00  0.00    +0.000 OA
BRANCH   8   9
ATOM      9  N   UNL     1       8.576  -4.766   0.000  0.00  0.00    +0.000 NA
ATOM     10  C   UNL     1       8.748  -3.959   0.000  0.00  0.00    +0.000 C 
BRANCH  10  11
ATOM     11  C   UNL     1       9.532  -3.704   0.000  0.00  0.00    +0.000 A 
ATOM     12  C   UNL     1       9.704  -2.897   0.000  0.00  0.00    +0.000 A 
ATOM     13  C   UNL     1      10.488  -2.643   0.000  0.00  0.00    +0.000 A 
ATOM     14  C   UNL     1      11.101  -3.195   0.000  0.00  0.00    +0.000 A 
ATOM     15  C   UNL     1      10.930  -4.002   0.000  0.00  0.00    +0.000 A 
ATOM     16  C   UNL     1      10.145  -4.256   0.000  0.00  0.00    +0.000 A 
ENDBRANCH  10  11
BRANCH  10  17
ATOM     17  C   UNL     1       8.134  -3.407   0.000  0.00  0.00    +0.000 C 
BRANCH  17  18
ATOM     18  C   UNL     1       7.350  -3.662   0.000  0.00  0.00    +0.000 C 
BRANCH  18  19
ATOM     19  C   UNL     1       6.737  -3.110   0.000  0.00  0.00    +0.000 C 
ATOM     20  O   UNL     1       6.908  -2.303   0.000  0.00  0.00    +0.000 OA
ATOM     21  O   UNL     1       5.952  -3.365   0.000  0.00  0.00    +0.000 OA
ENDBRANCH  18  19
ENDBRANCH  17  18
ENDBRANCH  10  17
ENDBRANCH   8   9
ENDBRANCH   7   8
ENDBRANCH   4   7
BRANCH   1  22
ATOM     22  O   UNL     1       4.481  -6.848   0.000  0.00  0.00    +0.000 OA
BRANCH  22  23
ATOM     23  C   UNL     1       4.310  -7.655   0.000  0.00  0.00    +0.000 C 
BRANCH  23  26
ATOM     24  C   UNL     1       2.858  -6.600   0.000  0.00  0.00    +0.000 C 
ATOM     25  C   UNL     1       2.858  -7.425   0.000  0.00  0.00    +0.000 A 
ATOM     26  C   UNL     1       3.525  -7.910   0.000  0.00  0.00    +0.000 A 
ATOM     27  N   UNL     1       3.270  -8.694   0.000  0.00  0.00    +0.000 NA
ATOM     28  C   UNL     1       2.445  -8.694   0.000  0.00  0.00    +0.000 A 
ATOM     29  O   UNL     1       2.190  -7.910   0.000  0.00  0.00    +0.000 OA
BRANCH  28  30
ATOM     30  C   UNL     1       1.960  -9.362   0.000  0.00  0.00    +0.000 A 
ATOM     31  C   UNL     1       2.296 -10.116   0.000  0.00  0.00    +0.000 A 
ATOM     32  C   UNL     1       1.811 -10.783   0.000  0.00  0.00    +0.000 A 
ATOM     33  C   UNL     1       0.991 -10.697   0.000  0.00  0.00    +0.000 A 
ATOM     34  C   UNL     1       0.655  -9.943   0.000  0.00  0.00    +0.000 A 
ATOM     35  C   UNL     1       1.140  -9.276   0.000  0.00  0.00    +0.000 A 
ENDBRANCH  28  30
ENDBRANCH  23  26
ENDBRANCH  22  23
ENDBRANCH   1  22
TORSDOF 11
