REMARK  Name = 
REMARK  3 active torsions:
REMARK  status: ('A' for Active; 'I' for Inactive)
REMARK    1  A    between atoms: O_2  and  C_3
REMARK    2  A    between atoms: C_6  and  N_9
REMARK    3  A    between atoms: N_9  and  C_11
REMARK                            x       y       z     vdW  Elec       q    Type
REMARK                         _______ _______ _______ _____ _____    ______ ____
ROOT
ATOM      1  C   UNL     1       0.715  -0.412   0.000  0.00  0.00    +0.000 A 
ATOM      2  C   UNL     1       0.000   0.000   0.000  0.00  0.00    +0.000 A 
ATOM      3  C   UNL     1      -0.785  -0.255   0.000  0.00  0.00    +0.000 A 
ATOM      4  C   UNL     1      -1.270   0.412   0.000  0.00  0.00    +0.000 A 
ATOM      5  C   UNL     1      -2.095   0.412   0.000  0.00  0.00    +0.000 C 
ATOM      6  O   UNL     1      -0.785   1.080   0.000  0.00  0.00    +0.000 OA
ATOM      7  C   UNL     1       0.000   0.825   0.000  0.00  0.00    +0.000 A 
ATOM      8  N   UNL     1       0.715   1.238   0.000  0.00  0.00    +0.000 NA
ATOM      9  C   UNL     1       1.429   0.825   0.000  0.00  0.00    +0.000 A 
ATOM     10  C   UNL     1       2.143   1.238   0.000  0.00  0.00    +0.000 C 
ATOM     11  N   UNL     1       1.429   0.000   0.000  0.00  0.00    +0.000 NA
ENDROOT
BRANCH   1  12
ATOM     12  N   UNL     1       0.715  -1.238   0.000  0.00  0.00    +0.000 N 
ATOM     13  C   UNL     1       0.000  -1.650   0.000  0.00  0.00    +0.000 C 
BRANCH  12  17
ATOM     14  C   UNL     1       2.858  -2.475   0.000  0.00  0.00    +0.000 A 
ATOM     15  C   UNL     1       2.143  -2.888   0.000  0.00  0.00    +0.000 A 
ATOM     16  C   UNL     1       1.429  -2.475   0.000  0.00  0.00    +0.000 A 
ATOM     17  C   UNL     1       1.429  -1.650   0.000  0.00  0.00    +0.000 A 
ATOM     18  C   UNL     1       2.143  -1.238   0.000  0.00  0.00    +0.000 A 
ATOM     19  C   UNL     1       2.858  -1.650   0.000  0.00  0.00    +0.000 A 
BRANCH  14  21
ATOM     20  C   UNL     1       4.287  -2.475   0.000  0.00  0.00    +0.000 C 
ATOM     21  O   UNL     1       3.572  -2.888   0.000  0.00  0.00    +0.000 OA
ENDBRANCH  14  21
ENDBRANCH  12  17
ENDBRANCH   1  12
TORSDOF 3
