REMARK  Name = 
REMARK  7 active torsions:
REMARK  status: ('A' for Active; 'I' for Inactive)
REMARK    1  A    between atoms: C_2  and  O_7
REMARK    2  A    between atoms: C_3  and  O_9
REMARK    3  A    between atoms: C_5  and  C_11
REMARK    4  A    between atoms: C_11  and  C_12
REMARK    5  A    between atoms: C_12  and  O_13
REMARK    6  A    between atoms: O_13  and  C_14
REMARK    7  A    between atoms: C_19  and  N_20
REMARK                            x       y       z     vdW  Elec       q    Type
REMARK                         _______ _______ _______ _____ _____    ______ ____
ROOT
ATOM      1  O   UNL     1       0.652  -0.117   0.000  0.00  0.00    +0.000 OA
ENDROOT
BRANCH   1   2
ATOM      2  C   UNL     1       1.366   0.296   0.000  0.00  0.00    +0.000 C 
ATOM      3  C   UNL     1       2.604   1.010   0.000  0.00  0.00    +0.000 C 
ATOM      4  C   UNL     1       2.191   1.724   0.000  0.00  0.00    +0.000 C 
ATOM      5  C   UNL     1       1.366   1.724   0.000  0.00  0.00    +0.000 C 
ATOM      6  C   UNL     1       0.954   1.010   0.000  0.00  0.00    +0.000 C 
ATOM      7  C   UNL     1       2.191   0.296   0.000  0.00  0.00    +0.000 C 
BRANCH   7   8
ATOM      8  N   UNL     1       2.604  -0.419   0.000  0.00  0.00    +0.000 NA
ATOM      9  C   UNL     1       2.268  -1.173   0.000  0.00  0.00    +0.000 C 
ATOM     10  C   UNL     1       2.881  -1.724   0.000  0.00  0.00    +0.000 C 
ATOM     11  C   UNL     1       3.596  -1.312   0.000  0.00  0.00    +0.000 C 
ATOM     12  C   UNL     1       3.424  -0.505   0.000  0.00  0.00    +0.000 C 
ATOM     13  O   UNL     1       4.349  -1.647   0.000  0.00  0.00    +0.000 OA
ENDBRANCH   7   8
ENDBRANCH   1   2
BRANCH   1  14
ATOM     14  C   UNL     1      -0.062   0.296   0.000  0.00  0.00    +0.000 C 
BRANCH  14  15
ATOM     15  C   UNL     1      -0.777  -0.117   0.000  0.00  0.00    +0.000 C 
BRANCH  15  20
ATOM     16  C   UNL     1      -2.206   1.533   0.000  0.00  0.00    +0.000 A 
ATOM     17  C   UNL     1      -2.920   1.121   0.000  0.00  0.00    +0.000 A 
ATOM     18  C   UNL     1      -2.920   0.296   0.000  0.00  0.00    +0.000 A 
ATOM     19  C   UNL     1      -2.206  -0.117   0.000  0.00  0.00    +0.000 A 
ATOM     20  C   UNL     1      -1.491   0.296   0.000  0.00  0.00    +0.000 A 
ATOM     21  C   UNL     1      -1.491   1.121   0.000  0.00  0.00    +0.000 A 
BRANCH  18  22
ATOM     22  O   UNL     1      -3.635  -0.117   0.000  0.00  0.00    +0.000 OA
ATOM     23  C   UNL     1      -3.635  -0.942   0.000  0.00  0.00    +0.000 C 
ENDBRANCH  18  22
BRANCH  17  24
ATOM     24  O   UNL     1      -3.635   1.533   0.000  0.00  0.00    +0.000 OA
ATOM     25  C   UNL     1      -4.349   1.121   0.000  0.00  0.00    +0.000 C 
ENDBRANCH  17  24
ENDBRANCH  15  20
ENDBRANCH  14  15
ENDBRANCH   1  14
TORSDOF 7
