REMARK  Name = 
REMARK  14 active torsions:
REMARK  status: ('A' for Active; 'I' for Inactive)
REMARK    1  A    between atoms: P_1  and  O_9
REMARK    2  A    between atoms: P_1  and  O_11
REMARK    3  A    between atoms: P_2  and  O_10
REMARK    4  A    between atoms: P_2  and  O_11
REMARK    5  A    between atoms: O_9  and  C_33
REMARK    6  A    between atoms: O_10  and  C_34
REMARK    7  A    between atoms: N_18  and  C_28
REMARK    8  A    between atoms: N_19  and  C_32
REMARK    9  A    between atoms: N_23  and  C_43
REMARK   10  A    between atoms: C_27  and  C_33
REMARK   11  A    between atoms: C_31  and  C_34
REMARK   12  A    between atoms: C_40  and  C_45
REMARK   13  A    between atoms: C_41  and  C_44
REMARK   14  A    between atoms: C_44  and  C_47
REMARK                            x       y       z     vdW  Elec       q    Type
REMARK                         _______ _______ _______ _____ _____    ______ ____
ROOT
ATOM      1  P   UNL     1      -0.144   1.801   0.000  0.00  0.00    +0.000 P 
ATOM      2  O   UNL     1       0.342   2.467   0.000  0.00  0.00    +0.000 OA
ATOM      3  O   UNL     1      -0.630   1.134   0.000  0.00  0.00    +0.000 OA
ENDROOT
BRANCH   1   4
ATOM      4  O   UNL     1      -0.811   2.287   0.000  0.00  0.00    +0.000 OA
BRANCH   4   5
ATOM      5  P   UNL     1      -1.565   1.953   0.000  0.00  0.00    +0.000 P 
ATOM      6  O   UNL     1      -1.231   1.198   0.000  0.00  0.00    +0.000 OA
ATOM      7  O   UNL     1      -1.899   2.707   0.000  0.00  0.00    +0.000 OA
BRANCH   5   8
ATOM      8  O   UNL     1      -2.319   1.618   0.000  0.00  0.00    +0.000 OA
BRANCH   8   9
ATOM      9  C   UNL     1      -2.986   2.104   0.000  0.00  0.00    +0.000 C 
BRANCH   9  15
ATOM     10  O   UNL     1      -3.913   0.964   0.000  0.00  0.00    +0.000 OA
ATOM     11  O   UNL     1      -4.539   3.005   0.000  0.00  0.00    +0.000 OA
ATOM     12  O   UNL     1      -5.875   1.806   0.000  0.00  0.00    +0.000 OA
ATOM     13  C   UNL     1      -4.454   2.184   0.000  0.00  0.00    +0.000 C 
ATOM     14  C   UNL     1      -5.068   1.633   0.000  0.00  0.00    +0.000 C 
ATOM     15  C   UNL     1      -3.740   1.770   0.000  0.00  0.00    +0.000 C 
ATOM     16  C   UNL     1      -4.734   0.879   0.000  0.00  0.00    +0.000 C 
BRANCH  16  17
ATOM     17  N   UNL     1      -5.147   0.165   0.000  0.00  0.00    +0.000 N 
ATOM     18  N   UNL     1      -5.423  -1.134   0.000  0.00  0.00    +0.000 NA
ATOM     19  N   UNL     1      -6.576   0.633   0.000  0.00  0.00    +0.000 NA
ATOM     20  N   UNL     1      -7.532  -0.428   0.000  0.00  0.00    +0.000 NA
ATOM     21  C   UNL     1      -5.963   0.081   0.000  0.00  0.00    +0.000 A 
ATOM     22  C   UNL     1      -4.814  -0.584   0.000  0.00  0.00    +0.000 A 
ATOM     23  C   UNL     1      -6.135  -0.726   0.000  0.00  0.00    +0.000 A 
ATOM     24  C   UNL     1      -6.919  -0.980   0.000  0.00  0.00    +0.000 A 
ATOM     25  C   UNL     1      -7.361   0.379   0.000  0.00  0.00    +0.000 A 
BRANCH  24  26
ATOM     26  N   UNL     1      -7.091  -1.787   0.000  0.00  0.00    +0.000 N 
ATOM     27  H   UNL     1      -6.711  -2.130   0.000  0.00  0.00    +0.000 HD
ATOM     28  H   UNL     1      -7.577  -1.946   0.000  0.00  0.00    +0.000 HD
ENDBRANCH  24  26
ENDBRANCH  16  17
ENDBRANCH   9  15
ENDBRANCH   8   9
ENDBRANCH   5   8
ENDBRANCH   4   5
ENDBRANCH   1   4
BRANCH   1  29
ATOM     29  O   UNL     1       0.522   1.315   0.000  0.00  0.00    +0.000 OA
BRANCH  29  30
ATOM     30  C   UNL     1       1.276   1.649   0.000  0.00  0.00    +0.000 C 
BRANCH  30  36
ATOM     31  O   UNL     1       2.728   1.417   0.000  0.00  0.00    +0.000 OA
ATOM     32  O   UNL     1       1.273  -0.146   0.000  0.00  0.00    +0.000 OA
ATOM     33  O   UNL     1       2.979  -0.703   0.000  0.00  0.00    +0.000 OA
ATOM     34  C   UNL     1       1.942   0.338   0.000  0.00  0.00    +0.000 C 
ATOM     35  C   UNL     1       2.726   0.082   0.000  0.00  0.00    +0.000 C 
ATOM     36  C   UNL     1       1.943   1.163   0.000  0.00  0.00    +0.000 C 
ATOM     37  C   UNL     1       3.212   0.748   0.000  0.00  0.00    +0.000 C 
BRANCH  37  38
ATOM     38  N   UNL     1       4.037   0.747   0.000  0.00  0.00    +0.000 N 
ATOM     39  C   UNL     1       4.448   0.032   0.000  0.00  0.00    +0.000 A 
ATOM     40  C   UNL     1       4.451   1.460   0.000  0.00  0.00    +0.000 A 
ATOM     41  C   UNL     1       5.273   0.030   0.000  0.00  0.00    +0.000 A 
ATOM     42  C   UNL     1       5.687   0.744   0.000  0.00  0.00    +0.000 A 
ATOM     43  C   UNL     1       5.276   1.459   0.000  0.00  0.00    +0.000 A 
BRANCH  41  46
ATOM     44  O   UNL     1       5.271  -1.399   0.000  0.00  0.00    +0.000 OA
ATOM     45  N   UNL     1       6.510  -0.686   0.000  0.00  0.00    +0.000 N 
ATOM     46  C   UNL     1       5.684  -0.685   0.000  0.00  0.00    +0.000 C 
ATOM     47  H   UNL     1       6.766  -0.244   0.000  0.00  0.00    +0.000 HD
ATOM     48  H   UNL     1       6.764  -1.130   0.000  0.00  0.00    +0.000 HD
ENDBRANCH  41  46
BRANCH  42  49
ATOM     49  C   UNL     1       6.512   0.743   0.000  0.00  0.00    +0.000 C 
BRANCH  49  51
ATOM     50  O   UNL     1       6.514   2.171   0.000  0.00  0.00    +0.000 OA
ATOM     51  C   UNL     1       6.926   1.456   0.000  0.00  0.00    +0.000 C 
ATOM     52  C   UNL     1       7.751   1.455   0.000  0.00  0.00    +0.000 C 
ENDBRANCH  49  51
ENDBRANCH  42  49
ENDBRANCH  37  38
ENDBRANCH  30  36
ENDBRANCH  29  30
ENDBRANCH   1  29
TORSDOF 14
