REMARK  Name = 
REMARK  5 active torsions:
REMARK  status: ('A' for Active; 'I' for Inactive)
REMARK    1  A    between atoms: C_2  and  C_3
REMARK    2  A    between atoms: C_3  and  N_4
REMARK    3  A    between atoms: N_9  and  C_12
REMARK    4  A    between atoms: C_12  and  C_13
REMARK    5  A    between atoms: C_16  and  C_18
REMARK                            x       y       z     vdW  Elec       q    Type
REMARK                         _______ _______ _______ _____ _____    ______ ____
ROOT
ATOM      1  N   UNL     1       0.502  -2.428   0.000  0.00  0.00    +0.000 N 
ATOM      2  C   UNL     1       0.915  -1.713   0.000  0.00  0.00    +0.000 A 
ATOM      3  C   UNL     1       1.740  -1.713   0.000  0.00  0.00    +0.000 A 
ATOM      4  C   UNL     1       2.152  -2.428   0.000  0.00  0.00    +0.000 A 
ATOM      5  O   UNL     1       2.978  -2.428   0.000  0.00  0.00    +0.000 OA
ATOM      6  N   UNL     1       1.740  -3.142   0.000  0.00  0.00    +0.000 N 
ATOM      7  C   UNL     1       0.915  -3.142   0.000  0.00  0.00    +0.000 A 
ATOM      8  O   UNL     1       0.502  -3.857   0.000  0.00  0.00    +0.000 OA
ATOM      9  N   UNL     1       1.995  -0.929   0.000  0.00  0.00    +0.000 NA
ATOM     10  C   UNL     1       1.327  -0.444   0.000  0.00  0.00    +0.000 A 
ATOM     11  N   UNL     1       0.660  -0.929   0.000  0.00  0.00    +0.000 NA
ENDROOT
BRANCH  10  12
ATOM     12  C   UNL     1       1.327   0.381   0.000  0.00  0.00    +0.000 C 
ATOM     13  C   UNL     1       0.551   0.032   0.000  0.00  0.00    +0.000 C 
ATOM     14  C   UNL     1       0.461   0.865   0.000  0.00  0.00    +0.000 C 
ATOM     15  C   UNL     1       1.327   0.890   0.000  0.00  0.00    +0.000 C 
ATOM     16  C   UNL     1       2.194   0.865   0.000  0.00  0.00    +0.000 C 
ATOM     17  C   UNL     1       2.103   0.032   0.000  0.00  0.00    +0.000 C 
ATOM     18  C   UNL     1       2.129   1.697   0.000  0.00  0.00    +0.000 C 
ATOM     19  C   UNL     1       1.327   1.407   0.000  0.00  0.00    +0.000 C 
ATOM     20  C   UNL     1       0.526   1.697   0.000  0.00  0.00    +0.000 C 
ENDBRANCH  10  12
BRANCH   1  21
ATOM     21  C   UNL     1      -0.323  -2.428   0.000  0.00  0.00    +0.000 C 
BRANCH  21  23
ATOM     22  C   UNL     1      -1.560  -3.142   0.000  0.00  0.00    +0.000 C 
ATOM     23  C   UNL     1      -0.735  -3.142   0.000  0.00  0.00    +0.000 C 
ENDBRANCH  21  23
ENDBRANCH   1  21
BRANCH   6  24
ATOM     24  C   UNL     1       2.152  -3.857   0.000  0.00  0.00    +0.000 C 
BRANCH  24  25
ATOM     25  C   UNL     1       1.740  -4.571   0.000  0.00  0.00    +0.000 C 
ATOM     26  C   UNL     1       2.152  -5.286   0.000  0.00  0.00    +0.000 C 
ENDBRANCH  24  25
ENDBRANCH   6  24
TORSDOF 5
