REMARK  Name = 
REMARK  11 active torsions:
REMARK  status: ('A' for Active; 'I' for Inactive)
REMARK    1  A    between atoms: O_5  and  C_14
REMARK    2  A    between atoms: O_5  and  C_19
REMARK    3  A    between atoms: O_6  and  C_38
REMARK    4  A    between atoms: O_6  and  C_39
REMARK    5  A    between atoms: N_8  and  C_17
REMARK    6  A    between atoms: C_14  and  C_15
REMARK    7  A    between atoms: C_14  and  C_16
REMARK    8  A    between atoms: C_25  and  C_29
REMARK    9  A    between atoms: C_32  and  C_37
REMARK   10  A    between atoms: C_36  and  C_37
REMARK   11  A    between atoms: C_36  and  C_38
REMARK                            x       y       z     vdW  Elec       q    Type
REMARK                         _______ _______ _______ _____ _____    ______ ____
ROOT
ATOM      1  N   UNL     1       2.147  -1.816   0.000  0.00  0.00    +0.000 NA
ATOM      2  N   UNL     1       0.718  -1.816   0.000  0.00  0.00    +0.000 NA
ATOM      3  N   UNL     1       1.432  -2.888   0.000  0.00  0.00    +0.000 NA
ATOM      4  C   UNL     1       2.147  -0.991   0.000  0.00  0.00    +0.000 A 
ATOM      5  C   UNL     1       1.432  -0.578   0.000  0.00  0.00    +0.000 A 
ATOM      6  C   UNL     1       0.718  -0.991   0.000  0.00  0.00    +0.000 A 
ATOM      7  C   UNL     1       1.432  -2.228   0.000  0.00  0.00    +0.000 A 
ENDROOT
BRANCH   6   8
ATOM      8  C   UNL     1       0.003  -0.578   0.000  0.00  0.00    +0.000 A 
ATOM      9  C   UNL     1       0.002   0.247   0.000  0.00  0.00    +0.000 A 
ATOM     10  C   UNL     1      -0.711  -0.992   0.000  0.00  0.00    +0.000 A 
ATOM     11  C   UNL     1      -1.427   0.245   0.000  0.00  0.00    +0.000 A 
ATOM     12  C   UNL     1      -0.714   0.658   0.000  0.00  0.00    +0.000 A 
ATOM     13  C   UNL     1      -1.426  -0.580   0.000  0.00  0.00    +0.000 A 
BRANCH  11  14
ATOM     14  C   UNL     1      -2.144   0.655   0.000  0.00  0.00    +0.000 C 
BRANCH  14  16
ATOM     15  N   UNL     1      -2.855  -0.420   0.000  0.00  0.00    +0.000 NA
ATOM     16  C   UNL     1      -2.857   0.240   0.000  0.00  0.00    +0.000 C 
BRANCH  16  18
ATOM     17  O   UNL     1      -3.576   1.310   0.000  0.00  0.00    +0.000 OA
ATOM     18  C   UNL     1      -3.573   0.650   0.000  0.00  0.00    +0.000 C 
BRANCH  18  19
ATOM     19  O   UNL     1      -4.287   0.235   0.000  0.00  0.00    +0.000 OA
BRANCH  19  20
ATOM     20  C   UNL     1      -5.003   0.645   0.000  0.00  0.00    +0.000 C 
ATOM     21  C   UNL     1      -5.574   0.314   0.000  0.00  0.00    +0.000 C 
ENDBRANCH  19  20
ENDBRANCH  18  19
ENDBRANCH  16  18
ENDBRANCH  14  16
ENDBRANCH  11  14
ENDBRANCH   6   8
BRANCH   4  22
ATOM     22  O   UNL     1       2.861  -0.577   0.000  0.00  0.00    +0.000 OA
BRANCH  22  23
ATOM     23  C   UNL     1       2.860   0.249   0.000  0.00  0.00    +0.000 C 
BRANCH  23  25
ATOM     24 CL   UNL     1       5.574   1.818   0.000  0.00  0.00    +0.000 Cl
ATOM     25  C   UNL     1       3.574   0.663   0.000  0.00  0.00    +0.000 A 
ATOM     26  C   UNL     1       3.574   1.488   0.000  0.00  0.00    +0.000 A 
ATOM     27  C   UNL     1       4.288   0.251   0.000  0.00  0.00    +0.000 A 
ATOM     28  C   UNL     1       4.288   1.901   0.000  0.00  0.00    +0.000 A 
ATOM     29  C   UNL     1       5.003   1.488   0.000  0.00  0.00    +0.000 A 
ATOM     30  C   UNL     1       5.003   0.663   0.000  0.00  0.00    +0.000 A 
BRANCH  26  31
ATOM     31  N   UNL     1       2.859   1.901   0.000  0.00  0.00    +0.000 N 
ATOM     32  N   UNL     1       2.115   1.560   0.000  0.00  0.00    +0.000 NA
ATOM     33  C   UNL     1       2.784   2.715   0.000  0.00  0.00    +0.000 A 
ATOM     34  C   UNL     1       1.564   2.174   0.000  0.00  0.00    +0.000 A 
ATOM     35  C   UNL     1       1.978   2.888   0.000  0.00  0.00    +0.000 A 
ATOM     36  C   UNL     1       0.907   2.106   0.000  0.00  0.00    +0.000 C 
ENDBRANCH  26  31
ENDBRANCH  23  25
BRANCH  23  40
ATOM     37  F   UNL     1       2.145   1.212   0.000  0.00  0.00    +0.000 F 
ATOM     38  F   UNL     1       1.573   0.992   0.000  0.00  0.00    +0.000 F 
ATOM     39  F   UNL     1       1.573   0.332   0.000  0.00  0.00    +0.000 F 
ATOM     40  C   UNL     1       2.145   0.662   0.000  0.00  0.00    +0.000 C 
ENDBRANCH  23  40
ENDBRANCH  22  23
ENDBRANCH   4  22
TORSDOF 11
