REMARK  Name = 
REMARK  11 active torsions:
REMARK  status: ('A' for Active; 'I' for Inactive)
REMARK    1  A    between atoms: C_2  and  C_7
REMARK    2  A    between atoms: C_7  and  O_8
REMARK    3  A    between atoms: O_8  and  C_9
REMARK    4  A    between atoms: N_10  and  CA_11
REMARK    5  A    between atoms: CA_11  and  C_12
REMARK    6  A    between atoms: CA_11  and  CB_18
REMARK    7  A    between atoms: N_13  and  C_14
REMARK    8  A    between atoms: C_14  and  C_15
REMARK    9  A    between atoms: C_14  and  C_23
REMARK   10  A    between atoms: CB_18  and  CG_19
REMARK   11  A    between atoms: C_23  and  C_24
REMARK                            x       y       z     vdW  Elec       q    Type
REMARK                         _______ _______ _______ _____ _____    ______ ____
ROOT
ATOM      1  CA  LEU A   1       0.418   0.495   0.000  0.00  0.00    +0.000 C 
ENDROOT
BRANCH   1   3
ATOM      2  C   UNK A   0      -1.011   0.495   0.000  0.00  0.00    +0.000 C 
ATOM      3  N   LEU A   1      -0.296   0.083   0.000  0.00  0.00    +0.000 NA
ATOM      4  O   UNK A   0      -1.011   1.320   0.000  0.00  0.00    +0.000 OA
BRANCH   2   5
ATOM      5  O   UNK A   0      -1.725   0.083   0.000  0.00  0.00    +0.000 OA
BRANCH   5   6
ATOM      6  C   UNK A   0      -2.440   0.495   0.000  0.00  0.00    +0.000 C 
BRANCH   6   8
ATOM      7  C   UNK A   0      -4.581   0.082   0.000  0.00  0.00    +0.000 A 
ATOM      8  C   UNK A   0      -3.154   0.083   0.000  0.00  0.00    +0.000 A 
ATOM      9  C   UNK A   0      -3.866   0.495   0.000  0.00  0.00    +0.000 A 
ATOM     10  C   UNK A   0      -3.154  -0.742   0.000  0.00  0.00    +0.000 A 
ATOM     11  C   UNK A   0      -4.581  -0.746   0.000  0.00  0.00    +0.000 A 
ATOM     12  C   UNK A   0      -3.865  -1.154   0.000  0.00  0.00    +0.000 A 
ENDBRANCH   6   8
ENDBRANCH   5   6
ENDBRANCH   2   5
ENDBRANCH   1   3
BRANCH   1  13
ATOM     13  C   LEU A   1       1.132   0.083   0.000  0.00  0.00    +0.000 C 
ATOM     14  N   UNK A   2       1.847   0.495   0.000  0.00  0.00    +0.000 NA
ATOM     15  O   LEU A   1       1.132  -0.742   0.000  0.00  0.00    +0.000 OA
BRANCH  14  16
ATOM     16  C   UNK A   2       2.561   0.083   0.000  0.00  0.00    +0.000 C 
BRANCH  16  17
ATOM     17  C   UNK A   2       3.276   0.495   0.000  0.00  0.00    +0.000 C 
ATOM     18  O   UNK A   2       3.990   0.083   0.000  0.00  0.00    +0.000 OA
ENDBRANCH  16  17
BRANCH  16  19
ATOM     19  C   UNK A   2       2.561  -0.742   0.000  0.00  0.00    +0.000 C 
BRANCH  19  20
ATOM     20  C   UNK A   2       3.276  -1.155   0.000  0.00  0.00    +0.000 C 
ATOM     21  C   UNK A   2       4.029  -0.819   0.000  0.00  0.00    +0.000 C 
ATOM     22  C   UNK A   2       4.581  -1.432   0.000  0.00  0.00    +0.000 C 
ATOM     23  N   UNK A   2       4.169  -2.146   0.000  0.00  0.00    +0.000 NA
ATOM     24  C   UNK A   2       3.362  -1.974   0.000  0.00  0.00    +0.000 C 
ATOM     25  O   UNK A   2       2.779  -2.558   0.000  0.00  0.00    +0.000 OA
ENDBRANCH  19  20
ENDBRANCH  16  19
ENDBRANCH  14  16
ENDBRANCH   1  13
BRANCH   1  26
ATOM     26  CB  LEU A   1       0.418   1.320   0.000  0.00  0.00    +0.000 C 
BRANCH  26  27
ATOM     27  CG  LEU A   1       1.132   1.733   0.000  0.00  0.00    +0.000 C 
ATOM     28  CD1 LEU A   1       1.132   2.558   0.000  0.00  0.00    +0.000 C 
ATOM     29  CD2 LEU A   1       1.847   1.320   0.000  0.00  0.00    +0.000 C 
ENDBRANCH  26  27
ENDBRANCH   1  26
TORSDOF 11
