REMARK  Name = 
REMARK  3 active torsions:
REMARK  status: ('A' for Active; 'I' for Inactive)
REMARK    1  A    between atoms: C_8  and  C_10
REMARK    2  A    between atoms: C_10  and  C_11
REMARK    3  A    between atoms: C_11  and  C_12
REMARK                            x       y       z     vdW  Elec       q    Type
REMARK                         _______ _______ _______ _____ _____    ______ ____
ROOT
ATOM      1  C   UNL     1      -1.454  -0.273   0.000  0.00  0.00    +0.000 A 
ATOM      2  C   UNL     1      -2.169  -0.686   0.000  0.00  0.00    +0.000 A 
ATOM      3  C   UNL     1      -2.169  -1.510   0.000  0.00  0.00    +0.000 A 
ATOM      4  C   UNL     1      -1.454  -1.923   0.000  0.00  0.00    +0.000 A 
ATOM      5  C   UNL     1      -0.740  -1.510   0.000  0.00  0.00    +0.000 A 
ATOM      6  N   UNL     1       0.045  -1.766   0.000  0.00  0.00    +0.000 NA
ATOM      7  C   UNL     1       0.530  -1.098   0.000  0.00  0.00    +0.000 A 
ATOM      8  C   UNL     1       0.045  -0.431   0.000  0.00  0.00    +0.000 A 
ATOM      9  C   UNL     1      -0.740  -0.686   0.000  0.00  0.00    +0.000 A 
ENDROOT
BRANCH   8  10
ATOM     10  C   UNL     1       0.300   0.354   0.000  0.00  0.00    +0.000 C 
BRANCH  10  11
ATOM     11  C   UNL     1       1.107   0.525   0.000  0.00  0.00    +0.000 C 
BRANCH  11  12
ATOM     12  C   UNL     1       1.362   1.310   0.000  0.00  0.00    +0.000 C 
ATOM     13  O   UNL     1       2.169   1.482   0.000  0.00  0.00    +0.000 OA
ATOM     14  O   UNL     1       0.810   1.923   0.000  0.00  0.00    +0.000 OA
ENDBRANCH  11  12
ENDBRANCH  10  11
ENDBRANCH   8  10
TORSDOF 3
