REMARK  Name = 
REMARK  3 active torsions:
REMARK  status: ('A' for Active; 'I' for Inactive)
REMARK    1  A    between atoms: C_4  and  C_9
REMARK    2  A    between atoms: C_9  and  N_10
REMARK    3  A    between atoms: C_13  and  C_18
REMARK                            x       y       z     vdW  Elec       q    Type
REMARK                         _______ _______ _______ _____ _____    ______ ____
ROOT
ATOM      1  N   UNL     1      -0.143  -1.365   0.000  0.00  0.00    +0.000 N 
ATOM      2  C   UNL     1       0.641  -1.110   0.000  0.00  0.00    +0.000 A 
ATOM      3  C   UNL     1       0.641  -0.285   0.000  0.00  0.00    +0.000 A 
ATOM      4  C   UNL     1       1.356   0.127   0.000  0.00  0.00    +0.000 A 
ATOM      5  N   UNL     1       2.070  -0.285   0.000  0.00  0.00    +0.000 NA
ATOM      6  C   UNL     1       2.070  -1.110   0.000  0.00  0.00    +0.000 A 
ATOM      7  N   UNL     1       1.356  -1.523   0.000  0.00  0.00    +0.000 NA
ATOM      8  N   UNL     1       2.784  -1.523   0.000  0.00  0.00    +0.000 NA
ATOM      9  N   UNL     1      -0.143  -0.030   0.000  0.00  0.00    +0.000 NA
ATOM     10  N   UNL     1      -0.628  -0.698   0.000  0.00  0.00    +0.000 NA
ENDROOT
BRANCH   4  11
ATOM     11  C   UNL     1       1.356   0.952   0.000  0.00  0.00    +0.000 A 
ATOM     12  C   UNL     1       0.688   1.437   0.000  0.00  0.00    +0.000 A 
ATOM     13  C   UNL     1       0.943   2.222   0.000  0.00  0.00    +0.000 A 
ATOM     14  C   UNL     1       1.768   2.222   0.000  0.00  0.00    +0.000 A 
ATOM     15  O   UNL     1       2.023   1.437   0.000  0.00  0.00    +0.000 OA
ENDBRANCH   4  11
BRANCH   1  16
ATOM     16  C   UNL     1      -0.398  -2.150   0.000  0.00  0.00    +0.000 C 
BRANCH  16  20
ATOM     17  C   UNL     1      -3.116  -1.267   0.000  0.00  0.00    +0.000 C 
ATOM     18  C   UNL     1      -2.564  -1.880   0.000  0.00  0.00    +0.000 A 
ATOM     19  C   UNL     1      -1.758  -1.708   0.000  0.00  0.00    +0.000 A 
ATOM     20  C   UNL     1      -1.205  -2.321   0.000  0.00  0.00    +0.000 A 
ATOM     21  C   UNL     1      -1.460  -3.106   0.000  0.00  0.00    +0.000 A 
ATOM     22  C   UNL     1      -2.267  -3.278   0.000  0.00  0.00    +0.000 A 
ATOM     23  C   UNL     1      -2.819  -2.665   0.000  0.00  0.00    +0.000 A 
ATOM     24  N   UNL     1      -3.626  -2.836   0.000  0.00  0.00    +0.000 NA
ENDBRANCH  16  20
ENDBRANCH   1  16
TORSDOF 3
