REMARK  Name = 
REMARK  1 active torsions:
REMARK  status: ('A' for Active; 'I' for Inactive)
REMARK    1  A    between atoms: C_4  and  C_18
REMARK                            x       y       z     vdW  Elec       q    Type
REMARK                         _______ _______ _______ _____ _____    ______ ____
ROOT
ATOM      1  C   UNL     1      -0.102   0.175   0.000  0.00  0.00    +0.000 C 
ATOM      2  C   UNL     1       0.613   0.588   0.000  0.00  0.00    +0.000 C 
ATOM      3  C   UNL     1      -0.816   0.588   0.000  0.00  0.00    +0.000 C 
ATOM      4  C   UNL     1       0.613   1.413   0.000  0.00  0.00    +0.000 C 
ATOM      5  C   UNL     1      -0.816   1.413   0.000  0.00  0.00    +0.000 C 
ATOM      6  O   UNL     1      -0.102   1.826   0.000  0.00  0.00    +0.000 OA
ATOM      7  O   UNL     1      -0.102  -0.649   0.000  0.00  0.00    +0.000 OA
ATOM      8  C   UNL     1      -0.816  -1.062   0.000  0.00  0.00    +0.000 C 
ATOM      9  O   UNL     1      -1.531  -0.649   0.000  0.00  0.00    +0.000 OA
ATOM     10  C   UNL     1      -1.531   1.825   0.000  0.00  0.00    +0.000 C 
ATOM     11  C   UNL     1      -2.245   1.413   0.000  0.00  0.00    +0.000 C 
ATOM     12  C   UNL     1      -2.959   0.175   0.000  0.00  0.00    +0.000 C 
ATOM     13  C   UNL     1      -2.245  -1.062   0.000  0.00  0.00    +0.000 C 
ATOM     14  C   UNL     1      -2.959  -0.649   0.000  0.00  0.00    +0.000 C 
ATOM     15  C   UNL     1      -0.816  -1.887   0.000  0.00  0.00    +0.000 C 
ATOM     16  C   UNL     1      -2.245  -1.887   0.000  0.00  0.00    +0.000 C 
ATOM     17  C   UNL     1      -1.531  -2.299   0.000  0.00  0.00    +0.000 C 
ATOM     18  C   UNL     1      -1.531  -3.124   0.000  0.00  0.00    +0.000 C 
ATOM     19  O   UNL     1       0.594   2.241   0.000  0.00  0.00    +0.000 OA
ATOM     20  C   UNL     1      -2.245   0.588   0.000  0.00  0.00    +0.000 C 
ATOM     21  C   UNL     1      -1.531   0.175   0.000  0.00  0.00    +0.000 C 
ENDROOT
BRANCH   4  22
ATOM     22  C   UNL     1       1.397   1.670   0.000  0.00  0.00    +0.000 C 
ATOM     23  C   UNL     1       2.064   1.186   0.000  0.00  0.00    +0.000 C 
ATOM     24  N   UNL     1       1.650   2.455   0.000  0.00  0.00    +0.000 NA
ATOM     25  S   UNL     1       2.731   1.672   0.000  0.00  0.00    +0.000 S 
ATOM     26  C   UNL     1       2.475   2.456   0.000  0.00  0.00    +0.000 C 
ATOM     27  O   UNL     1       2.959   3.124   0.000  0.00  0.00    +0.000 OA
ENDBRANCH   4  22
TORSDOF 1
