REMARK  Name = 
REMARK  6 active torsions:
REMARK  status: ('A' for Active; 'I' for Inactive)
REMARK    1  A    between atoms: C_6  and  C_7
REMARK    2  A    between atoms: C_12  and  C_13
REMARK    3  A    between atoms: C_18  and  C_19
REMARK    4  A    between atoms: C_19  and  C_20
REMARK    5  A    between atoms: C_20  and  P_21
REMARK    6  A    between atoms: C_20  and  P_25
REMARK                            x       y       z     vdW  Elec       q    Type
REMARK                         _______ _______ _______ _____ _____    ______ ____
ROOT
ATOM      1  C   UNL     1       0.206   0.111   0.000  0.00  0.00    +0.000 A 
ATOM      2  C   UNL     1       0.206   0.935   0.000  0.00  0.00    +0.000 A 
ATOM      3  C   UNL     1      -0.508  -0.302   0.000  0.00  0.00    +0.000 A 
ATOM      4  C   UNL     1      -1.223   0.111   0.000  0.00  0.00    +0.000 A 
ATOM      5  C   UNL     1      -1.223   0.935   0.000  0.00  0.00    +0.000 A 
ATOM      6  C   UNL     1      -0.508   1.348   0.000  0.00  0.00    +0.000 A 
ENDROOT
BRANCH   1  12
ATOM      7  C   UNL     1       1.635  -1.539   0.000  0.00  0.00    +0.000 A 
ATOM      8  C   UNL     1       0.921  -1.127   0.000  0.00  0.00    +0.000 A 
ATOM      9  C   UNL     1       2.350  -1.127   0.000  0.00  0.00    +0.000 A 
ATOM     10  C   UNL     1       2.350  -0.302   0.000  0.00  0.00    +0.000 A 
ATOM     11  C   UNL     1       1.635   0.111   0.000  0.00  0.00    +0.000 A 
ATOM     12  C   UNL     1       0.921  -0.302   0.000  0.00  0.00    +0.000 A 
BRANCH   7  18
ATOM     13  C   UNL     1       0.921  -2.777   0.000  0.00  0.00    +0.000 A 
ATOM     14  C   UNL     1       0.921  -3.602   0.000  0.00  0.00    +0.000 A 
ATOM     15  C   UNL     1       1.635  -4.014   0.000  0.00  0.00    +0.000 A 
ATOM     16  C   UNL     1       2.350  -3.602   0.000  0.00  0.00    +0.000 A 
ATOM     17  C   UNL     1       2.350  -2.777   0.000  0.00  0.00    +0.000 A 
ATOM     18  C   UNL     1       1.635  -2.364   0.000  0.00  0.00    +0.000 A 
ENDBRANCH   7  18
ENDBRANCH   1  12
BRANCH   6  19
ATOM     19  C   UNL     1      -0.508   2.173   0.000  0.00  0.00    +0.000 C 
BRANCH  19  20
ATOM     20  C   UNL     1      -1.223   2.586   0.000  0.00  0.00    +0.000 C 
ATOM     21  O   UNL     1      -1.937   2.998   0.000  0.00  0.00    +0.000 OA
BRANCH  20  22
ATOM     22  P   UNL     1      -0.810   3.300   0.000  0.00  0.00    +0.000 P 
ATOM     23  O   UNL     1      -0.398   4.014   0.000  0.00  0.00    +0.000 OA
ATOM     24  O   UNL     1      -0.096   2.887   0.000  0.00  0.00    +0.000 OA
ATOM     25  O   UNL     1      -1.525   3.712   0.000  0.00  0.00    +0.000 OA
ENDBRANCH  20  22
BRANCH  20  26
ATOM     26  P   UNL     1      -1.635   1.871   0.000  0.00  0.00    +0.000 P 
ATOM     27  O   UNL     1      -2.350   2.284   0.000  0.00  0.00    +0.000 OA
ATOM     28  O   UNL     1      -0.921   1.458   0.000  0.00  0.00    +0.000 OA
ATOM     29  O   UNL     1      -2.048   1.157   0.000  0.00  0.00    +0.000 OA
ENDBRANCH  20  26
ENDBRANCH  19  20
ENDBRANCH   6  19
TORSDOF 6
