REMARK  Name = 
REMARK  6 active torsions:
REMARK  status: ('A' for Active; 'I' for Inactive)
REMARK    1  A    between atoms: S_2  and  C_5
REMARK    2  A    between atoms: C_9  and  C_11
REMARK    3  A    between atoms: C_13  and  N_14
REMARK    4  A    between atoms: N_14  and  C_15
REMARK    5  A    between atoms: C_15  and  C_16
REMARK    6  A    between atoms: C_23  and  C_29
REMARK                            x       y       z     vdW  Elec       q    Type
REMARK                         _______ _______ _______ _____ _____    ______ ____
ROOT
ATOM      1  C   UNL     1       0.715  -1.238   0.000  0.00  0.00    +0.000 A 
ATOM      2  N   UNL     1       0.715  -0.412   0.000  0.00  0.00    +0.000 NA
ATOM      3  C   UNL     1       1.429   0.000   0.000  0.00  0.00    +0.000 A 
ATOM      4  C   UNL     1       2.143  -0.412   0.000  0.00  0.00    +0.000 A 
ATOM      5  C   UNL     1       2.858   0.000   0.000  0.00  0.00    +0.000 A 
ATOM      6  C   UNL     1       3.572  -0.412   0.000  0.00  0.00    +0.000 A 
ATOM      7  C   UNL     1       3.572  -1.238   0.000  0.00  0.00    +0.000 A 
ATOM      8  C   UNL     1       2.858  -1.650   0.000  0.00  0.00    +0.000 A 
ATOM      9  C   UNL     1       2.143  -1.238   0.000  0.00  0.00    +0.000 A 
ATOM     10  N   UNL     1       1.429  -1.650   0.000  0.00  0.00    +0.000 NA
ENDROOT
BRANCH   5  11
ATOM     11  C   UNL     1       2.858   0.825   0.000  0.00  0.00    +0.000 A 
ATOM     12  C   UNL     1       2.143   1.238   0.000  0.00  0.00    +0.000 A 
ATOM     13  C   UNL     1       2.143   2.062   0.000  0.00  0.00    +0.000 A 
ATOM     14  C   UNL     1       2.858   2.475   0.000  0.00  0.00    +0.000 A 
ATOM     15  C   UNL     1       3.572   2.062   0.000  0.00  0.00    +0.000 A 
ATOM     16  C   UNL     1       3.572   1.238   0.000  0.00  0.00    +0.000 A 
ENDBRANCH   5  11
BRANCH   1  21
ATOM     17  C   UNL     1      -0.715  -2.888   0.000  0.00  0.00    +0.000 A 
ATOM     18  C   UNL     1      -1.429  -2.475   0.000  0.00  0.00    +0.000 A 
ATOM     19  N   UNL     1      -1.429  -1.650   0.000  0.00  0.00    +0.000 NA
ATOM     20  C   UNL     1      -0.715  -1.238   0.000  0.00  0.00    +0.000 A 
ATOM     21  C   UNL     1       0.000  -1.650   0.000  0.00  0.00    +0.000 A 
ATOM     22  C   UNL     1       0.000  -2.475   0.000  0.00  0.00    +0.000 A 
BRANCH  17  24
ATOM     23  N   UNL     1      -0.715  -4.537   0.000  0.00  0.00    +0.000 NA
ATOM     24  S   UNL     1      -0.715  -3.712   0.000  0.00  0.00    +0.000 S 
ATOM     25  O   UNL     1       0.111  -3.712   0.000  0.00  0.00    +0.000 OA
ATOM     26  O   UNL     1      -1.540  -3.712   0.000  0.00  0.00    +0.000 OA
ENDBRANCH  17  24
ENDBRANCH   1  21
BRANCH   3  27
ATOM     27  N   UNL     1       1.429   0.825   0.000  0.00  0.00    +0.000 NA
BRANCH  27  28
ATOM     28  C   UNL     1       0.715   1.238   0.000  0.00  0.00    +0.000 C 
BRANCH  28  29
ATOM     29  C   UNL     1       0.715   2.062   0.000  0.00  0.00    +0.000 A 
ATOM     30  N   UNL     1       0.000   2.475   0.000  0.00  0.00    +0.000 NA
ATOM     31  C   UNL     1       0.000   3.300   0.000  0.00  0.00    +0.000 A 
ATOM     32  C   UNL     1       0.715   3.712   0.000  0.00  0.00    +0.000 A 
ATOM     33  C   UNL     1       1.429   3.300   0.000  0.00  0.00    +0.000 A 
ATOM     34  C   UNL     1       1.429   2.475   0.000  0.00  0.00    +0.000 A 
ENDBRANCH  28  29
ENDBRANCH  27  28
ENDBRANCH   3  27
TORSDOF 6
