REMARK  Name = 
REMARK  5 active torsions:
REMARK  status: ('A' for Active; 'I' for Inactive)
REMARK    1  A    between atoms: C_15  and  C_17
REMARK    2  A    between atoms: N_18  and  C_23
REMARK    3  A    between atoms: C_23  and  C_41
REMARK    4  A    between atoms: C_28  and  C_39
REMARK    5  A    between atoms: C_39  and  C_40
REMARK                            x       y       z     vdW  Elec       q    Type
REMARK                         _______ _______ _______ _____ _____    ______ ____
ROOT
ATOM      1  C   UNL     1      -0.405   0.216   0.000  0.00  0.00    +0.000 C 
ATOM      2  C   UNL     1      -0.900   0.882   0.000  0.00  0.00    +0.000 C 
ATOM      3  O   UNL     1      -0.887  -0.456   0.000  0.00  0.00    +0.000 OA
ATOM      4  C   UNL     1      -1.676  -0.208   0.000  0.00  0.00    +0.000 C 
ATOM      5  N   UNL     1      -1.680   0.615   0.000  0.00  0.00    +0.000 N 
ATOM      6  C   UNL     1      -2.390   1.021   0.000  0.00  0.00    +0.000 C 
ATOM      7  C   UNL     1      -3.101   0.609   0.000  0.00  0.00    +0.000 C 
ATOM      8  C   UNL     1      -2.383  -0.625   0.000  0.00  0.00    +0.000 C 
ATOM      9  N   UNL     1      -3.100  -0.216   0.000  0.00  0.00    +0.000 N 
ATOM     10  C   UNL     1      -3.710  -0.770   0.000  0.00  0.00    +0.000 C 
ATOM     11  C   UNL     1      -3.370  -1.522   0.000  0.00  0.00    +0.000 C 
ATOM     12  C   UNL     1      -2.551  -1.432   0.000  0.00  0.00    +0.000 C 
ATOM     13  O   UNL     1      -1.671  -1.039   0.000  0.00  0.00    +0.000 OA
ATOM     14  O   UNL     1      -0.655   1.672   0.000  0.00  0.00    +0.000 OA
ATOM     15  O   UNL     1      -3.819   1.021   0.000  0.00  0.00    +0.000 OA
ENDROOT
BRANCH   1  17
ATOM     16  C   UNL     1       1.134   0.624   0.000  0.00  0.00    +0.000 C 
ATOM     17  N   UNL     1       0.417   0.213   0.000  0.00  0.00    +0.000 NA
ATOM     18  O   UNL     1       1.136   1.452   0.000  0.00  0.00    +0.000 OA
BRANCH  16  33
ATOM     19  C   UNL     1       1.845  -2.258   0.000  0.00  0.00    +0.000 A 
ATOM     20  C   UNL     1       1.842  -3.083   0.000  0.00  0.00    +0.000 A 
ATOM     21  C   UNL     1       2.560  -3.497   0.000  0.00  0.00    +0.000 A 
ATOM     22  C   UNL     1       3.273  -3.086   0.000  0.00  0.00    +0.000 A 
ATOM     23  N   UNL     1       4.103  -3.248   0.000  0.00  0.00    +0.000 NA
ATOM     24  C   UNL     1       4.539  -2.489   0.000  0.00  0.00    +0.000 A 
ATOM     25  C   UNL     1       3.983  -1.859   0.000  0.00  0.00    +0.000 A 
ATOM     26  C   UNL     1       2.560  -1.849   0.000  0.00  0.00    +0.000 A 
ATOM     27  C   UNL     1       3.273  -2.265   0.000  0.00  0.00    +0.000 A 
ATOM     28  C   UNL     1       3.992  -1.033   0.000  0.00  0.00    +0.000 C 
ATOM     29  C   UNL     1       2.560  -1.026   0.000  0.00  0.00    +0.000 C 
ATOM     30  C   UNL     1       3.275  -0.614   0.000  0.00  0.00    +0.000 C 
ATOM     31  N   UNL     1       3.276   0.205   0.000  0.00  0.00    +0.000 NA
ATOM     32  C   UNL     1       2.564   0.621   0.000  0.00  0.00    +0.000 C 
ATOM     33  C   UNL     1       1.849   0.209   0.000  0.00  0.00    +0.000 C 
ATOM     34  C   UNL     1       1.846  -0.617   0.000  0.00  0.00    +0.000 C 
ATOM     35  C   UNL     1       3.993   0.617   0.000  0.00  0.00    +0.000 C 
ENDBRANCH  16  33
ENDBRANCH   1  17
BRANCH   1  36
ATOM     36  C   UNL     1       0.013  -0.500   0.000  0.00  0.00    +0.000 C 
ATOM     37  C   UNL     1      -0.396  -1.216   0.000  0.00  0.00    +0.000 C 
ATOM     38  C   UNL     1       0.838  -0.496   0.000  0.00  0.00    +0.000 C 
ENDBRANCH   1  36
BRANCH   6  39
ATOM     39  C   UNL     1      -2.392   1.848   0.000  0.00  0.00    +0.000 C 
BRANCH  39  40
ATOM     40  C   UNL     1      -3.110   2.260   0.000  0.00  0.00    +0.000 A 
ATOM     41  C   UNL     1      -3.110   3.085   0.000  0.00  0.00    +0.000 A 
ATOM     42  C   UNL     1      -3.824   3.497   0.000  0.00  0.00    +0.000 A 
ATOM     43  C   UNL     1      -3.824   1.847   0.000  0.00  0.00    +0.000 A 
ATOM     44  C   UNL     1      -4.539   3.085   0.000  0.00  0.00    +0.000 A 
ATOM     45  C   UNL     1      -4.539   2.260   0.000  0.00  0.00    +0.000 A 
ENDBRANCH  39  40
ENDBRANCH   6  39
TORSDOF 5
