REMARK  Name = 
REMARK  0 active torsions:
REMARK  status: ('A' for Active; 'I' for Inactive)
REMARK                            x       y       z     vdW  Elec       q    Type
REMARK                         _______ _______ _______ _____ _____    ______ ____
ROOT
ATOM      1  N   UNL     1       0.715   0.000   0.000  0.00  0.00    +0.000 NA
ATOM      2  C   UNL     1       0.000  -0.412   0.000  0.00  0.00    +0.000 A 
ATOM      3  N   UNL     1      -0.715   0.000   0.000  0.00  0.00    +0.000 NA
ATOM      4  C   UNL     1      -0.715   0.825   0.000  0.00  0.00    +0.000 A 
ATOM      5  N   UNL     1       0.000   1.237   0.000  0.00  0.00    +0.000 NA
ATOM      6  C   UNL     1       0.715   0.825   0.000  0.00  0.00    +0.000 A 
ATOM      7  N   UNL     1       0.000  -1.237   0.000  0.00  0.00    +0.000 N 
ATOM      8  C   UNL     1       0.412  -1.952   0.000  0.00  0.00    +0.000 C 
ATOM      9  C   UNL     1      -0.412  -1.952   0.000  0.00  0.00    +0.000 C 
ATOM     10  N   UNL     1      -1.429   1.237   0.000  0.00  0.00    +0.000 N 
ATOM     11  C   UNL     1      -2.254   1.237   0.000  0.00  0.00    +0.000 C 
ATOM     12  C   UNL     1      -1.841   1.952   0.000  0.00  0.00    +0.000 C 
ATOM     13  N   UNL     1       1.429   1.237   0.000  0.00  0.00    +0.000 N 
ATOM     14  C   UNL     1       1.841   1.952   0.000  0.00  0.00    +0.000 C 
ATOM     15  C   UNL     1       2.254   1.237   0.000  0.00  0.00    +0.000 C 
ENDROOT
TORSDOF 0
