REMARK  Name = 
REMARK  8 active torsions:
REMARK  status: ('A' for Active; 'I' for Inactive)
REMARK    1  A    between atoms: C_23  and  C_26
REMARK    2  A    between atoms: C_25  and  O_54
REMARK    3  A    between atoms: C_34  and  O_54
REMARK    4  A    between atoms: C_35  and  O_55
REMARK    5  A    between atoms: C_36  and  O_56
REMARK    6  A    between atoms: C_37  and  O_49
REMARK    7  A    between atoms: C_38  and  O_56
REMARK    8  A    between atoms: C_39  and  O_55
REMARK                            x       y       z     vdW  Elec       q    Type
REMARK                         _______ _______ _______ _____ _____    ______ ____
ROOT
ATOM      1  C   UNL     1       6.119   4.627   0.000  0.00  0.00    +0.000 C 
ATOM      2  C   UNL     1       7.715   2.735   0.000  0.00  0.00    +0.000 C 
ATOM      3  C   UNL     1       6.651   3.996   0.000  0.00  0.00    +0.000 C 
ATOM      4  C   UNL     1       7.995   3.510   0.000  0.00  0.00    +0.000 C 
ATOM      5  C   UNL     1       6.902   2.589   0.000  0.00  0.00    +0.000 C 
ATOM      6  C   UNL     1       7.463   4.141   0.000  0.00  0.00    +0.000 C 
ATOM      7  O   UNL     1       8.807   3.656   0.000  0.00  0.00    +0.000 OA
ATOM      8  O   UNL     1       6.371   3.220   0.000  0.00  0.00    +0.000 OA
ENDROOT
BRANCH   5   9
ATOM      9  O   UNL     1       6.622   1.813   0.000  0.00  0.00    +0.000 OA
BRANCH   9  21
ATOM     10  C   UNL     1       3.905   0.602   0.000  0.00  0.00    +0.000 C 
ATOM     11  C   UNL     1       1.389   0.200   0.000  0.00  0.00    +0.000 C 
ATOM     12  C   UNL     1       3.934   2.784   0.000  0.00  0.00    +0.000 C 
ATOM     13  C   UNL     1       3.122   2.639   0.000  0.00  0.00    +0.000 C 
ATOM     14  C   UNL     1       5.530   0.892   0.000  0.00  0.00    +0.000 C 
ATOM     15  C   UNL     1       0.696   1.761   0.000  0.00  0.00    +0.000 C 
ATOM     16  C   UNL     1       4.718   0.747   0.000  0.00  0.00    +0.000 C 
ATOM     17  C   UNL     1       1.378   2.224   0.000  0.00  0.00    +0.000 C 
ATOM     18  C   UNL     1       5.278   2.299   0.000  0.00  0.00    +0.000 C 
ATOM     19  C   UNL     1       3.093   0.457   0.000  0.00  0.00    +0.000 C 
ATOM     20  C   UNL     1       4.466   2.154   0.000  0.00  0.00    +0.000 C 
ATOM     21  C   UNL     1       5.810   1.668   0.000  0.00  0.00    +0.000 C 
ATOM     22  C   UNL     1       0.925   0.969   0.000  0.00  0.00    +0.000 C 
ATOM     23  C   UNL     1       2.842   1.863   0.000  0.00  0.00    +0.000 C 
ATOM     24  C   UNL     1       3.374   1.232   0.000  0.00  0.00    +0.000 C 
ATOM     25  C   UNL     1       2.281   0.311   0.000  0.00  0.00    +0.000 C 
ATOM     26  C   UNL     1       4.186   1.378   0.000  0.00  0.00    +0.000 C 
ATOM     27  C   UNL     1       1.749   0.942   0.000  0.00  0.00    +0.000 C 
ATOM     28  C   UNL     1       2.030   1.718   0.000  0.00  0.00    +0.000 C 
ATOM     29  O   UNL     1       2.001  -0.465   0.000  0.00  0.00    +0.000 OA
ATOM     30  O   UNL     1       2.227   2.519   0.000  0.00  0.00    +0.000 OA
BRANCH  22  33
ATOM     31  C   UNL     1       0.648  -0.475   0.000  0.00  0.00    +0.000 C 
ATOM     32  C   UNL     1      -0.406   0.344   0.000  0.00  0.00    +0.000 C 
ATOM     33  C   UNL     1       0.418   0.318   0.000  0.00  0.00    +0.000 C 
ATOM     34  C   UNL     1      -0.035  -0.938   0.000  0.00  0.00    +0.000 C 
ATOM     35  O   UNL     1      -0.062  -1.762   0.000  0.00  0.00    +0.000 OA
ATOM     36  O   UNL     1      -0.686  -0.432   0.000  0.00  0.00    +0.000 OA
ENDBRANCH  22  33
ENDBRANCH   9  21
ENDBRANCH   5   9
BRANCH   6  37
ATOM     37  O   UNL     1       7.743   4.917   0.000  0.00  0.00    +0.000 OA
BRANCH  37  42
ATOM     38  C   UNL     1       5.056   5.888   0.000  0.00  0.00    +0.000 C 
ATOM     39  C   UNL     1       7.492   6.324   0.000  0.00  0.00    +0.000 C 
ATOM     40  C   UNL     1       5.868   6.033   0.000  0.00  0.00    +0.000 C 
ATOM     41  C   UNL     1       6.960   6.954   0.000  0.00  0.00    +0.000 C 
ATOM     42  C   UNL     1       7.212   5.548   0.000  0.00  0.00    +0.000 C 
ATOM     43  C   UNL     1       6.148   6.809   0.000  0.00  0.00    +0.000 C 
ATOM     44  O   UNL     1       7.240   7.730   0.000  0.00  0.00    +0.000 OA
ATOM     45  O   UNL     1       6.399   5.403   0.000  0.00  0.00    +0.000 OA
BRANCH  43  46
ATOM     46  O   UNL     1       5.616   7.440   0.000  0.00  0.00    +0.000 OA
BRANCH  46  51
ATOM     47  C   UNL     1       3.431   5.598   0.000  0.00  0.00    +0.000 C 
ATOM     48  C   UNL     1       4.272   7.925   0.000  0.00  0.00    +0.000 C 
ATOM     49  C   UNL     1       3.712   6.373   0.000  0.00  0.00    +0.000 C 
ATOM     50  C   UNL     1       3.460   7.780   0.000  0.00  0.00    +0.000 C 
ATOM     51  C   UNL     1       4.804   7.295   0.000  0.00  0.00    +0.000 C 
ATOM     52  C   UNL     1       3.180   7.004   0.000  0.00  0.00    +0.000 C 
ATOM     53  O   UNL     1       2.928   8.411   0.000  0.00  0.00    +0.000 OA
ATOM     54  O   UNL     1       4.524   6.519   0.000  0.00  0.00    +0.000 OA
BRANCH  52  56
ATOM     55  C   UNL     1       2.087   6.083   0.000  0.00  0.00    +0.000 C 
ATOM     56  O   UNL     1       2.368   6.859   0.000  0.00  0.00    +0.000 OA
ENDBRANCH  52  56
ENDBRANCH  46  51
ENDBRANCH  43  46
ENDBRANCH  37  42
ENDBRANCH   6  37
TORSDOF 8
