REMARK  Name = 
REMARK  9 active torsions:
REMARK  status: ('A' for Active; 'I' for Inactive)
REMARK    1  A    between atoms: N_4  and  C_5
REMARK    2  A    between atoms: C_5  and  C_6
REMARK    3  A    between atoms: C_6  and  O_7
REMARK    4  A    between atoms: O_7  and  C_8
REMARK    5  A    between atoms: C_8  and  C_10
REMARK    6  A    between atoms: C_10  and  C_11
REMARK    7  A    between atoms: C_10  and  O_18
REMARK    8  A    between atoms: O_18  and  C_19
REMARK    9  A    between atoms: C_23  and  C_25
REMARK                            x       y       z     vdW  Elec       q    Type
REMARK                         _______ _______ _______ _____ _____    ______ ____
ROOT
ATOM      1  C   UNL     1       2.143  -4.537   0.000  0.00  0.00    +0.000 C 
ENDROOT
BRANCH   1   2
ATOM      2  C   UNL     1       2.143  -3.712   0.000  0.00  0.00    +0.000 A 
ATOM      3  C   UNL     1       1.429  -3.300   0.000  0.00  0.00    +0.000 A 
ATOM      4  C   UNL     1       1.429  -2.475   0.000  0.00  0.00    +0.000 A 
ATOM      5  C   UNL     1       2.143  -2.062   0.000  0.00  0.00    +0.000 A 
ATOM      6  C   UNL     1       2.858  -2.475   0.000  0.00  0.00    +0.000 A 
ATOM      7  C   UNL     1       2.858  -3.300   0.000  0.00  0.00    +0.000 A 
ATOM      8 CL   UNL     1       2.143  -1.238   0.000  0.00  0.00    +0.000 Cl
ENDBRANCH   1   2
BRANCH   1   9
ATOM      9  C   UNL     1       1.429  -4.950   0.000  0.00  0.00    +0.000 C 
ATOM     10  O   UNL     1       1.429  -5.775   0.000  0.00  0.00    +0.000 OA
BRANCH   9  11
ATOM     11  O   UNL     1       0.715  -4.537   0.000  0.00  0.00    +0.000 OA
BRANCH  11  12
ATOM     12  C   UNL     1       0.000  -4.950   0.000  0.00  0.00    +0.000 C 
BRANCH  12  13
ATOM     13  C   UNL     1      -0.715  -4.537   0.000  0.00  0.00    +0.000 C 
BRANCH  13  17
ATOM     14  C   UNL     1      -2.858  -4.950   0.000  0.00  0.00    +0.000 C 
ATOM     15  C   UNL     1      -2.143  -4.537   0.000  0.00  0.00    +0.000 C 
ATOM     16  O   UNL     1      -2.143  -3.712   0.000  0.00  0.00    +0.000 OA
ATOM     17  N   UNL     1      -1.429  -4.950   0.000  0.00  0.00    +0.000 NA
ENDBRANCH  13  17
ENDBRANCH  12  13
ENDBRANCH  11  12
ENDBRANCH   9  11
ENDBRANCH   1   9
BRANCH   1  18
ATOM     18  O   UNL     1       2.858  -4.950   0.000  0.00  0.00    +0.000 OA
BRANCH  18  19
ATOM     19  C   UNL     1       3.572  -4.537   0.000  0.00  0.00    +0.000 A 
ATOM     20  C   UNL     1       3.572  -3.712   0.000  0.00  0.00    +0.000 A 
ATOM     21  C   UNL     1       4.287  -3.300   0.000  0.00  0.00    +0.000 A 
ATOM     22  C   UNL     1       5.001  -3.712   0.000  0.00  0.00    +0.000 A 
ATOM     23  C   UNL     1       5.001  -4.537   0.000  0.00  0.00    +0.000 A 
ATOM     24  C   UNL     1       4.287  -4.950   0.000  0.00  0.00    +0.000 A 
BRANCH  23  25
ATOM     25  C   UNL     1       5.716  -4.950   0.000  0.00  0.00    +0.000 C 
ATOM     26  F   UNL     1       6.430  -5.362   0.000  0.00  0.00    +0.000 F 
ATOM     27  F   UNL     1       5.303  -5.665   0.000  0.00  0.00    +0.000 F 
ATOM     28  F   UNL     1       6.128  -4.236   0.000  0.00  0.00    +0.000 F 
ENDBRANCH  23  25
ENDBRANCH  18  19
ENDBRANCH   1  18
TORSDOF 9
