REMARK  Name = 
REMARK  11 active torsions:
REMARK  status: ('A' for Active; 'I' for Inactive)
REMARK    1  A    between atoms: O_2  and  C_26
REMARK    2  A    between atoms: N_6  and  C_11
REMARK    3  A    between atoms: N_6  and  C_14
REMARK    4  A    between atoms: C_11  and  C_12
REMARK    5  A    between atoms: C_13  and  C_15
REMARK    6  A    between atoms: C_14  and  C_17
REMARK    7  A    between atoms: C_15  and  C_19
REMARK    8  A    between atoms: C_16  and  C_24
REMARK    9  A    between atoms: C_18  and  C_19
REMARK   10  A    between atoms: C_20  and  C_33
REMARK   11  A    between atoms: C_27  and  C_36
REMARK                            x       y       z     vdW  Elec       q    Type
REMARK                         _______ _______ _______ _____ _____    ______ ____
ROOT
ATOM      1  O   UNL     1       0.361   0.199   0.000  0.00  0.00    +0.000 OA
ATOM      2  N   UNL     1       1.075  -1.033   0.000  0.00  0.00    +0.000 N 
ATOM      3  C   UNL     1       0.361  -0.625   0.000  0.00  0.00    +0.000 C 
ENDROOT
BRANCH   3   5
ATOM      4  N   UNL     1      -0.333  -1.867   0.000  0.00  0.00    +0.000 NA
ATOM      5  C   UNL     1      -0.333  -1.033   0.000  0.00  0.00    +0.000 C 
BRANCH   5   6
ATOM      6  C   UNL     1      -1.047  -0.625   0.000  0.00  0.00    +0.000 C 
BRANCH   6   7
ATOM      7  C   UNL     1      -1.779  -1.042   0.000  0.00  0.00    +0.000 A 
ATOM      8  C   UNL     1      -2.492  -0.625   0.000  0.00  0.00    +0.000 A 
ATOM      9  C   UNL     1      -1.779  -1.867   0.000  0.00  0.00    +0.000 A 
ATOM     10  C   UNL     1      -3.206  -1.867   0.000  0.00  0.00    +0.000 A 
ATOM     11  C   UNL     1      -3.206  -1.042   0.000  0.00  0.00    +0.000 A 
ATOM     12  C   UNL     1      -2.492  -2.284   0.000  0.00  0.00    +0.000 A 
ATOM     13  C   UNL     1      -2.492   0.199   0.000  0.00  0.00    +0.000 C 
ATOM     14  C   UNL     1      -1.047  -2.293   0.000  0.00  0.00    +0.000 C 
BRANCH  10  17
ATOM     15  O   UNL     1      -3.928  -3.108   0.000  0.00  0.00    +0.000 OA
ATOM     16  N   UNL     1      -4.633  -1.876   0.000  0.00  0.00    +0.000 NA
ATOM     17  C   UNL     1      -3.928  -2.284   0.000  0.00  0.00    +0.000 C 
ENDBRANCH  10  17
ENDBRANCH   6   7
ENDBRANCH   5   6
ENDBRANCH   3   5
BRANCH   2  18
ATOM     18  C   UNL     1       1.770  -0.635   0.000  0.00  0.00    +0.000 C 
ATOM     19  C   UNL     1       2.474  -1.042   0.000  0.00  0.00    +0.000 C 
BRANCH  18  22
ATOM     20  N   UNL     1       1.112   0.681   0.000  0.00  0.00    +0.000 NA
ATOM     21  N   UNL     1       2.437   0.681   0.000  0.00  0.00    +0.000 NA
ATOM     22  C   UNL     1       1.770   0.199   0.000  0.00  0.00    +0.000 A 
ATOM     23  C   UNL     1       1.362   1.459   0.000  0.00  0.00    +0.000 A 
ATOM     24  C   UNL     1       2.177   1.459   0.000  0.00  0.00    +0.000 A 
BRANCH  23  25
ATOM     25  C   UNL     1       0.889   2.108   0.000  0.00  0.00    +0.000 A 
ATOM     26  C   UNL     1       1.232   2.858   0.000  0.00  0.00    +0.000 A 
ATOM     27  C   UNL     1       0.065   2.015   0.000  0.00  0.00    +0.000 A 
ATOM     28  C   UNL     1       0.741   3.525   0.000  0.00  0.00    +0.000 A 
ATOM     29  C   UNL     1      -0.417   2.692   0.000  0.00  0.00    +0.000 A 
ATOM     30  C   UNL     1      -0.083   3.442   0.000  0.00  0.00    +0.000 A 
ENDBRANCH  23  25
ENDBRANCH  18  22
ENDBRANCH   2  18
BRANCH   2  31
ATOM     31  C   UNL     1       1.075  -1.867   0.000  0.00  0.00    +0.000 C 
BRANCH  31  32
ATOM     32  C   UNL     1       1.779  -2.275   0.000  0.00  0.00    +0.000 A 
ATOM     33  C   UNL     1       3.206  -2.275   0.000  0.00  0.00    +0.000 A 
ATOM     34  C   UNL     1       2.492  -1.867   0.000  0.00  0.00    +0.000 A 
ATOM     35  C   UNL     1       3.206  -3.108   0.000  0.00  0.00    +0.000 A 
ATOM     36  C   UNL     1       1.779  -3.108   0.000  0.00  0.00    +0.000 A 
ATOM     37  C   UNL     1       2.492  -3.525   0.000  0.00  0.00    +0.000 A 
BRANCH  33  40
ATOM     38  O   UNL     1       3.919  -1.042   0.000  0.00  0.00    +0.000 OA
ATOM     39  O   UNL     1       4.633  -2.275   0.000  0.00  0.00    +0.000 OA
ATOM     40  C   UNL     1       3.919  -1.867   0.000  0.00  0.00    +0.000 C 
ENDBRANCH  33  40
BRANCH  35  41
ATOM     41  O   UNL     1       3.928  -3.525   0.000  0.00  0.00    +0.000 OA
ATOM     42  C   UNL     1       4.633  -3.118   0.000  0.00  0.00    +0.000 C 
ENDBRANCH  35  41
ENDBRANCH  31  32
ENDBRANCH   2  31
TORSDOF 11
