REMARK  Name = 
REMARK  12 active torsions:
REMARK  status: ('A' for Active; 'I' for Inactive)
REMARK    1  A    between atoms: N_2  and  C_20
REMARK    2  A    between atoms: C_5  and  C_19
REMARK    3  A    between atoms: C_8  and  C_15
REMARK    4  A    between atoms: N_10  and  C_15
REMARK    5  A    between atoms: N_11  and  C_19
REMARK    6  A    between atoms: N_13  and  C_28
REMARK    7  A    between atoms: C_15  and  C_25
REMARK    8  A    between atoms: C_19  and  C_48
REMARK    9  A    between atoms: C_21  and  C_25
REMARK   10  A    between atoms: C_48  and  C_51
REMARK   11  A    between atoms: C_50  and  C_52
REMARK   12  A    between atoms: C_51  and  C_52
REMARK                            x       y       z     vdW  Elec       q    Type
REMARK                         _______ _______ _______ _____ _____    ______ ____
ROOT
ATOM      1  C   UNL     1       0.357  -1.033   0.000  0.00  0.00    +0.000 C 
ENDROOT
BRANCH   1   4
ATOM      2  C   UNL     1      -0.357   0.202   0.000  0.00  0.00    +0.000 C 
ATOM      3  N   UNL     1      -1.068   0.613   0.000  0.00  0.00    +0.000 N 
ATOM      4  N   UNL     1      -0.357  -0.621   0.000  0.00  0.00    +0.000 NA
ATOM      5  C   UNL     1      -2.502   1.440   0.000  0.00  0.00    +0.000 C 
ATOM      6  C   UNL     1      -1.792   1.856   0.000  0.00  0.00    +0.000 C 
ATOM      7  C   UNL     1      -2.502   0.617   0.000  0.00  0.00    +0.000 C 
ATOM      8  C   UNL     1      -1.073   1.440   0.000  0.00  0.00    +0.000 C 
ATOM      9  C   UNL     1      -1.788   0.202   0.000  0.00  0.00    +0.000 C 
ATOM     10  O   UNL     1       0.357   0.613   0.000  0.00  0.00    +0.000 OA
BRANCH   5  12
ATOM     11  C   UNL     1      -3.218   2.679   0.000  0.00  0.00    +0.000 C 
ATOM     12  N   UNL     1      -3.218   1.852   0.000  0.00  0.00    +0.000 N 
ATOM     13  N   UNL     1      -3.933   3.095   0.000  0.00  0.00    +0.000 NA
ATOM     14  C   UNL     1      -3.933   1.440   0.000  0.00  0.00    +0.000 C 
ATOM     15  C   UNL     1      -4.648   1.848   0.000  0.00  0.00    +0.000 A 
ATOM     16  C   UNL     1      -4.648   2.679   0.000  0.00  0.00    +0.000 A 
ATOM     17  O   UNL     1      -2.502   3.091   0.000  0.00  0.00    +0.000 OA
ATOM     18  C   UNL     1      -5.359   1.440   0.000  0.00  0.00    +0.000 A 
ATOM     19  C   UNL     1      -5.359   3.095   0.000  0.00  0.00    +0.000 A 
ATOM     20  C   UNL     1      -6.074   1.848   0.000  0.00  0.00    +0.000 A 
ATOM     21  C   UNL     1      -6.074   2.679   0.000  0.00  0.00    +0.000 A 
ENDBRANCH   5  12
ENDBRANCH   1   4
BRANCH   1  22
ATOM     22  C   UNL     1       1.068  -0.621   0.000  0.00  0.00    +0.000 C 
ATOM     23  N   UNL     1       1.068   0.202   0.000  0.00  0.00    +0.000 NA
ATOM     24  O   UNL     1       1.779  -1.033   0.000  0.00  0.00    +0.000 OA
BRANCH  23  25
ATOM     25  C   UNL     1       1.779   0.613   0.000  0.00  0.00    +0.000 C 
BRANCH  25  26
ATOM     26  C   UNL     1       1.779   1.436   0.000  0.00  0.00    +0.000 C 
ATOM     27  N   UNL     1       2.494   1.848   0.000  0.00  0.00    +0.000 N 
ATOM     28  N   UNL     1       3.929   2.675   0.000  0.00  0.00    +0.000 N 
ATOM     29  C   UNL     1       3.213   1.436   0.000  0.00  0.00    +0.000 C 
ATOM     30  C   UNL     1       2.498   2.675   0.000  0.00  0.00    +0.000 C 
ATOM     31  C   UNL     1       3.218   3.091   0.000  0.00  0.00    +0.000 C 
ATOM     32  C   UNL     1       3.929   1.852   0.000  0.00  0.00    +0.000 C 
ATOM     33  O   UNL     1       1.068   1.848   0.000  0.00  0.00    +0.000 OA
BRANCH  28  34
ATOM     34  C   UNL     1       4.639   3.087   0.000  0.00  0.00    +0.000 A 
ATOM     35  N   UNL     1       6.074   3.914   0.000  0.00  0.00    +0.000 NA
ATOM     36  C   UNL     1       5.355   2.671   0.000  0.00  0.00    +0.000 A 
ATOM     37  C   UNL     1       4.635   3.910   0.000  0.00  0.00    +0.000 A 
ATOM     38  C   UNL     1       5.355   4.326   0.000  0.00  0.00    +0.000 A 
ATOM     39  C   UNL     1       6.066   3.087   0.000  0.00  0.00    +0.000 A 
ENDBRANCH  28  34
ENDBRANCH  25  26
BRANCH  25  40
ATOM     40  C   UNL     1       2.494   0.202   0.000  0.00  0.00    +0.000 C 
BRANCH  40  41
ATOM     41  C   UNL     1       3.205   0.613   0.000  0.00  0.00    +0.000 C 
BRANCH  41  42
ATOM     42  C   UNL     1       3.920   0.202   0.000  0.00  0.00    +0.000 C 
BRANCH  42  44
ATOM     43  N   UNL     1       5.346   0.202   0.000  0.00  0.00    +0.000 NA
ATOM     44  C   UNL     1       4.635   0.613   0.000  0.00  0.00    +0.000 C 
ENDBRANCH  42  44
ENDBRANCH  41  42
ENDBRANCH  40  41
ENDBRANCH  25  40
ENDBRANCH  23  25
ENDBRANCH   1  22
BRANCH   1  45
ATOM     45  C   UNL     1       0.357  -1.856   0.000  0.00  0.00    +0.000 C 
BRANCH  45  49
ATOM     46  C   UNL     1      -1.792  -3.087   0.000  0.00  0.00    +0.000 A 
ATOM     47  C   UNL     1      -1.788  -2.264   0.000  0.00  0.00    +0.000 A 
ATOM     48  C   UNL     1      -1.073  -3.502   0.000  0.00  0.00    +0.000 A 
ATOM     49  C   UNL     1      -0.357  -2.268   0.000  0.00  0.00    +0.000 A 
ATOM     50  C   UNL     1      -0.353  -3.095   0.000  0.00  0.00    +0.000 A 
ATOM     51  C   UNL     1      -1.073  -1.852   0.000  0.00  0.00    +0.000 A 
ATOM     52 BR   UNL     1      -2.498  -1.848   0.000  0.00  0.00    +0.000 Br
ATOM     53 BR   UNL     1      -1.081  -4.326   0.000  0.00  0.00    +0.000 Br
ATOM     54  O   UNL     1      -2.502  -3.494   0.000  0.00  0.00    +0.000 OA
ENDBRANCH  45  49
ENDBRANCH   1  45
TORSDOF 12
