REMARK  Name = 
REMARK  4 active torsions:
REMARK  status: ('A' for Active; 'I' for Inactive)
REMARK    1  A    between atoms: C_6  and  C_11
REMARK    2  A    between atoms: C_6  and  C_12
REMARK    3  A    between atoms: C_11  and  N_18
REMARK    4  A    between atoms: C_12  and  N_19
REMARK                            x       y       z     vdW  Elec       q    Type
REMARK                         _______ _______ _______ _____ _____    ______ ____
ROOT
ATOM      1  C   UNL     1       2.143   1.238   0.000  0.00  0.00    +0.000 A 
ATOM      2  C   UNL     1       2.858   1.650   0.000  0.00  0.00    +0.000 A 
ATOM      3  C   UNL     1       0.715   5.362   0.000  0.00  0.00    +0.000 A 
ATOM      4  C   UNL     1       1.429   1.650   0.000  0.00  0.00    +0.000 A 
ATOM      5  C   UNL     1       2.858   2.475   0.000  0.00  0.00    +0.000 A 
ATOM      6  C   UNL     1       1.429   4.950   0.000  0.00  0.00    +0.000 A 
ATOM      7  C   UNL     1       0.000   4.950   0.000  0.00  0.00    +0.000 A 
ATOM      8  C   UNL     1       1.429   2.475   0.000  0.00  0.00    +0.000 A 
ATOM      9  C   UNL     1       2.143   2.888   0.000  0.00  0.00    +0.000 A 
ATOM     10  C   UNL     1       1.429   4.125   0.000  0.00  0.00    +0.000 A 
ATOM     11  C   UNL     1       0.715   3.712   0.000  0.00  0.00    +0.000 A 
ATOM     12  N   UNL     1       0.000   4.125   0.000  0.00  0.00    +0.000 NA
ATOM     13  N   UNL     1       0.715   2.888   0.000  0.00  0.00    +0.000 N 
ATOM     14  S   UNL     1       2.143   3.712   0.000  0.00  0.00    +0.000 S 
ENDROOT
BRANCH  13  15
ATOM     15  C   UNL     1       0.000   2.475   0.000  0.00  0.00    +0.000 C 
BRANCH  15  16
ATOM     16  C   UNL     1      -0.715   2.888   0.000  0.00  0.00    +0.000 C 
BRANCH  16  17
ATOM     17  C   UNL     1      -1.429   2.475   0.000  0.00  0.00    +0.000 C 
BRANCH  17  20
ATOM     18  C   UNL     1      -2.858   2.475   0.000  0.00  0.00    +0.000 C 
ATOM     19  C   UNL     1      -2.143   3.712   0.000  0.00  0.00    +0.000 C 
ATOM     20  N   UNL     1      -2.143   2.888   0.000  0.00  0.00    +0.000 NA
ENDBRANCH  17  20
ENDBRANCH  16  17
ENDBRANCH  15  16
ENDBRANCH  13  15
TORSDOF 4
