REMARK  Name = 
REMARK  3 active torsions:
REMARK  status: ('A' for Active; 'I' for Inactive)
REMARK    1  A    between atoms: C_3  and  C_10
REMARK    2  A    between atoms: C_6  and  N_11
REMARK    3  A    between atoms: C_7  and  C_10
REMARK                            x       y       z     vdW  Elec       q    Type
REMARK                         _______ _______ _______ _____ _____    ______ ____
ROOT
ATOM      1  C   UNL     1      -0.357  -1.237   0.000  0.00  0.00    +0.000 A 
ATOM      2  C   UNL     1      -1.072  -0.825   0.000  0.00  0.00    +0.000 A 
ATOM      3  C   UNL     1       0.357  -0.825   0.000  0.00  0.00    +0.000 A 
ATOM      4  C   UNL     1       0.357   0.000   0.000  0.00  0.00    +0.000 A 
ATOM      5  C   UNL     1      -0.357   0.412   0.000  0.00  0.00    +0.000 A 
ATOM      6  C   UNL     1      -1.072   0.000   0.000  0.00  0.00    +0.000 A 
ENDROOT
BRANCH   6   7
ATOM      7  N   UNL     1      -1.786   0.412   0.000  0.00  0.00    +0.000 N 
ATOM      8  O   UNL     1      -1.786   1.237   0.000  0.00  0.00    +0.000 OA
ATOM      9  O   UNL     1      -2.501   0.000   0.000  0.00  0.00    +0.000 OA
ENDBRANCH   6   7
BRANCH   3  10
ATOM     10  C   UNL     1       1.072  -1.237   0.000  0.00  0.00    +0.000 C 
BRANCH  10  11
ATOM     11  C   UNL     1       1.786  -0.825   0.000  0.00  0.00    +0.000 C 
ATOM     12  O   UNL     1       1.786   0.000   0.000  0.00  0.00    +0.000 OA
ATOM     13  O   UNL     1       2.501  -1.237   0.000  0.00  0.00    +0.000 OA
ENDBRANCH  10  11
ENDBRANCH   3  10
TORSDOF 3
