REMARK  Name = 
REMARK  5 active torsions:
REMARK  status: ('A' for Active; 'I' for Inactive)
REMARK    1  A    between atoms: N_2  and  C_14
REMARK    2  A    between atoms: C_3  and  C_7
REMARK    3  A    between atoms: C_3  and  C_8
REMARK    4  A    between atoms: C_7  and  C_9
REMARK    5  A    between atoms: C_9  and  C_14
REMARK                            x       y       z     vdW  Elec       q    Type
REMARK                         _______ _______ _______ _____ _____    ______ ____
ROOT
ATOM      1  S   UNL     1       0.668  -0.958   0.000  0.00  0.00    +0.000 S 
ATOM      2  C   UNL     1       0.187  -0.294   0.000  0.00  0.00    +0.000 C 
ATOM      3  C   UNL     1       0.187  -1.622   0.000  0.00  0.00    +0.000 C 
ATOM      4  C   UNL     1      -0.594  -0.545   0.000  0.00  0.00    +0.000 A 
ATOM      5  C   UNL     1      -0.594  -1.371   0.000  0.00  0.00    +0.000 A 
ATOM      6  C   UNL     1       0.855  -2.106   0.000  0.00  0.00    +0.000 C 
ATOM      7  C   UNL     1      -0.067  -2.407   0.000  0.00  0.00    +0.000 C 
ATOM      8  C   UNL     1      -1.308  -0.133   0.000  0.00  0.00    +0.000 A 
ATOM      9  C   UNL     1      -1.308  -1.783   0.000  0.00  0.00    +0.000 A 
ATOM     10  C   UNL     1      -2.023  -0.545   0.000  0.00  0.00    +0.000 A 
ATOM     11  C   UNL     1      -2.023  -1.371   0.000  0.00  0.00    +0.000 A 
ENDROOT
BRANCH   2  12
ATOM     12  C   UNL     1       0.855   0.190   0.000  0.00  0.00    +0.000 A 
ATOM     13  C   UNL     1       0.770   1.010   0.000  0.00  0.00    +0.000 A 
ATOM     14  C   UNL     1       1.608  -0.147   0.000  0.00  0.00    +0.000 A 
ATOM     15  C   UNL     1       1.439   1.494   0.000  0.00  0.00    +0.000 A 
ATOM     16  C   UNL     1       2.277   0.337   0.000  0.00  0.00    +0.000 A 
ATOM     17  C   UNL     1       2.192   1.157   0.000  0.00  0.00    +0.000 A 
ENDBRANCH   2  12
BRANCH   2  18
ATOM     18  C   UNL     1      -0.067   0.491   0.000  0.00  0.00    +0.000 C 
BRANCH  18  19
ATOM     19  C   UNL     1      -0.873   0.664   0.000  0.00  0.00    +0.000 C 
BRANCH  19  20
ATOM     20  C   UNL     1      -1.127   1.449   0.000  0.00  0.00    +0.000 C 
BRANCH  20  21
ATOM     21  N   UNL     1      -1.934   1.622   0.000  0.00  0.00    +0.000 NA
ATOM     22  C   UNL     1      -2.187   2.407   0.000  0.00  0.00    +0.000 C 
ATOM     23  H   UNL     1      -2.277   1.242   0.000  0.00  0.00    +0.000 HD
ENDBRANCH  20  21
ENDBRANCH  19  20
ENDBRANCH  18  19
ENDBRANCH   2  18
TORSDOF 5
