REMARK  Name = 
REMARK  10 active torsions:
REMARK  status: ('A' for Active; 'I' for Inactive)
REMARK    1  A    between atoms: C_1  and  O_2
REMARK    2  A    between atoms: C_1  and  C_5
REMARK    3  A    between atoms: O_2  and  C_3
REMARK    4  A    between atoms: C_3  and  S_22
REMARK    5  A    between atoms: C_12  and  C_16
REMARK    6  A    between atoms: N_14  and  C_15
REMARK    7  A    between atoms: N_14  and  C_16
REMARK    8  A    between atoms: C_18  and  S_22
REMARK    9  A    between atoms: C_18  and  C_25
REMARK   10  A    between atoms: C_25  and  C_29
REMARK                            x       y       z     vdW  Elec       q    Type
REMARK                         _______ _______ _______ _____ _____    ______ ____
ROOT
ATOM      1  C   UNL     1       2.311  -1.286   0.000  0.00  0.00    +0.000 C 
ATOM      2  C   UNL     1       1.575  -1.274   0.000  0.00  0.00    +0.000 C 
ATOM      3  C   UNL     1       3.022  -1.704   0.000  0.00  0.00    +0.000 C 
ENDROOT
BRANCH   1   4
ATOM      4  N   UNL     1       2.311  -0.450   0.000  0.00  0.00    +0.000 N 
ATOM      5  C   UNL     1       3.022  -0.031   0.000  0.00  0.00    +0.000 C 
ATOM      6  O   UNL     1       3.733  -0.450   0.000  0.00  0.00    +0.000 OA
BRANCH   4   7
ATOM      7  C   UNL     1       1.604  -0.031   0.000  0.00  0.00    +0.000 C 
BRANCH   7   9
ATOM      8  N   UNL     1       2.311   2.056   0.000  0.00  0.00    +0.000 NA
ATOM      9  C   UNL     1       1.604   0.805   0.000  0.00  0.00    +0.000 A 
ATOM     10  C   UNL     1       2.311   1.224   0.000  0.00  0.00    +0.000 A 
ATOM     11  N   UNL     1       0.893   2.056   0.000  0.00  0.00    +0.000 NA
ATOM     12  C   UNL     1       1.604   2.474   0.000  0.00  0.00    +0.000 A 
ATOM     13  C   UNL     1       0.893   1.224   0.000  0.00  0.00    +0.000 A 
ATOM     14  N   UNL     1       3.022   0.805   0.000  0.00  0.00    +0.000 NA
ATOM     15  C   UNL     1       1.604   3.311   0.000  0.00  0.00    +0.000 C 
ENDBRANCH   7   9
ENDBRANCH   4   7
ENDBRANCH   1   4
BRANCH   2  16
ATOM     16  S   UNL     1       0.696  -1.274   0.000  0.00  0.00    +0.000 S 
BRANCH  16  17
ATOM     17  C   UNL     1      -0.182  -1.270   0.000  0.00  0.00    +0.000 C 
BRANCH  17  18
ATOM     18  O   UNL     1      -0.893  -0.851   0.000  0.00  0.00    +0.000 OA
BRANCH  18  19
ATOM     19  C   UNL     1      -1.604  -1.270   0.000  0.00  0.00    +0.000 C 
ATOM     20  O   UNL     1      -1.604  -2.106   0.000  0.00  0.00    +0.000 OA
BRANCH  19  21
ATOM     21  C   UNL     1      -2.315  -0.851   0.000  0.00  0.00    +0.000 A 
ATOM     22  C   UNL     1      -2.315  -0.015   0.000  0.00  0.00    +0.000 A 
ATOM     23  C   UNL     1      -3.026  -1.270   0.000  0.00  0.00    +0.000 A 
ATOM     24  C   UNL     1      -3.733  -0.851   0.000  0.00  0.00    +0.000 A 
ATOM     25  C   UNL     1      -3.026   0.404   0.000  0.00  0.00    +0.000 A 
ATOM     26  C   UNL     1      -3.733  -0.015   0.000  0.00  0.00    +0.000 A 
ENDBRANCH  19  21
ENDBRANCH  18  19
ENDBRANCH  17  18
ENDBRANCH  16  17
ENDBRANCH   2  16
BRANCH   2  27
ATOM     27  C   UNL     1       1.575  -2.215   0.000  0.00  0.00    +0.000 C 
BRANCH  27  29
ATOM     28  O   UNL     1       1.010  -3.311   0.000  0.00  0.00    +0.000 OA
ATOM     29  C   UNL     1       1.010  -2.625   0.000  0.00  0.00    +0.000 C 
ENDBRANCH  27  29
ENDBRANCH   2  27
TORSDOF 10
