REMARK  Name = 
REMARK  9 active torsions:
REMARK  status: ('A' for Active; 'I' for Inactive)
REMARK    1  A    between atoms: C_1  and  N_7
REMARK    2  A    between atoms: C_2  and  O_8
REMARK    3  A    between atoms: C_4  and  O_10
REMARK    4  A    between atoms: O_8  and  C_29
REMARK    5  A    between atoms: O_10  and  C_18
REMARK    6  A    between atoms: C_12  and  C_13
REMARK    7  A    between atoms: C_13  and  C_16
REMARK    8  A    between atoms: C_22  and  C_24
REMARK    9  A    between atoms: C_31  and  N_36
REMARK                            x       y       z     vdW  Elec       q    Type
REMARK                         _______ _______ _______ _____ _____    ______ ____
ROOT
ATOM      1  C   UNL     1      -0.203   0.400   0.000  0.00  0.00    +0.000 C 
ATOM      2  C   UNL     1      -0.619  -0.313   0.000  0.00  0.00    +0.000 C 
ATOM      3  C   UNL     1      -0.213  -1.026   0.000  0.00  0.00    +0.000 C 
ATOM      4  C   UNL     1       0.612  -1.033   0.000  0.00  0.00    +0.000 C 
ATOM      5  C   UNL     1       1.029  -0.320   0.000  0.00  0.00    +0.000 C 
ATOM      6  C   UNL     1       0.621   0.399   0.000  0.00  0.00    +0.000 C 
ATOM      7  O   UNL     1      -0.630  -1.738   0.000  0.00  0.00    +0.000 OA
ATOM      8  N   UNL     1       1.854  -0.326   0.000  0.00  0.00    +0.000 NA
ENDROOT
BRANCH   1   9
ATOM      9  N   UNL     1      -0.613   1.115   0.000  0.00  0.00    +0.000 NA
ATOM     10  C   UNL     1      -0.198   1.829   0.000  0.00  0.00    +0.000 C 
ATOM     11  O   UNL     1       0.627   1.826   0.000  0.00  0.00    +0.000 OA
BRANCH  10  12
ATOM     12  C   UNL     1      -0.608   2.544   0.000  0.00  0.00    +0.000 C 
ATOM     13  O   UNL     1      -0.194   3.258   0.000  0.00  0.00    +0.000 OA
BRANCH  12  14
ATOM     14  C   UNL     1      -1.433   2.547   0.000  0.00  0.00    +0.000 C 
ATOM     15  N   UNL     1      -1.843   3.263   0.000  0.00  0.00    +0.000 NA
ENDBRANCH  12  14
ENDBRANCH  10  12
ENDBRANCH   1   9
BRANCH   4  16
ATOM     16  O   UNL     1       1.020  -1.750   0.000  0.00  0.00    +0.000 OA
BRANCH  16  17
ATOM     17  C   UNL     1       1.844  -1.756   0.000  0.00  0.00    +0.000 C 
ATOM     18  C   UNL     1       2.249  -2.474   0.000  0.00  0.00    +0.000 C 
ATOM     19  C   UNL     1       3.070  -2.482   0.000  0.00  0.00    +0.000 C 
ATOM     20  C   UNL     1       3.491  -1.772   0.000  0.00  0.00    +0.000 C 
ATOM     21  C   UNL     1       3.085  -1.053   0.000  0.00  0.00    +0.000 C 
ATOM     22  O   UNL     1       2.258  -1.044   0.000  0.00  0.00    +0.000 OA
ATOM     23  O   UNL     1       4.316  -1.781   0.000  0.00  0.00    +0.000 OA
ATOM     24  O   UNL     1       3.475  -3.201   0.000  0.00  0.00    +0.000 OA
ATOM     25  O   UNL     1       1.829  -3.185   0.000  0.00  0.00    +0.000 OA
BRANCH  21  26
ATOM     26  C   UNL     1       3.505  -0.343   0.000  0.00  0.00    +0.000 C 
ATOM     27  N   UNL     1       4.330  -0.351   0.000  0.00  0.00    +0.000 NA
ENDBRANCH  21  26
ENDBRANCH  16  17
ENDBRANCH   4  16
BRANCH   2  28
ATOM     28  O   UNL     1      -1.444  -0.308   0.000  0.00  0.00    +0.000 OA
BRANCH  28  29
ATOM     29  C   UNL     1      -1.861  -1.020   0.000  0.00  0.00    +0.000 C 
ATOM     30  C   UNL     1      -2.683  -1.014   0.000  0.00  0.00    +0.000 C 
ATOM     31  C   UNL     1      -3.099  -1.722   0.000  0.00  0.00    +0.000 C 
ATOM     32  C   UNL     1      -2.694  -2.441   0.000  0.00  0.00    +0.000 C 
ATOM     33  C   UNL     1      -1.868  -2.447   0.000  0.00  0.00    +0.000 C 
ATOM     34  O   UNL     1      -1.447  -1.735   0.000  0.00  0.00    +0.000 OA
ATOM     35  O   UNL     1      -3.090  -0.296   0.000  0.00  0.00    +0.000 OA
ATOM     36  C   UNL     1      -3.523  -2.434   0.000  0.00  0.00    +0.000 C 
ATOM     37  O   UNL     1      -2.703  -3.263   0.000  0.00  0.00    +0.000 OA
BRANCH  31  38
ATOM     38  N   UNL     1      -3.924  -1.714   0.000  0.00  0.00    +0.000 NA
ATOM     39  C   UNL     1      -4.330  -0.996   0.000  0.00  0.00    +0.000 C 
ENDBRANCH  31  38
ENDBRANCH  28  29
ENDBRANCH   2  28
TORSDOF 9
