REMARK  Name = 
REMARK  8 active torsions:
REMARK  status: ('A' for Active; 'I' for Inactive)
REMARK    1  A    between atoms: C_2  and  C_3
REMARK    2  A    between atoms: C_3  and  N_4
REMARK    3  A    between atoms: N_6  and  C_25
REMARK    4  A    between atoms: C_10  and  C_11
REMARK    5  A    between atoms: C_14  and  O_18
REMARK    6  A    between atoms: O_18  and  C_19
REMARK    7  A    between atoms: C_19  and  C_20
REMARK    8  A    between atoms: C_20  and  C_21
REMARK                            x       y       z     vdW  Elec       q    Type
REMARK                         _______ _______ _______ _____ _____    ______ ____
ROOT
ATOM      1  N   UNL     1      -5.352  -5.959   0.000  0.00  0.00    +0.000 NA
ATOM      2  C   UNL     1      -5.016  -5.205   0.000  0.00  0.00    +0.000 C 
ATOM      3  N   UNL     1      -5.429  -4.490   0.000  0.00  0.00    +0.000 N 
ATOM      4  C   UNL     1      -4.877  -3.877   0.000  0.00  0.00    +0.000 C 
ATOM      5  O   UNL     1      -5.048  -3.070   0.000  0.00  0.00    +0.000 OA
ATOM      6  C   UNL     1      -4.123  -4.213   0.000  0.00  0.00    +0.000 C 
ATOM      7  C   UNL     1      -3.409  -3.800   0.000  0.00  0.00    +0.000 C 
ATOM      8  S   UNL     1      -4.209  -5.033   0.000  0.00  0.00    +0.000 S 
ENDROOT
BRANCH   3   9
ATOM      9  C   UNL     1      -6.249  -4.404   0.000  0.00  0.00    +0.000 A 
ATOM     10  C   UNL     1      -6.734  -5.072   0.000  0.00  0.00    +0.000 A 
ATOM     11  C   UNL     1      -7.555  -4.985   0.000  0.00  0.00    +0.000 A 
ATOM     12  C   UNL     1      -7.890  -4.232   0.000  0.00  0.00    +0.000 A 
ATOM     13  C   UNL     1      -7.405  -3.564   0.000  0.00  0.00    +0.000 A 
ATOM     14  C   UNL     1      -6.585  -3.651   0.000  0.00  0.00    +0.000 A 
ATOM     15  C   UNL     1      -6.100  -2.983   0.000  0.00  0.00    +0.000 C 
ENDBRANCH   3   9
BRANCH   7  16
ATOM     16  C   UNL     1      -2.694  -4.213   0.000  0.00  0.00    +0.000 A 
ATOM     17  C   UNL     1      -1.980  -3.800   0.000  0.00  0.00    +0.000 A 
ATOM     18  C   UNL     1      -1.265  -4.213   0.000  0.00  0.00    +0.000 A 
ATOM     19  C   UNL     1      -1.265  -5.038   0.000  0.00  0.00    +0.000 A 
ATOM     20  C   UNL     1      -1.980  -5.450   0.000  0.00  0.00    +0.000 A 
ATOM     21  C   UNL     1      -2.694  -5.038   0.000  0.00  0.00    +0.000 A 
ATOM     22 CL   UNL     1      -1.980  -6.275   0.000  0.00  0.00    +0.000 Cl
BRANCH  19  23
ATOM     23  O   UNL     1      -0.551  -5.450   0.000  0.00  0.00    +0.000 OA
BRANCH  23  24
ATOM     24  C   UNL     1      -0.551  -6.275   0.000  0.00  0.00    +0.000 C 
BRANCH  24  25
ATOM     25  C   UNL     1       0.164  -6.688   0.000  0.00  0.00    +0.000 C 
ATOM     26  O   UNL     1       0.164  -7.513   0.000  0.00  0.00    +0.000 OA
BRANCH  25  27
ATOM     27  C   UNL     1       0.878  -6.275   0.000  0.00  0.00    +0.000 C 
ATOM     28  O   UNL     1       0.878  -5.450   0.000  0.00  0.00    +0.000 OA
ENDBRANCH  25  27
ENDBRANCH  24  25
ENDBRANCH  23  24
ENDBRANCH  19  23
ENDBRANCH   7  16
BRANCH   1  29
ATOM     29  C   UNL     1      -4.867  -6.626   0.000  0.00  0.00    +0.000 C 
BRANCH  29  31
ATOM     30  C   UNL     1      -4.718  -8.047   0.000  0.00  0.00    +0.000 C 
ATOM     31  C   UNL     1      -5.203  -7.380   0.000  0.00  0.00    +0.000 C 
ENDBRANCH  29  31
ENDBRANCH   1  29
TORSDOF 8
