REMARK  Name = 
REMARK  1 active torsions:
REMARK  status: ('A' for Active; 'I' for Inactive)
REMARK    1  A    between atoms: C_2  and  N_9
REMARK                            x       y       z     vdW  Elec       q    Type
REMARK                         _______ _______ _______ _____ _____    ______ ____
ROOT
ATOM      1  C   UNL     1       3.184   0.630   0.000  0.00  0.00    +0.000 A 
ATOM      2  C   UNL     1       2.772   1.345   0.000  0.00  0.00    +0.000 A 
ATOM      3  C   UNL     1       3.184   2.059   0.000  0.00  0.00    +0.000 A 
ATOM      4  N   UNL     1       4.009   2.059   0.000  0.00  0.00    +0.000 NA
ATOM      5  C   UNL     1       4.422   1.345   0.000  0.00  0.00    +0.000 A 
ATOM      6  C   UNL     1       4.009   0.630   0.000  0.00  0.00    +0.000 A 
ATOM      7 CL   UNL     1       4.422  -0.084   0.000  0.00  0.00    +0.000 Cl
ATOM      8 CL   UNL     1       5.247   1.345   0.000  0.00  0.00    +0.000 Cl
ENDROOT
BRANCH   2   9
ATOM      9  N   UNL     1       1.947   1.345   0.000  0.00  0.00    +0.000 N 
ATOM     10  C   UNL     1       1.462   0.677   0.000  0.00  0.00    +0.000 C 
ATOM     11  C   UNL     1       0.677   0.932   0.000  0.00  0.00    +0.000 C 
ATOM     12  C   UNL     1      -0.148   0.932   0.000  0.00  0.00    +0.000 C 
ATOM     13  N   UNL     1      -0.148   1.757   0.000  0.00  0.00    +0.000 NA
ATOM     14  C   UNL     1       0.677   1.757   0.000  0.00  0.00    +0.000 C 
ATOM     15  C   UNL     1       1.462   2.012   0.000  0.00  0.00    +0.000 C 
ENDBRANCH   2   9
TORSDOF 1
