REMARK  Name = 
REMARK  3 active torsions:
REMARK  status: ('A' for Active; 'I' for Inactive)
REMARK    1  A    between atoms: C_1  and  C_4
REMARK    2  A    between atoms: C_4  and  O_7
REMARK    3  A    between atoms: O_7  and  C_9
REMARK                            x       y       z     vdW  Elec       q    Type
REMARK                         _______ _______ _______ _____ _____    ______ ____
ROOT
ATOM      1  C   UNL     1       0.378   0.001   0.000  0.00  0.00    +0.000 A 
ATOM      2  C   UNL     1       1.081   0.407   0.000  0.00  0.00    +0.000 A 
ATOM      3  C   UNL     1       0.378  -0.832   0.000  0.00  0.00    +0.000 A 
ATOM      4  C   UNL     1       1.799   0.001   0.000  0.00  0.00    +0.000 A 
ATOM      5  C   UNL     1       1.081  -1.234   0.000  0.00  0.00    +0.000 A 
ATOM      6  C   UNL     1       1.799  -0.832   0.000  0.00  0.00    +0.000 A 
ENDROOT
BRANCH   1   7
ATOM      7  C   UNL     1      -0.356   0.418   0.000  0.00  0.00    +0.000 C 
BRANCH   7   8
ATOM      8  O   UNL     1      -1.081  -0.010   0.000  0.00  0.00    +0.000 OA
BRANCH   8   9
ATOM      9  C   UNL     1      -1.799   0.401   0.000  0.00  0.00    +0.000 C 
ATOM     10  O   UNL     1      -1.799   1.234   0.000  0.00  0.00    +0.000 OA
ENDBRANCH   8   9
ENDBRANCH   7   8
ENDBRANCH   1   7
TORSDOF 3
