REMARK  Name = 
REMARK  0 active torsions:
REMARK  status: ('A' for Active; 'I' for Inactive)
REMARK                            x       y       z     vdW  Elec       q    Type
REMARK                         _______ _______ _______ _____ _____    ______ ____
ROOT
ATOM      1  N   UNL     1       3.089  -2.219   0.000  0.00  0.00    +0.000 NA
ATOM      2  C   UNL     1       3.804  -1.806   0.000  0.00  0.00    +0.000 C 
ATOM      3  O   UNL     1       4.518  -2.219   0.000  0.00  0.00    +0.000 OA
ATOM      4  N   UNL     1       3.804  -0.981   0.000  0.00  0.00    +0.000 N 
ATOM      5  C   UNL     1       4.547  -0.623   0.000  0.00  0.00    +0.000 A 
ATOM      6  C   UNL     1       5.152  -1.184   0.000  0.00  0.00    +0.000 A 
ATOM      7  C   UNL     1       5.940  -0.941   0.000  0.00  0.00    +0.000 A 
ATOM      8  C   UNL     1       6.124  -0.137   0.000  0.00  0.00    +0.000 A 
ATOM      9  C   UNL     1       5.519   0.424   0.000  0.00  0.00    +0.000 A 
ATOM     10  C   UNL     1       4.731   0.181   0.000  0.00  0.00    +0.000 A 
ATOM     11  C   UNL     1       4.216   0.826   0.000  0.00  0.00    +0.000 C 
ATOM     12  C   UNL     1       3.391   0.826   0.000  0.00  0.00    +0.000 C 
ATOM     13  C   UNL     1       2.877   0.181   0.000  0.00  0.00    +0.000 A 
ATOM     14  C   UNL     1       3.060  -0.623   0.000  0.00  0.00    +0.000 A 
ATOM     15  C   UNL     1       2.456  -1.184   0.000  0.00  0.00    +0.000 A 
ATOM     16  C   UNL     1       1.667  -0.941   0.000  0.00  0.00    +0.000 A 
ATOM     17  C   UNL     1       1.484  -0.137   0.000  0.00  0.00    +0.000 A 
ATOM     18  C   UNL     1       2.088   0.424   0.000  0.00  0.00    +0.000 A 
ATOM     19  O   UNL     1       4.552   1.580   0.000  0.00  0.00    +0.000 OA
ENDROOT
TORSDOF 0
