REMARK  Name = 
REMARK  5 active torsions:
REMARK  status: ('A' for Active; 'I' for Inactive)
REMARK    1  A    between atoms: C_1  and  C_8
REMARK    2  A    between atoms: C_4  and  N_14
REMARK    3  A    between atoms: C_8  and  O_9
REMARK    4  A    between atoms: O_9  and  P_10
REMARK    5  A    between atoms: C_15  and  C_22
REMARK                            x       y       z     vdW  Elec       q    Type
REMARK                         _______ _______ _______ _____ _____    ______ ____
ROOT
ATOM      1  C   UNL     1      -0.839  -0.483   0.000  0.00  0.00    +0.000 C 
ATOM      2  O   UNL     1      -0.171   0.001   0.000  0.00  0.00    +0.000 OA
ATOM      3  C   UNL     1      -0.585  -1.268   0.000  0.00  0.00    +0.000 C 
ATOM      4  C   UNL     1       0.496  -0.484   0.000  0.00  0.00    +0.000 C 
ATOM      5  C   UNL     1       0.240  -1.269   0.000  0.00  0.00    +0.000 C 
ATOM      6  O   UNL     1       0.725  -1.936   0.000  0.00  0.00    +0.000 OA
ATOM      7  O   UNL     1      -1.070  -1.935   0.000  0.00  0.00    +0.000 OA
ENDROOT
BRANCH   4   8
ATOM      8  N   UNL     1       1.281  -0.230   0.000  0.00  0.00    +0.000 N 
ATOM      9  C   UNL     1       1.453   0.577   0.000  0.00  0.00    +0.000 A 
ATOM     10  C   UNL     1       1.893  -0.782   0.000  0.00  0.00    +0.000 A 
ATOM     11  C   UNL     1       2.238   0.831   0.000  0.00  0.00    +0.000 A 
ATOM     12  N   UNL     1       2.678  -0.528   0.000  0.00  0.00    +0.000 NA
ATOM     13  C   UNL     1       2.850   0.279   0.000  0.00  0.00    +0.000 A 
ATOM     14  O   UNL     1       1.721  -1.589   0.000  0.00  0.00    +0.000 OA
ATOM     15  O   UNL     1       3.635   0.533   0.000  0.00  0.00    +0.000 OA
BRANCH   9  16
ATOM     16  C   UNL     1       0.840   1.129   0.000  0.00  0.00    +0.000 C 
ATOM     17  O   UNL     1       0.055   0.875   0.000  0.00  0.00    +0.000 OA
ATOM     18  O   UNL     1       1.012   1.936   0.000  0.00  0.00    +0.000 OA
ENDBRANCH   9  16
ENDBRANCH   4   8
BRANCH   1  19
ATOM     19  C   UNL     1      -1.623  -0.227   0.000  0.00  0.00    +0.000 C 
BRANCH  19  20
ATOM     20  O   UNL     1      -2.237  -0.779   0.000  0.00  0.00    +0.000 OA
BRANCH  20  21
ATOM     21  P   UNL     1      -3.022  -0.523   0.000  0.00  0.00    +0.000 P 
ATOM     22  O   UNL     1      -3.635  -1.075   0.000  0.00  0.00    +0.000 OA
ATOM     23  O   UNL     1      -3.192   0.284   0.000  0.00  0.00    +0.000 OA
ATOM     24  O   UNL     1      -2.969  -1.347   0.000  0.00  0.00    +0.000 OA
ENDBRANCH  20  21
ENDBRANCH  19  20
ENDBRANCH   1  19
TORSDOF 5
