REMARK  Name = 
REMARK  9 active torsions:
REMARK  status: ('A' for Active; 'I' for Inactive)
REMARK    1  A    between atoms: C_5  and  C_8
REMARK    2  A    between atoms: C_8  and  O_9
REMARK    3  A    between atoms: C_8  and  C_27
REMARK    4  A    between atoms: O_9  and  C_10
REMARK    5  A    between atoms: C_10  and  C_11
REMARK    6  A    between atoms: C_11  and  N_12
REMARK    7  A    between atoms: N_15  and  C_16
REMARK    8  A    between atoms: C_16  and  C_17
REMARK    9  A    between atoms: C_18  and  C_19
REMARK                            x       y       z     vdW  Elec       q    Type
REMARK                         _______ _______ _______ _____ _____    ______ ____
ROOT
ATOM      1  C   UNL     1       2.858  -4.950   0.000  0.00  0.00    +0.000 C 
ENDROOT
BRANCH   1   2
ATOM      2  O   UNL     1       2.858  -4.125   0.000  0.00  0.00    +0.000 OA
BRANCH   2   3
ATOM      3  C   UNL     1       2.143  -3.712   0.000  0.00  0.00    +0.000 C 
BRANCH   3   8
ATOM      4  F   UNL     1       2.143  -0.412   0.000  0.00  0.00    +0.000 F 
ATOM      5  C   UNL     1       2.143  -1.238   0.000  0.00  0.00    +0.000 A 
ATOM      6  C   UNL     1       2.858  -1.650   0.000  0.00  0.00    +0.000 A 
ATOM      7  C   UNL     1       2.858  -2.475   0.000  0.00  0.00    +0.000 A 
ATOM      8  C   UNL     1       2.143  -2.888   0.000  0.00  0.00    +0.000 A 
ATOM      9  C   UNL     1       1.429  -2.475   0.000  0.00  0.00    +0.000 A 
ATOM     10  C   UNL     1       1.429  -1.650   0.000  0.00  0.00    +0.000 A 
ENDBRANCH   3   8
BRANCH   3  11
ATOM     11  C   UNL     1       1.429  -4.125   0.000  0.00  0.00    +0.000 A 
ATOM     12  C   UNL     1       1.429  -4.950   0.000  0.00  0.00    +0.000 A 
ATOM     13  C   UNL     1       0.715  -5.362   0.000  0.00  0.00    +0.000 A 
ATOM     14  C   UNL     1       0.000  -4.950   0.000  0.00  0.00    +0.000 A 
ATOM     15  F   UNL     1      -0.715  -5.362   0.000  0.00  0.00    +0.000 F 
ATOM     16  C   UNL     1       0.000  -4.125   0.000  0.00  0.00    +0.000 A 
ATOM     17  C   UNL     1       0.715  -3.712   0.000  0.00  0.00    +0.000 A 
ENDBRANCH   3  11
ENDBRANCH   2   3
ENDBRANCH   1   2
BRANCH   1  18
ATOM     18  C   UNL     1       3.572  -5.362   0.000  0.00  0.00    +0.000 C 
BRANCH  18  19
ATOM     19  N   UNL     1       3.572  -6.188   0.000  0.00  0.00    +0.000 NA
ATOM     20  C   UNL     1       4.287  -6.600   0.000  0.00  0.00    +0.000 C 
ATOM     21  C   UNL     1       4.287  -7.425   0.000  0.00  0.00    +0.000 C 
ATOM     22  N   UNL     1       3.572  -7.838   0.000  0.00  0.00    +0.000 NA
ATOM     23  C   UNL     1       2.858  -7.425   0.000  0.00  0.00    +0.000 C 
ATOM     24  C   UNL     1       2.858  -6.600   0.000  0.00  0.00    +0.000 C 
BRANCH  22  25
ATOM     25  C   UNL     1       3.572  -8.662   0.000  0.00  0.00    +0.000 C 
BRANCH  25  26
ATOM     26  C   UNL     1       4.287  -9.075   0.000  0.00  0.00    +0.000 C 
ATOM     27  C   UNL     1       5.001  -8.662   0.000  0.00  0.00    +0.000 C 
BRANCH  27  28
ATOM     28  C   UNL     1       5.716  -9.075   0.000  0.00  0.00    +0.000 A 
ATOM     29  C   UNL     1       6.430  -8.662   0.000  0.00  0.00    +0.000 A 
ATOM     30  C   UNL     1       7.145  -9.075   0.000  0.00  0.00    +0.000 A 
ATOM     31  C   UNL     1       7.145  -9.900   0.000  0.00  0.00    +0.000 A 
ATOM     32  C   UNL     1       6.430 -10.312   0.000  0.00  0.00    +0.000 A 
ATOM     33  C   UNL     1       5.716  -9.900   0.000  0.00  0.00    +0.000 A 
ENDBRANCH  27  28
ENDBRANCH  25  26
ENDBRANCH  22  25
ENDBRANCH  18  19
ENDBRANCH   1  18
TORSDOF 9
