REMARK  Name = 
REMARK  0 active torsions:
REMARK  status: ('A' for Active; 'I' for Inactive)
REMARK                            x       y       z     vdW  Elec       q    Type
REMARK                         _______ _______ _______ _____ _____    ______ ____
ROOT
ATOM      1  C   UNL     1      -1.047  -0.520   0.000  0.00  0.00    +0.000 A 
ATOM      2  C   UNL     1      -1.047  -1.345   0.000  0.00  0.00    +0.000 A 
ATOM      3  C   UNL     1      -1.762  -0.107   0.000  0.00  0.00    +0.000 A 
ATOM      4  C   UNL     1      -1.762  -1.757   0.000  0.00  0.00    +0.000 A 
ATOM      5  C   UNL     1      -2.476  -0.520   0.000  0.00  0.00    +0.000 A 
ATOM      6  C   UNL     1      -2.476  -1.345   0.000  0.00  0.00    +0.000 A 
ATOM      7  C   UNL     1      -0.333  -0.107   0.000  0.00  0.00    +0.000 C 
ATOM      8  C   UNL     1       0.382  -0.520   0.000  0.00  0.00    +0.000 C 
ATOM      9  C   UNL     1      -0.333  -1.757   0.000  0.00  0.00    +0.000 C 
ATOM     10  C   UNL     1       0.382  -1.345   0.000  0.00  0.00    +0.000 C 
ATOM     11  C   UNL     1      -0.333   0.718   0.000  0.00  0.00    +0.000 C 
ATOM     12  C   UNL     1       0.382   1.130   0.000  0.00  0.00    +0.000 C 
ATOM     13  C   UNL     1       1.096  -0.107   0.000  0.00  0.00    +0.000 C 
ATOM     14  C   UNL     1       1.096   0.718   0.000  0.00  0.00    +0.000 C 
ATOM     15  C   UNL     1       1.881  -0.362   0.000  0.00  0.00    +0.000 C 
ATOM     16  C   UNL     1       2.366   0.305   0.000  0.00  0.00    +0.000 C 
ATOM     17  C   UNL     1       1.881   0.973   0.000  0.00  0.00    +0.000 C 
ATOM     18  O   UNL     1      -3.191  -1.757   0.000  0.00  0.00    +0.000 OA
ATOM     19  O   UNL     1       3.191   0.305   0.000  0.00  0.00    +0.000 OA
ATOM     20  O   UNL     1       2.136  -1.147   0.000  0.00  0.00    +0.000 OA
ATOM     21  O   UNL     1       2.136   1.757   0.000  0.00  0.00    +0.000 OA
ATOM     22  C   UNL     1       1.105   1.583   0.000  0.00  0.00    +0.000 C 
ENDROOT
TORSDOF 0
