REMARK  Name = 
REMARK  5 active torsions:
REMARK  status: ('A' for Active; 'I' for Inactive)
REMARK    1  A    between atoms: C_1  and  C_2
REMARK    2  A    between atoms: C_1  and  O_9
REMARK    3  A    between atoms: O_9  and  C_11
REMARK    4  A    between atoms: C_11  and  C_12
REMARK    5  A    between atoms: C_12  and  C_13
REMARK                            x       y       z     vdW  Elec       q    Type
REMARK                         _______ _______ _______ _____ _____    ______ ____
ROOT
ATOM      1  C   UNL     1       1.391   1.427   0.000  0.00  0.00    +0.000 C 
ATOM      2  O   UNL     1       2.087   1.871   0.000  0.00  0.00    +0.000 OA
ENDROOT
BRANCH   1   3
ATOM      3  C   UNL     1       1.428   0.602   0.000  0.00  0.00    +0.000 A 
ATOM      4  C   UNL     1       2.159   0.222   0.000  0.00  0.00    +0.000 A 
ATOM      5  C   UNL     1       2.196  -0.603   0.000  0.00  0.00    +0.000 A 
ATOM      6  C   UNL     1       1.501  -1.046   0.000  0.00  0.00    +0.000 A 
ATOM      7  C   UNL     1       0.769  -0.666   0.000  0.00  0.00    +0.000 A 
ATOM      8  C   UNL     1       0.732   0.159   0.000  0.00  0.00    +0.000 A 
ATOM      9  O   UNL     1       1.537  -1.871   0.000  0.00  0.00    +0.000 OA
ENDBRANCH   1   3
BRANCH   1  10
ATOM     10  O   UNL     1       0.659   1.807   0.000  0.00  0.00    +0.000 OA
BRANCH  10  11
ATOM     11  C   UNL     1      -0.036   1.364   0.000  0.00  0.00    +0.000 C 
BRANCH  11  12
ATOM     12  C   UNL     1      -0.768   1.744   0.000  0.00  0.00    +0.000 C 
BRANCH  12  13
ATOM     13  C   UNL     1      -1.464   1.301   0.000  0.00  0.00    +0.000 C 
ATOM     14  C   UNL     1      -2.196   1.681   0.000  0.00  0.00    +0.000 C 
ENDBRANCH  12  13
ENDBRANCH  11  12
ENDBRANCH  10  11
ENDBRANCH   1  10
TORSDOF 5
