REMARK  Name = 
REMARK  2 active torsions:
REMARK  status: ('A' for Active; 'I' for Inactive)
REMARK    1  A    between atoms: N_4  and  C_9
REMARK    2  A    between atoms: C_11  and  C_19
REMARK                            x       y       z     vdW  Elec       q    Type
REMARK                         _______ _______ _______ _____ _____    ______ ____
ROOT
ATOM      1  C   UNL     1      -0.143  -0.030   0.000  0.00  0.00    +0.000 C 
ATOM      2  C   UNL     1      -0.628  -0.698   0.000  0.00  0.00    +0.000 C 
ATOM      3  C   UNL     1      -0.143  -1.365   0.000  0.00  0.00    +0.000 C 
ATOM      4  C   UNL     1       0.641  -1.110   0.000  0.00  0.00    +0.000 A 
ATOM      5  C   UNL     1       0.641  -0.285   0.000  0.00  0.00    +0.000 A 
ATOM      6  C   UNL     1       1.356   0.127   0.000  0.00  0.00    +0.000 A 
ATOM      7  C   UNL     1       2.070  -0.285   0.000  0.00  0.00    +0.000 A 
ATOM      8  C   UNL     1       2.070  -1.110   0.000  0.00  0.00    +0.000 A 
ATOM      9  C   UNL     1       1.356  -1.523   0.000  0.00  0.00    +0.000 A 
ATOM     10 CL   UNL     1       2.784   0.127   0.000  0.00  0.00    +0.000 Cl
ENDROOT
BRANCH   1  14
ATOM     11  C   UNL     1      -0.073   2.976   0.000  0.00  0.00    +0.000 C 
ATOM     12  C   UNL     1      -0.101   2.152   0.000  0.00  0.00    +0.000 C 
ATOM     13  C   UNL     1       0.154   1.367   0.000  0.00  0.00    +0.000 C 
ATOM     14  N   UNL     1      -0.398   0.754   0.000  0.00  0.00    +0.000 NA
ATOM     15  C   UNL     1      -1.205   0.926   0.000  0.00  0.00    +0.000 C 
ATOM     16  C   UNL     1      -1.460   1.710   0.000  0.00  0.00    +0.000 C 
ATOM     17  N   UNL     1      -0.908   2.323   0.000  0.00  0.00    +0.000 NA
ATOM     18  C   UNL     1      -1.163   3.108   0.000  0.00  0.00    +0.000 C 
ATOM     19  C   UNL     1       0.716   2.267   0.000  0.00  0.00    +0.000 C 
ENDBRANCH   1  14
BRANCH   3  20
ATOM     20  C   UNL     1      -0.398  -2.150   0.000  0.00  0.00    +0.000 A 
ATOM     21  C   UNL     1       0.154  -2.763   0.000  0.00  0.00    +0.000 A 
ATOM     22  C   UNL     1      -0.101  -3.548   0.000  0.00  0.00    +0.000 A 
ATOM     23  C   UNL     1      -0.908  -3.719   0.000  0.00  0.00    +0.000 A 
ATOM     24  C   UNL     1      -1.460  -3.106   0.000  0.00  0.00    +0.000 A 
ATOM     25  C   UNL     1      -1.205  -2.321   0.000  0.00  0.00    +0.000 A 
ENDBRANCH   3  20
TORSDOF 2
