REMARK  Name = 
REMARK  2 active torsions:
REMARK  status: ('A' for Active; 'I' for Inactive)
REMARK    1  A    between atoms: C_6  and  O_8
REMARK    2  A    between atoms: O_8  and  C_9
REMARK                            x       y       z     vdW  Elec       q    Type
REMARK                         _______ _______ _______ _____ _____    ______ ____
ROOT
ATOM      1  C   UNL     1       4.840   0.412   0.000  0.00  0.00    +0.000 C 
ATOM      2  C   UNL     1       4.014   0.412   0.000  0.00  0.00    +0.000 A 
ATOM      3  C   UNL     1       3.602  -0.302   0.000  0.00  0.00    +0.000 A 
ATOM      4  C   UNL     1       2.777  -0.302   0.000  0.00  0.00    +0.000 A 
ATOM      5  C   UNL     1       2.365   0.412   0.000  0.00  0.00    +0.000 A 
ATOM      6  C   UNL     1       2.777   1.127   0.000  0.00  0.00    +0.000 A 
ATOM      7  C   UNL     1       3.602   1.127   0.000  0.00  0.00    +0.000 A 
ATOM      8  C   UNL     1       1.540   0.412   0.000  0.00  0.00    +0.000 C 
ATOM      9  C   UNL     1       1.127  -0.302   0.000  0.00  0.00    +0.000 C 
ATOM     10  C   UNL     1       0.302  -0.302   0.000  0.00  0.00    +0.000 C 
ATOM     11  C   UNL     1      -0.111   0.412   0.000  0.00  0.00    +0.000 C 
ATOM     12  C   UNL     1       0.302   1.127   0.000  0.00  0.00    +0.000 C 
ATOM     13  C   UNL     1       1.127   1.127   0.000  0.00  0.00    +0.000 C 
ATOM     14  C   UNL     1      -0.111   1.841   0.000  0.00  0.00    +0.000 C 
ATOM     15  C   UNL     1       1.540  -1.016   0.000  0.00  0.00    +0.000 C 
ATOM     16  O   UNL     1       2.365  -1.016   0.000  0.00  0.00    +0.000 OA
ATOM     17  C   UNL     1       0.840  -1.454   0.000  0.00  0.00    +0.000 C 
ATOM     18  C   UNL     1       1.511  -1.841   0.000  0.00  0.00    +0.000 C 
ENDROOT
BRANCH   6  19
ATOM     19  O   UNL     1       2.365   1.841   0.000  0.00  0.00    +0.000 OA
BRANCH  19  20
ATOM     20  C   UNL     1       2.777   2.556   0.000  0.00  0.00    +0.000 C 
ATOM     21  O   UNL     1       3.602   2.556   0.000  0.00  0.00    +0.000 OA
ATOM     22  C   UNL     1       2.365   3.270   0.000  0.00  0.00    +0.000 C 
ENDBRANCH  19  20
ENDBRANCH   6  19
TORSDOF 2
