REMARK  Name = 
REMARK  6 active torsions:
REMARK  status: ('A' for Active; 'I' for Inactive)
REMARK    1  A    between atoms: O_1  and  C_2
REMARK    2  A    between atoms: O_1  and  C_16
REMARK    3  A    between atoms: C_2  and  C_3
REMARK    4  A    between atoms: C_2  and  C_10
REMARK    5  A    between atoms: C_17  and  O_18
REMARK    6  A    between atoms: O_18  and  C_19
REMARK                            x       y       z     vdW  Elec       q    Type
REMARK                         _______ _______ _______ _____ _____    ______ ____
ROOT
ATOM      1  C   UNL     1       0.333  -0.034   0.000  0.00  0.00    +0.000 C 
ENDROOT
BRANCH   1   2
ATOM      2  C   UNL     1       1.049   0.388   0.000  0.00  0.00    +0.000 A 
ATOM      3  C   UNL     1       1.049   1.213   0.000  0.00  0.00    +0.000 A 
ATOM      4  C   UNL     1       1.757   1.634   0.000  0.00  0.00    +0.000 A 
ATOM      5  C   UNL     1       2.482   1.222   0.000  0.00  0.00    +0.000 A 
ATOM      6  C   UNL     1       2.482   0.388   0.000  0.00  0.00    +0.000 A 
ATOM      7  C   UNL     1       1.770  -0.029   0.000  0.00  0.00    +0.000 A 
ENDBRANCH   1   2
BRANCH   1   8
ATOM      8  C   UNL     1       0.333  -0.864   0.000  0.00  0.00    +0.000 C 
ATOM      9  O   UNL     1      -0.374  -1.290   0.000  0.00  0.00    +0.000 OA
ATOM     10  C   UNL     1      -0.374  -2.070   0.000  0.00  0.00    +0.000 C 
ATOM     11  C   UNL     1       0.333  -2.428   0.000  0.00  0.00    +0.000 C 
ATOM     12  N   UNL     1       1.040  -1.993   0.000  0.00  0.00    +0.000 NA
ATOM     13  C   UNL     1       1.040  -1.208   0.000  0.00  0.00    +0.000 C 
ENDBRANCH   1   8
BRANCH   1  14
ATOM     14  O   UNL     1      -0.388   0.388   0.000  0.00  0.00    +0.000 OA
BRANCH  14  15
ATOM     15  C   UNL     1      -1.104  -0.034   0.000  0.00  0.00    +0.000 A 
ATOM     16  C   UNL     1      -1.766   0.356   0.000  0.00  0.00    +0.000 A 
ATOM     17  C   UNL     1      -2.446  -0.025   0.000  0.00  0.00    +0.000 A 
ATOM     18  C   UNL     1      -2.446  -0.796   0.000  0.00  0.00    +0.000 A 
ATOM     19  C   UNL     1      -1.775  -1.186   0.000  0.00  0.00    +0.000 A 
ATOM     20  C   UNL     1      -1.104  -0.805   0.000  0.00  0.00    +0.000 A 
BRANCH  16  21
ATOM     21  O   UNL     1      -1.766   1.186   0.000  0.00  0.00    +0.000 OA
BRANCH  21  22
ATOM     22  C   UNL     1      -2.482   1.603   0.000  0.00  0.00    +0.000 C 
ATOM     23  C   UNL     1      -2.482   2.428   0.000  0.00  0.00    +0.000 C 
ENDBRANCH  21  22
ENDBRANCH  16  21
ENDBRANCH  14  15
ENDBRANCH   1  14
TORSDOF 6
