REMARK  Name = 
REMARK  3 active torsions:
REMARK  status: ('A' for Active; 'I' for Inactive)
REMARK    1  A    between atoms: N_6  and  C_7
REMARK    2  A    between atoms: C_12  and  N_13
REMARK    3  A    between atoms: C_19  and  C_20
REMARK                            x       y       z     vdW  Elec       q    Type
REMARK                         _______ _______ _______ _____ _____    ______ ____
ROOT
ATOM      1  N   UNL     1       0.155   1.557   0.000  0.00  0.00    +0.000 NA
ATOM      2  C   UNL     1       0.941   1.516   0.000  0.00  0.00    +0.000 C 
ATOM      3  N   UNL     1       1.255   0.793   0.000  0.00  0.00    +0.000 NA
ATOM      4  N   UNL     1       1.420   2.202   0.000  0.00  0.00    +0.000 NA
ATOM      5  C   UNL     1       2.204   2.187   0.000  0.00  0.00    +0.000 C 
ATOM      6  C   UNL     1       2.549   1.449   0.000  0.00  0.00    +0.000 C 
ATOM      7  C   UNL     1       2.052   0.737   0.000  0.00  0.00    +0.000 C 
ENDROOT
BRANCH   7   8
ATOM      8  C   UNL     1       2.349  -0.011   0.000  0.00  0.00    +0.000 A 
ATOM      9  S   UNL     1       1.786  -0.902   0.000  0.00  0.00    +0.000 S 
ATOM     10  C   UNL     1       3.136  -0.143   0.000  0.00  0.00    +0.000 A 
ATOM     11  C   UNL     1       3.810   0.528   0.000  0.00  0.00    +0.000 C 
ATOM     12  N   UNL     1       3.263  -0.909   0.000  0.00  0.00    +0.000 NA
ATOM     13  C   UNL     1       2.598  -1.416   0.000  0.00  0.00    +0.000 A 
ATOM     14  N   UNL     1       2.571  -2.202   0.000  0.00  0.00    +0.000 NA
ENDBRANCH   7   8
BRANCH   1  20
ATOM     15  C   UNL     1      -1.732  -0.042   0.000  0.00  0.00    +0.000 A 
ATOM     16  C   UNL     1      -1.909   0.755   0.000  0.00  0.00    +0.000 A 
ATOM     17  C   UNL     1      -1.265   1.289   0.000  0.00  0.00    +0.000 A 
ATOM     18  C   UNL     1      -0.907  -0.311   0.000  0.00  0.00    +0.000 A 
ATOM     19  C   UNL     1      -0.264   0.222   0.000  0.00  0.00    +0.000 A 
ATOM     20  C   UNL     1      -0.441   1.028   0.000  0.00  0.00    +0.000 A 
BRANCH  15  26
ATOM     21  C   UNL     1      -3.270  -0.269   0.000  0.00  0.00    +0.000 C 
ATOM     22  C   UNL     1      -3.810  -0.874   0.000  0.00  0.00    +0.000 C 
ATOM     23  O   UNL     1      -3.699  -1.739   0.000  0.00  0.00    +0.000 OA
ATOM     24  C   UNL     1      -2.846  -2.028   0.000  0.00  0.00    +0.000 C 
ATOM     25  C   UNL     1      -2.247  -1.475   0.000  0.00  0.00    +0.000 C 
ATOM     26  N   UNL     1      -2.397  -0.576   0.000  0.00  0.00    +0.000 N 
ENDBRANCH  15  26
ENDBRANCH   1  20
TORSDOF 3
