REMARK  Name = 
REMARK  3 active torsions:
REMARK  status: ('A' for Active; 'I' for Inactive)
REMARK    1  A    between atoms: C_5  and  N_6
REMARK    2  A    between atoms: N_6  and  C_7
REMARK    3  A    between atoms: C_7  and  C_8
REMARK                            x       y       z     vdW  Elec       q    Type
REMARK                         _______ _______ _______ _____ _____    ______ ____
ROOT
ATOM      1  C   UNL     1       6.706   5.830   0.000  0.00  0.00    +0.000 C 
ATOM      2  C   UNL     1       6.192   5.186   0.000  0.00  0.00    +0.000 A 
ATOM      3  C   UNL     1       6.493   4.418   0.000  0.00  0.00    +0.000 A 
ATOM      4  C   UNL     1       5.979   3.772   0.000  0.00  0.00    +0.000 A 
ATOM      5  C   UNL     1       6.280   3.005   0.000  0.00  0.00    +0.000 A 
ATOM      6  N   UNL     1       5.766   2.360   0.000  0.00  0.00    +0.000 NA
ATOM      7  C   UNL     1       4.950   2.482   0.000  0.00  0.00    +0.000 A 
ATOM      8  N   UNL     1       4.649   3.250   0.000  0.00  0.00    +0.000 NA
ATOM      9  C   UNL     1       5.163   3.895   0.000  0.00  0.00    +0.000 A 
ATOM     10  C   UNL     1       4.862   4.663   0.000  0.00  0.00    +0.000 A 
ATOM     11  C   UNL     1       5.376   5.308   0.000  0.00  0.00    +0.000 A 
ATOM     12  N   UNL     1       4.436   1.837   0.000  0.00  0.00    +0.000 N 
ATOM     13  C   UNL     1       4.794   1.094   0.000  0.00  0.00    +0.000 C 
ATOM     14  C   UNL     1       4.436   0.351   0.000  0.00  0.00    +0.000 C 
ATOM     15  S   UNL     1       3.631   0.167   0.000  0.00  0.00    +0.000 S 
ATOM     16  O   UNL     1       3.990  -0.576   0.000  0.00  0.00    +0.000 OA
ATOM     17  O   UNL     1       2.986  -0.347   0.000  0.00  0.00    +0.000 OA
ATOM     18  C   UNL     1       2.986   0.682   0.000  0.00  0.00    +0.000 A 
ATOM     19  C   UNL     1       2.272   0.269   0.000  0.00  0.00    +0.000 A 
ATOM     20  C   UNL     1       1.558   0.682   0.000  0.00  0.00    +0.000 A 
ATOM     21  C   UNL     1       1.558   1.507   0.000  0.00  0.00    +0.000 A 
ATOM     22  C   UNL     1       2.272   1.919   0.000  0.00  0.00    +0.000 A 
ATOM     23  C   UNL     1       2.986   1.507   0.000  0.00  0.00    +0.000 A 
ATOM     24  C   UNL     1       3.631   2.021   0.000  0.00  0.00    +0.000 C 
ENDROOT
BRANCH   5  25
ATOM     25  N   UNL     1       7.096   2.881   0.000  0.00  0.00    +0.000 NA
BRANCH  25  26
ATOM     26  C   UNL     1       7.611   3.527   0.000  0.00  0.00    +0.000 C 
BRANCH  26  27
ATOM     27  C   UNL     1       8.426   3.404   0.000  0.00  0.00    +0.000 C 
ATOM     28  N   UNL     1       8.303   2.588   0.000  0.00  0.00    +0.000 NA
ATOM     29  C   UNL     1       8.549   4.219   0.000  0.00  0.00    +0.000 C 
ATOM     30  O   UNL     1       9.365   4.096   0.000  0.00  0.00    +0.000 OA
ATOM     31  C   UNL     1       9.242   3.281   0.000  0.00  0.00    +0.000 C 
ENDBRANCH  26  27
ENDBRANCH  25  26
ENDBRANCH   5  25
TORSDOF 3
