REMARK  Name = 
REMARK  4 active torsions:
REMARK  status: ('A' for Active; 'I' for Inactive)
REMARK    1  A    between atoms: C_5  and  C_25
REMARK    2  A    between atoms: C_11  and  C_15
REMARK    3  A    between atoms: C_24  and  O_33
REMARK    4  A    between atoms: N_26  and  O_33
REMARK                            x       y       z     vdW  Elec       q    Type
REMARK                         _______ _______ _______ _____ _____    ______ ____
ROOT
ATOM      1  C   UNL     1      10.154   2.178   0.000  0.00  0.00    +0.000 A 
ATOM      2  C   UNL     1       9.899   1.393   0.000  0.00  0.00    +0.000 A 
ATOM      3  C   UNL     1       9.602   2.791   0.000  0.00  0.00    +0.000 A 
ATOM      4  C   UNL     1       9.092   1.222   0.000  0.00  0.00    +0.000 A 
ATOM      5  C   UNL     1       5.804   1.663   0.000  0.00  0.00    +0.000 A 
ATOM      6  C   UNL     1       6.769   3.546   0.000  0.00  0.00    +0.000 C 
ATOM      7  C   UNL     1       3.935   2.791   0.000  0.00  0.00    +0.000 C 
ATOM      8  C   UNL     1       8.795   2.619   0.000  0.00  0.00    +0.000 A 
ATOM      9  C   UNL     1       8.243   3.232   0.000  0.00  0.00    +0.000 A 
ATOM     10  C   UNL     1       7.436   3.061   0.000  0.00  0.00    +0.000 A 
ATOM     11  C   UNL     1       4.742   2.619   0.000  0.00  0.00    +0.000 A 
ATOM     12  C   UNL     1       4.997   1.835   0.000  0.00  0.00    +0.000 A 
ATOM     13  C   UNL     1       8.540   1.835   0.000  0.00  0.00    +0.000 A 
ATOM     14  C   UNL     1       6.356   2.276   0.000  0.00  0.00    +0.000 A 
ATOM     15  C   UNL     1       7.181   2.276   0.000  0.00  0.00    +0.000 A 
ATOM     16  C   UNL     1       5.294   3.232   0.000  0.00  0.00    +0.000 A 
ATOM     17  C   UNL     1       3.638   1.393   0.000  0.00  0.00    +0.000 C 
ATOM     18  C   UNL     1       4.445   1.222   0.000  0.00  0.00    +0.000 C 
ATOM     19  N   UNL     1       7.733   1.663   0.000  0.00  0.00    +0.000 NA
ATOM     20  N   UNL     1       6.101   3.061   0.000  0.00  0.00    +0.000 N 
ATOM     21  O   UNL     1       5.039   4.017   0.000  0.00  0.00    +0.000 OA
ATOM     22  O   UNL     1       3.086   0.780   0.000  0.00  0.00    +0.000 OA
ATOM     23  O   UNL     1       5.145   0.784   0.000  0.00  0.00    +0.000 OA
ATOM     24  O   UNL     1       3.383   2.178   0.000  0.00  0.00    +0.000 OA
ENDROOT
BRANCH  18  26
ATOM     25  C   UNL     1       3.319   0.342   0.000  0.00  0.00    +0.000 C 
ATOM     26  C   UNL     1       4.136   0.457   0.000  0.00  0.00    +0.000 C 
ENDBRANCH  18  26
BRANCH   9  27
ATOM     27  C   UNL     1       8.498   4.017   0.000  0.00  0.00    +0.000 C 
ATOM     28  N   UNL     1       9.305   4.188   0.000  0.00  0.00    +0.000 NA
BRANCH  28  29
ATOM     29  O   UNL     1       9.560   4.973   0.000  0.00  0.00    +0.000 OA
BRANCH  29  33
ATOM     30  C   UNL     1       8.456   6.199   0.000  0.00  0.00    +0.000 C 
ATOM     31  C   UNL     1       9.621   6.138   0.000  0.00  0.00    +0.000 C 
ATOM     32  C   UNL     1       8.395   5.034   0.000  0.00  0.00    +0.000 C 
ATOM     33  C   UNL     1       9.008   5.586   0.000  0.00  0.00    +0.000 C 
ENDBRANCH  29  33
ENDBRANCH  28  29
ENDBRANCH   9  27
TORSDOF 4
