REMARK  Name = 
REMARK  13 active torsions:
REMARK  status: ('A' for Active; 'I' for Inactive)
REMARK    1  A    between atoms: C_6  and  O_69
REMARK    2  A    between atoms: C_12  and  O_66
REMARK    3  A    between atoms: C_16  and  C_79
REMARK    4  A    between atoms: C_21  and  N_77
REMARK    5  A    between atoms: C_24  and  C_78
REMARK    6  A    between atoms: C_33  and  O_69
REMARK    7  A    between atoms: C_38  and  C_74
REMARK    8  A    between atoms: C_60  and  O_66
REMARK    9  A    between atoms: C_78  and  C_90
REMARK   10  A    between atoms: C_82  and  C_83
REMARK   11  A    between atoms: C_83  and  N_85
REMARK   12  A    between atoms: C_83  and  C_86
REMARK   13  A    between atoms: C_86  and  C_87
REMARK                            x       y       z     vdW  Elec       q    Type
REMARK                         _______ _______ _______ _____ _____    ______ ____
ROOT
ATOM      1  N   UNK A   1      -0.697  -0.498   0.000  0.00  0.00    +0.000 NA
ATOM      2  N   UNK A   1       1.438   3.255   0.000  0.00  0.00    +0.000 NA
ATOM      3  N   UNK A   2      -1.393  -2.558   0.000  0.00  0.00    +0.000 NA
ATOM      4  N   UNK A   3      -1.354  -4.183   0.000  0.00  0.00    +0.000 NA
ATOM      5  C   UNK A   1      -0.012   4.918   0.000  0.00  0.00    +0.000 A 
ATOM      6  C   UNK A   1      -0.737   4.508   0.000  0.00  0.00    +0.000 A 
ATOM      7  C   UNK A   1       0.725   4.492   0.000  0.00  0.00    +0.000 A 
ATOM      8  C   UNK A   1       2.183   3.676   0.000  0.00  0.00    +0.000 C 
ATOM      9  C   UNK A   1       2.159   4.510   0.000  0.00  0.00    +0.000 C 
ATOM     10  C   UNK A   1       1.440   4.915   0.000  0.00  0.00    +0.000 C 
ATOM     11  C   UNK A   1       0.725   3.677   0.000  0.00  0.00    +0.000 A 
ATOM     12  C   UNK A   1       1.464   2.419   0.000  0.00  0.00    +0.000 C 
ATOM     13  C   UNK A   1       0.008   3.243   0.000  0.00  0.00    +0.000 A 
ATOM     14  C   UNK A   1      -0.714   3.673   0.000  0.00  0.00    +0.000 A 
ATOM     15  O   UNK A   1      -1.457   3.245   0.000  0.00  0.00    +0.000 OA
ATOM     16  N   UNK A   2       0.743   1.168   0.000  0.00  0.00    +0.000 NA
ATOM     17  C   UNK A   1       0.724   2.007   0.000  0.00  0.00    +0.000 C 
ATOM     18  C   UNK A   2       0.021   0.754   0.000  0.00  0.00    +0.000 C 
ATOM     19  C   UNK A   2       0.022  -0.085   0.000  0.00  0.00    +0.000 C 
ATOM     20  O   UNK A   2      -2.849   0.718   0.000  0.00  0.00    +0.000 OA
ATOM     21  C   UNK A   2      -2.807  -2.559   0.000  0.00  0.00    +0.000 C 
ATOM     22  C   UNK A   1      -1.388  -1.740   0.000  0.00  0.00    +0.000 C 
ATOM     23  C   UNK A   1      -0.696  -1.315   0.000  0.00  0.00    +0.000 C 
ATOM     24  C   UNK A   2      -2.068  -2.972   0.000  0.00  0.00    +0.000 C 
ATOM     25  C   UNK A   2      -2.066  -3.796   0.000  0.00  0.00    +0.000 C 
ATOM     26  C   UNK A   1      -0.651  -3.755   0.000  0.00  0.00    +0.000 C 
ATOM     27  C   UNK A   1       0.045  -2.546   0.000  0.00  0.00    +0.000 A 
ATOM     28  C   UNK A   1       0.745  -2.938   0.000  0.00  0.00    +0.000 A 
ATOM     29  C   UNK A   1       1.441  -2.502   0.000  0.00  0.00    +0.000 A 
ATOM     30  C   UNK A   1       1.418  -1.706   0.000  0.00  0.00    +0.000 A 
ATOM     31  C   UNK A   1       0.705  -1.316   0.000  0.00  0.00    +0.000 A 
ATOM     32  C   UNK A   1       0.006  -1.728   0.000  0.00  0.00    +0.000 A 
ATOM     33  C   UNK A   1       0.769  -3.753   0.000  0.00  0.00    +0.000 A 
ATOM     34  C   UNK A   1       0.068  -4.172   0.000  0.00  0.00    +0.000 A 
ATOM     35  C   UNK A   1       0.065  -4.967   0.000  0.00  0.00    +0.000 A 
ATOM     36  C   UNK A   1       0.781  -5.383   0.000  0.00  0.00    +0.000 A 
ATOM     37  C   UNK A   1       1.482  -4.944   0.000  0.00  0.00    +0.000 A 
ATOM     38  C   UNK A   1       1.463  -4.141   0.000  0.00  0.00    +0.000 A 
ATOM     39  C   UNK A   2      -2.113  -1.334   0.000  0.00  0.00    +0.000 A 
ATOM     40  C   UNK A   2      -2.126  -0.522   0.000  0.00  0.00    +0.000 A 
ATOM     41  C   UNK A   2      -2.830  -0.126   0.000  0.00  0.00    +0.000 A 
ATOM     42  C   UNK A   2      -3.547  -0.528   0.000  0.00  0.00    +0.000 A 
ATOM     43  C   UNK A   2      -3.526  -1.353   0.000  0.00  0.00    +0.000 A 
ATOM     44  C   UNK A   2      -2.811  -1.765   0.000  0.00  0.00    +0.000 A 
ATOM     45  C   UNK A   2      -0.716   1.137   0.000  0.00  0.00    +0.000 A 
ATOM     46  C   UNK A   2      -0.713   1.986   0.000  0.00  0.00    +0.000 A 
ATOM     47  C   UNK A   2      -1.430   2.394   0.000  0.00  0.00    +0.000 A 
ATOM     48  C   UNK A   2      -2.150   1.965   0.000  0.00  0.00    +0.000 A 
ATOM     49  C   UNK A   2      -2.125   1.138   0.000  0.00  0.00    +0.000 A 
ATOM     50  C   UNK A   2      -1.412   0.738   0.000  0.00  0.00    +0.000 A 
ATOM     51  O   UNK A   1       2.900   3.255   0.000  0.00  0.00    +0.000 OA
ATOM     52  O   UNK A   1       0.005   2.421   0.000  0.00  0.00    +0.000 OA
ATOM     53  O   UNK A   1       1.418   5.762   0.000  0.00  0.00    +0.000 OA
ATOM     54  O   UNK A   1      -1.413  -0.900   0.000  0.00  0.00    +0.000 OA
ATOM     55  O   UNK A   2       0.741  -0.498   0.000  0.00  0.00    +0.000 OA
ATOM     56  O   UNK A   1       2.139  -2.917   0.000  0.00  0.00    +0.000 OA
ATOM     57  O   UNK A   1       2.178  -3.731   0.000  0.00  0.00    +0.000 OA
ATOM     58  O   UNK A   1       0.780  -6.170   0.000  0.00  0.00    +0.000 OA
ATOM     59  O   UNK A   2      -2.767  -4.183   0.000  0.00  0.00    +0.000 OA
ATOM     60 CL   UNK A   2      -3.547   0.287   0.000  0.00  0.00    +0.000 Cl
ATOM     61 CL   UNK A   1      -1.477   4.918   0.000  0.00  0.00    +0.000 Cl
ENDROOT
BRANCH  26  62
ATOM     62  C   UNK A   1      -0.652  -5.497   0.000  0.00  0.00    +0.000 C 
ATOM     63  O   UNK A   3      -1.354  -5.910   0.000  0.00  0.00    +0.000 OA
ATOM     64  O   UNK A   3       0.044  -5.910   0.000  0.00  0.00    +0.000 OA
ENDBRANCH  26  62
BRANCH   9  65
ATOM     65  N   UNK A   1       2.880   4.918   0.000  0.00  0.00    +0.000 NA
ATOM     66  C   UNK A   1       3.596   4.511   0.000  0.00  0.00    +0.000 C 
ATOM     67  O   UNK A   1       3.596   3.692   0.000  0.00  0.00    +0.000 OA
BRANCH  66  68
ATOM     68  C   UNK A   1       4.312   4.918   0.000  0.00  0.00    +0.000 C 
BRANCH  68  69
ATOM     69  N   UNK A   1       4.312   5.762   0.000  0.00  0.00    +0.000 NA
ATOM     70  C   ACE A   0       3.596   6.170   0.000  0.00  0.00    +0.000 C 
ENDBRANCH  68  69
BRANCH  68  71
ATOM     71  C   UNK A   1       5.034   4.511   0.000  0.00  0.00    +0.000 C 
BRANCH  71  72
ATOM     72  C   UNK A   1       5.750   4.918   0.000  0.00  0.00    +0.000 C 
ATOM     73  C   UNK A   1       6.466   4.531   0.000  0.00  0.00    +0.000 C 
ATOM     74  C   UNK A   1       5.750   5.762   0.000  0.00  0.00    +0.000 C 
ENDBRANCH  71  72
ENDBRANCH  68  71
ENDBRANCH  66  68
ENDBRANCH   9  65
BRANCH  48  75
ATOM     75  O   UNK A   2      -3.400   2.608   0.000  0.00  0.00    +0.000 OA
BRANCH  75  77
ATOM     76  O   UNK A   2      -4.141   1.352   0.000  0.00  0.00    +0.000 OA
ATOM     77  C   UNK A   2      -4.141   2.200   0.000  0.00  0.00    +0.000 C 
ATOM     78  C   UNK A   2      -4.857   2.608   0.000  0.00  0.00    +0.000 C 
ATOM     79  C   UNK A   2      -5.599   2.197   0.000  0.00  0.00    +0.000 C 
ATOM     80  C   UNK A   2      -5.601   1.348   0.000  0.00  0.00    +0.000 C 
ATOM     81  C   UNK A   2      -4.855   0.941   0.000  0.00  0.00    +0.000 C 
ATOM     82  O   UNK A   2      -4.857   3.442   0.000  0.00  0.00    +0.000 OA
ATOM     83  O   UNK A   2      -6.319   0.944   0.000  0.00  0.00    +0.000 OA
ATOM     84  O   UNK A   2      -6.319   2.608   0.000  0.00  0.00    +0.000 OA
BRANCH  81  85
ATOM     85  C   UNK A   2      -4.857   0.101   0.000  0.00  0.00    +0.000 C 
ATOM     86  O   UNK A   2      -5.603  -0.331   0.000  0.00  0.00    +0.000 OA
ENDBRANCH  81  85
ENDBRANCH  75  77
ENDBRANCH  48  75
BRANCH  21  87
ATOM     87  O   UNK A   2      -3.528  -2.971   0.000  0.00  0.00    +0.000 OA
BRANCH  87  88
ATOM     88  C   UNK A   2      -4.249  -2.558   0.000  0.00  0.00    +0.000 C 
ATOM     89  O   UNK A   2      -4.249  -1.724   0.000  0.00  0.00    +0.000 OA
ATOM     90  C   UNK A   2      -4.965  -1.333   0.000  0.00  0.00    +0.000 C 
ATOM     91  C   UNK A   2      -5.680  -1.743   0.000  0.00  0.00    +0.000 C 
ATOM     92  C   UNK A   2      -5.680  -2.562   0.000  0.00  0.00    +0.000 C 
ATOM     93  C   UNK A   2      -4.945  -2.972   0.000  0.00  0.00    +0.000 C 
ATOM     94  C   UNK A   2      -4.965  -0.498   0.000  0.00  0.00    +0.000 C 
ATOM     95  N   UNK A   2      -5.892  -3.363   0.000  0.00  0.00    +0.000 NA
ATOM     96  C   UNK A   2      -6.466  -2.770   0.000  0.00  0.00    +0.000 C 
ATOM     97  O   UNK A   2      -6.398  -1.327   0.000  0.00  0.00    +0.000 OA
ENDBRANCH  87  88
ENDBRANCH  21  87
BRANCH  12  98
ATOM     98  C   UNK A   1       2.738   1.661   0.000  0.00  0.00    +0.000 C 
BRANCH  98  99
ATOM     99  C   UNK A   1       3.454   2.092   0.000  0.00  0.00    +0.000 C 
ATOM    100  N   UNK A   1       4.165   1.680   0.000  0.00  0.00    +0.000 NA
ATOM    101  O   UNK A   1       3.454   2.917   0.000  0.00  0.00    +0.000 OA
ENDBRANCH  98  99
ENDBRANCH  12  98
TORSDOF 13
