REMARK  Name = 
REMARK  12 active torsions:
REMARK  status: ('A' for Active; 'I' for Inactive)
REMARK    1  A    between atoms: C_1  and  C_5
REMARK    2  A    between atoms: C_3  and  C_6
REMARK    3  A    between atoms: C_5  and  C_19
REMARK    4  A    between atoms: C_7  and  C_13
REMARK    5  A    between atoms: C_8  and  C_9
REMARK    6  A    between atoms: C_8  and  C_13
REMARK    7  A    between atoms: C_9  and  C_10
REMARK    8  A    between atoms: C_10  and  C_11
REMARK    9  A    between atoms: C_17  and  C_22
REMARK   10  A    between atoms: C_20  and  C_23
REMARK   11  A    between atoms: C_22  and  C_24
REMARK   12  A    between atoms: C_23  and  C_24
REMARK                            x       y       z     vdW  Elec       q    Type
REMARK                         _______ _______ _______ _____ _____    ______ ____
ROOT
ATOM      1  C   UNL     1       6.312 -19.534   0.000  0.00  0.00    +0.000 C 
ATOM      2  C   UNL     1       5.042 -19.945   0.000  0.00  0.00    +0.000 C 
ATOM      3  C   UNL     1       6.311 -20.359   0.000  0.00  0.00    +0.000 C 
ATOM      4  C   UNL     1       5.527 -20.613   0.000  0.00  0.00    +0.000 C 
ATOM      5  C   UNL     1       5.527 -19.278   0.000  0.00  0.00    +0.000 C 
ATOM      6  O   UNL     1       5.314 -18.481   0.000  0.00  0.00    +0.000 OA
ENDROOT
BRANCH   3   7
ATOM      7  C   UNL     1       7.026 -20.771   0.000  0.00  0.00    +0.000 C 
ATOM      8  C   UNL     1       7.740 -20.358   0.000  0.00  0.00    +0.000 C 
BRANCH   8   9
ATOM      9  C   UNL     1       8.455 -20.770   0.000  0.00  0.00    +0.000 C 
ATOM     10  O   UNL     1       8.455 -21.595   0.000  0.00  0.00    +0.000 OA
BRANCH   9  11
ATOM     11  C   UNL     1       9.169 -20.358   0.000  0.00  0.00    +0.000 C 
BRANCH  11  12
ATOM     12  C   UNL     1       9.884 -20.770   0.000  0.00  0.00    +0.000 C 
BRANCH  12  13
ATOM     13  C   UNL     1      10.598 -20.357   0.000  0.00  0.00    +0.000 C 
BRANCH  13  14
ATOM     14  C   UNL     1      11.313 -20.769   0.000  0.00  0.00    +0.000 C 
ATOM     15  C   UNL     1      12.027 -20.356   0.000  0.00  0.00    +0.000 C 
ENDBRANCH  13  14
ENDBRANCH  12  13
ENDBRANCH  11  12
ENDBRANCH   9  11
ENDBRANCH   8   9
ENDBRANCH   3   7
BRANCH   1  16
ATOM     16  C   UNL     1       7.025 -19.119   0.000  0.00  0.00    +0.000 C 
BRANCH  16  17
ATOM     17  C   UNL     1       7.734 -19.544   0.000  0.00  0.00    +0.000 C 
ATOM     18  C   UNL     1       8.470 -19.148   0.000  0.00  0.00    +0.000 C 
BRANCH  18  19
ATOM     19  C   UNL     1       8.470 -18.326   0.000  0.00  0.00    +0.000 C 
BRANCH  19  20
ATOM     20  C   UNL     1       9.207 -17.930   0.000  0.00  0.00    +0.000 C 
BRANCH  20  21
ATOM     21  C   UNL     1       9.207 -17.080   0.000  0.00  0.00    +0.000 C 
BRANCH  21  22
ATOM     22  C   UNL     1       9.915 -16.683   0.000  0.00  0.00    +0.000 C 
ATOM     23  O   UNL     1      10.623 -17.108   0.000  0.00  0.00    +0.000 OA
ATOM     24  O   UNL     1       9.926 -15.871   0.000  0.00  0.00    +0.000 OA
ENDBRANCH  21  22
ENDBRANCH  20  21
ENDBRANCH  19  20
ENDBRANCH  18  19
ENDBRANCH  16  17
ENDBRANCH   1  16
TORSDOF 12
