REMARK  Name = 
REMARK  0 active torsions:
REMARK  status: ('A' for Active; 'I' for Inactive)
REMARK                            x       y       z     vdW  Elec       q    Type
REMARK                         _______ _______ _______ _____ _____    ______ ____
ROOT
ATOM      1  O   UNL     1      -0.164   1.664   0.000  0.00  0.00    +0.000 OA
ATOM      2  N   UNL     1      -0.164  -0.811   0.000  0.00  0.00    +0.000 N 
ATOM      3  N   UNL     1      -0.878   0.427   0.000  0.00  0.00    +0.000 NA
ATOM      4  N   UNL     1      -1.593  -0.811   0.000  0.00  0.00    +0.000 N 
ATOM      5  C   UNL     1       0.551  -0.398   0.000  0.00  0.00    +0.000 A 
ATOM      6  C   UNL     1       0.551   0.427   0.000  0.00  0.00    +0.000 A 
ATOM      7  C   UNL     1       1.288  -0.839   0.000  0.00  0.00    +0.000 A 
ATOM      8  C   UNL     1       1.288   0.868   0.000  0.00  0.00    +0.000 A 
ATOM      9  C   UNL     1       2.036  -0.415   0.000  0.00  0.00    +0.000 A 
ATOM     10  C   UNL     1      -0.164   0.839   0.000  0.00  0.00    +0.000 A 
ATOM     11  C   UNL     1       2.036   0.444   0.000  0.00  0.00    +0.000 A 
ATOM     12  C   UNL     1       1.279  -1.664   0.000  0.00  0.00    +0.000 C 
ATOM     13  C   UNL     1      -0.878  -0.398   0.000  0.00  0.00    +0.000 A 
ATOM     14  H   UNL     1      -0.164  -1.322   0.000  0.00  0.00    +0.000 HD
ATOM     15  H   UNL     1      -1.593  -1.322   0.000  0.00  0.00    +0.000 HD
ATOM     16  H   UNL     1      -2.036  -0.555   0.000  0.00  0.00    +0.000 HD
ENDROOT
TORSDOF 0
