REMARK  Name = 
REMARK  2 active torsions:
REMARK  status: ('A' for Active; 'I' for Inactive)
REMARK    1  A    between atoms: C_4  and  C_15
REMARK    2  A    between atoms: C_10  and  N_16
REMARK                            x       y       z     vdW  Elec       q    Type
REMARK                         _______ _______ _______ _____ _____    ______ ____
ROOT
ATOM      1  C   UNL     1       0.714   0.619   0.000  0.00  0.00    +0.000 C 
ATOM      2  C   UNL     1      -0.714   0.619   0.000  0.00  0.00    +0.000 C 
ATOM      3  C   UNL     1       0.714  -0.206   0.000  0.00  0.00    +0.000 C 
ATOM      4  C   UNL     1       2.143   0.619   0.000  0.00  0.00    +0.000 C 
ATOM      5  C   UNL     1       0.000   1.031   0.000  0.00  0.00    +0.000 C 
ATOM      6  C   UNL     1       1.429   1.031   0.000  0.00  0.00    +0.000 C 
ATOM      7  C   UNL     1       2.143  -0.206   0.000  0.00  0.00    +0.000 C 
ATOM      8  C   UNL     1      -1.429   1.031   0.000  0.00  0.00    +0.000 C 
ATOM      9  C   UNL     1      -0.714  -0.206   0.000  0.00  0.00    +0.000 C 
ATOM     10  C   UNL     1       1.429  -0.619   0.000  0.00  0.00    +0.000 C 
ATOM     11  C   UNL     1      -2.143   0.619   0.000  0.00  0.00    +0.000 A 
ATOM     12  C   UNL     1       0.000  -0.619   0.000  0.00  0.00    +0.000 C 
ATOM     13  C   UNL     1      -2.143  -0.206   0.000  0.00  0.00    +0.000 A 
ATOM     14  C   UNL     1      -1.429  -0.619   0.000  0.00  0.00    +0.000 C 
ATOM     15  O   UNL     1       1.429   1.856   0.000  0.00  0.00    +0.000 OA
ATOM     16  O   UNL     1      -1.429   1.856   0.000  0.00  0.00    +0.000 OA
ATOM     17  C   UNL     1      -2.858   1.031   0.000  0.00  0.00    +0.000 A 
ATOM     18  O   UNL     1       0.714   1.444   0.000  0.00  0.00    +0.000 OA
ATOM     19  O   UNL     1       0.000   1.856   0.000  0.00  0.00    +0.000 OA
ATOM     20  O   UNL     1       2.858  -0.619   0.000  0.00  0.00    +0.000 OA
ATOM     21  O   UNL     1       0.000  -1.444   0.000  0.00  0.00    +0.000 OA
ATOM     22  C   UNL     1      -2.858  -0.619   0.000  0.00  0.00    +0.000 A 
ATOM     23  C   UNL     1      -1.429  -1.444   0.000  0.00  0.00    +0.000 C 
ATOM     24  O   UNL     1      -2.858   1.856   0.000  0.00  0.00    +0.000 OA
ATOM     25  C   UNL     1      -3.572  -0.206   0.000  0.00  0.00    +0.000 A 
ATOM     26  C   UNL     1      -3.572   0.619   0.000  0.00  0.00    +0.000 A 
ENDROOT
BRANCH   4  27
ATOM     27  C   UNL     1       2.858   1.031   0.000  0.00  0.00    +0.000 C 
ATOM     28  N   UNL     1       3.572   0.619   0.000  0.00  0.00    +0.000 NA
ATOM     29  O   UNL     1       2.858   1.856   0.000  0.00  0.00    +0.000 OA
ENDBRANCH   4  27
BRANCH  10  30
ATOM     30  N   UNL     1       1.429  -1.444   0.000  0.00  0.00    +0.000 NA
ATOM     31  C   UNL     1       2.143  -1.856   0.000  0.00  0.00    +0.000 C 
ATOM     32  C   UNL     1       0.714  -1.856   0.000  0.00  0.00    +0.000 C 
ENDBRANCH  10  30
TORSDOF 2
