REMARK  Name = 
REMARK  8 active torsions:
REMARK  status: ('A' for Active; 'I' for Inactive)
REMARK    1  A    between atoms: C_2  and  C_14
REMARK    2  A    between atoms: C_4  and  N_19
REMARK    3  A    between atoms: C_5  and  N_7
REMARK    4  A    between atoms: N_7  and  C_8
REMARK    5  A    between atoms: C_14  and  O_15
REMARK    6  A    between atoms: O_15  and  C_17
REMARK    7  A    between atoms: N_19  and  C_20
REMARK    8  A    between atoms: C_20  and  C_21
REMARK                            x       y       z     vdW  Elec       q    Type
REMARK                         _______ _______ _______ _____ _____    ______ ____
ROOT
ATOM      1  C   UNL     1       0.714   0.412   0.000  0.00  0.00    +0.000 A 
ATOM      2  C   UNL     1       0.714  -0.412   0.000  0.00  0.00    +0.000 A 
ATOM      3  C   UNL     1       0.000  -0.825   0.000  0.00  0.00    +0.000 A 
ATOM      4  C   UNL     1      -0.715  -0.412   0.000  0.00  0.00    +0.000 A 
ATOM      5  C   UNL     1      -0.715   0.412   0.000  0.00  0.00    +0.000 A 
ATOM      6  N   UNL     1       0.000   0.825   0.000  0.00  0.00    +0.000 NA
ENDROOT
BRANCH   2   7
ATOM      7  C   UNL     1       1.429  -0.825   0.000  0.00  0.00    +0.000 C 
ATOM      8  O   UNL     1       1.429  -1.650   0.000  0.00  0.00    +0.000 OA
BRANCH   7   9
ATOM      9  O   UNL     1       2.143  -0.412   0.000  0.00  0.00    +0.000 OA
BRANCH   9  10
ATOM     10  C   UNL     1       2.858  -0.825   0.000  0.00  0.00    +0.000 C 
ATOM     11  C   UNL     1       3.572  -0.412   0.000  0.00  0.00    +0.000 C 
ENDBRANCH   9  10
ENDBRANCH   7   9
ENDBRANCH   2   7
BRANCH   5  12
ATOM     12  N   UNL     1      -1.429   0.825   0.000  0.00  0.00    +0.000 NA
BRANCH  12  13
ATOM     13  C   UNL     1      -1.429   1.650   0.000  0.00  0.00    +0.000 C 
ATOM     14  C   UNL     1      -2.143   2.888   0.000  0.00  0.00    +0.000 C 
ATOM     15  C   UNL     1      -2.143   2.062   0.000  0.00  0.00    +0.000 C 
ATOM     16  C   UNL     1      -0.715   2.062   0.000  0.00  0.00    +0.000 C 
ATOM     17  C   UNL     1      -0.715   2.888   0.000  0.00  0.00    +0.000 C 
ATOM     18  C   UNL     1      -1.429   3.300   0.000  0.00  0.00    +0.000 C 
ENDBRANCH  12  13
ENDBRANCH   5  12
BRANCH   4  19
ATOM     19  N   UNL     1      -1.429  -0.825   0.000  0.00  0.00    +0.000 NA
BRANCH  19  20
ATOM     20  C   UNL     1      -1.429  -1.650   0.000  0.00  0.00    +0.000 C 
BRANCH  20  21
ATOM     21  C   UNL     1      -2.143  -2.062   0.000  0.00  0.00    +0.000 A 
ATOM     22  C   UNL     1      -2.143  -2.887   0.000  0.00  0.00    +0.000 A 
ATOM     23  C   UNL     1      -2.858  -3.300   0.000  0.00  0.00    +0.000 A 
ATOM     24  C   UNL     1      -3.572  -2.887   0.000  0.00  0.00    +0.000 A 
ATOM     25  C   UNL     1      -3.572  -2.062   0.000  0.00  0.00    +0.000 A 
ATOM     26  C   UNL     1      -2.858  -1.650   0.000  0.00  0.00    +0.000 A 
ENDBRANCH  20  21
ENDBRANCH  19  20
ENDBRANCH   4  19
TORSDOF 8
