REMARK  Name = 
REMARK  6 active torsions:
REMARK  status: ('A' for Active; 'I' for Inactive)
REMARK    1  A    between atoms: C_6  and  C_8
REMARK    2  A    between atoms: C_8  and  C_9
REMARK    3  A    between atoms: C_11  and  C_16
REMARK    4  A    between atoms: C_19  and  O_28
REMARK    5  A    between atoms: C_20  and  O_22
REMARK    6  A    between atoms: O_22  and  C_23
REMARK                            x       y       z     vdW  Elec       q    Type
REMARK                         _______ _______ _______ _____ _____    ______ ____
ROOT
ATOM      1  C   UNL     1      -0.821   2.001   0.000  0.00  0.00    +0.000 C 
ATOM      2  C   UNL     1      -0.107   2.413   0.000  0.00  0.00    +0.000 C 
ATOM      3  C   UNL     1       0.608   2.001   0.000  0.00  0.00    +0.000 C 
ATOM      4  C   UNL     1       0.608   1.176   0.000  0.00  0.00    +0.000 C 
ATOM      5  N   UNL     1      -0.107   0.763   0.000  0.00  0.00    +0.000 NA
ATOM      6  C   UNL     1      -0.821   1.176   0.000  0.00  0.00    +0.000 C 
ATOM      7  O   UNL     1      -1.536   0.763   0.000  0.00  0.00    +0.000 OA
ENDROOT
BRANCH   3   8
ATOM      8  C   UNL     1       1.322   2.413   0.000  0.00  0.00    +0.000 A 
ATOM      9  C   UNL     1       1.322   3.238   0.000  0.00  0.00    +0.000 A 
ATOM     10  C   UNL     1       2.037   3.651   0.000  0.00  0.00    +0.000 A 
ATOM     11  C   UNL     1       2.751   3.238   0.000  0.00  0.00    +0.000 A 
ATOM     12  C   UNL     1       2.751   2.413   0.000  0.00  0.00    +0.000 A 
ATOM     13  C   UNL     1       2.037   2.001   0.000  0.00  0.00    +0.000 A 
BRANCH  11  14
ATOM     14  O   UNL     1       3.466   3.651   0.000  0.00  0.00    +0.000 OA
ATOM     15  C   UNL     1       4.180   3.238   0.000  0.00  0.00    +0.000 C 
ENDBRANCH  11  14
BRANCH  12  16
ATOM     16  O   UNL     1       3.466   2.001   0.000  0.00  0.00    +0.000 OA
BRANCH  16  17
ATOM     17  C   UNL     1       3.466   1.176   0.000  0.00  0.00    +0.000 C 
ATOM     18  C   UNL     1       4.133   0.691   0.000  0.00  0.00    +0.000 C 
ATOM     19  C   UNL     1       3.878  -0.094   0.000  0.00  0.00    +0.000 C 
ATOM     20  C   UNL     1       3.053  -0.094   0.000  0.00  0.00    +0.000 C 
ATOM     21  C   UNL     1       2.798   0.691   0.000  0.00  0.00    +0.000 C 
ENDBRANCH  16  17
ENDBRANCH  12  16
ENDBRANCH   3   8
BRANCH   1  22
ATOM     22  C   UNL     1      -1.536   2.413   0.000  0.00  0.00    +0.000 C 
BRANCH  22  28
ATOM     23  C   UNL     1      -2.965  -0.062   0.000  0.00  0.00    +0.000 C 
ATOM     24  C   UNL     1      -2.965   0.763   0.000  0.00  0.00    +0.000 A 
ATOM     25  C   UNL     1      -3.679   1.176   0.000  0.00  0.00    +0.000 A 
ATOM     26  C   UNL     1      -3.679   2.001   0.000  0.00  0.00    +0.000 A 
ATOM     27  C   UNL     1      -2.965   2.413   0.000  0.00  0.00    +0.000 A 
ATOM     28  C   UNL     1      -2.250   2.001   0.000  0.00  0.00    +0.000 A 
ATOM     29  C   UNL     1      -2.250   1.176   0.000  0.00  0.00    +0.000 A 
ENDBRANCH  22  28
ENDBRANCH   1  22
TORSDOF 6
