REMARK  Name = 
REMARK  6 active torsions:
REMARK  status: ('A' for Active; 'I' for Inactive)
REMARK    1  A    between atoms: N_7  and  C_8
REMARK    2  A    between atoms: C_8  and  C_9
REMARK    3  A    between atoms: C_14  and  C_15
REMARK    4  A    between atoms: C_14  and  N_17
REMARK    5  A    between atoms: N_17  and  C_18
REMARK    6  A    between atoms: C_18  and  C_19
REMARK                            x       y       z     vdW  Elec       q    Type
REMARK                         _______ _______ _______ _____ _____    ______ ____
ROOT
ATOM      1  C   UNL     1       0.495   0.032   0.000  0.00  0.00    +0.000 A 
ATOM      2  C   UNL     1       0.495  -0.793   0.000  0.00  0.00    +0.000 A 
ATOM      3  C   UNL     1      -0.220  -1.206   0.000  0.00  0.00    +0.000 A 
ATOM      4  O   UNL     1      -0.220  -2.031   0.000  0.00  0.00    +0.000 OA
ATOM      5  C   UNL     1      -0.934  -0.793   0.000  0.00  0.00    +0.000 A 
ATOM      6  C   UNL     1      -0.934   0.032   0.000  0.00  0.00    +0.000 A 
ATOM      7  N   UNL     1      -0.220   0.444   0.000  0.00  0.00    +0.000 N 
ATOM      8  I   UNL     1      -1.649  -1.206   0.000  0.00  0.00    +0.000 I 
ATOM      9  I   UNL     1       1.209  -1.206   0.000  0.00  0.00    +0.000 I 
ENDROOT
BRANCH   7  10
ATOM     10  C   UNL     1      -0.220   1.269   0.000  0.00  0.00    +0.000 C 
BRANCH  10  11
ATOM     11  C   UNL     1       0.495   1.682   0.000  0.00  0.00    +0.000 C 
ATOM     12  O   UNL     1       0.495   2.507   0.000  0.00  0.00    +0.000 OA
ATOM     13  O   UNL     1       1.209   1.269   0.000  0.00  0.00    +0.000 OA
ENDBRANCH  10  11
ENDBRANCH   7  10
TORSDOF 2
REMARK  Name = 
REMARK  6 active torsions:
REMARK  status: ('A' for Active; 'I' for Inactive)
REMARK    1  A    between atoms: N_7  and  C_8
REMARK    2  A    between atoms: C_8  and  C_9
REMARK    3  A    between atoms: C_14  and  C_15
REMARK    4  A    between atoms: C_14  and  N_17
REMARK    5  A    between atoms: N_17  and  C_18
REMARK    6  A    between atoms: C_18  and  C_19
REMARK                            x       y       z     vdW  Elec       q    Type
REMARK                         _______ _______ _______ _____ _____    ______ ____
ROOT
ATOM      1  N   UNL     1       5.238  -0.236   0.000  0.00  0.00    +0.000 NA
ENDROOT
BRANCH   1   2
ATOM      2  C   UNL     1       4.524   0.177   0.000  0.00  0.00    +0.000 C 
BRANCH   2   3
ATOM      3  C   UNL     1       3.809  -0.236   0.000  0.00  0.00    +0.000 C 
ATOM      4  O   UNL     1       3.095   0.177   0.000  0.00  0.00    +0.000 OA
ENDBRANCH   2   3
ENDBRANCH   1   2
BRANCH   1   5
ATOM      5  C   UNL     1       5.953   0.177   0.000  0.00  0.00    +0.000 C 
BRANCH   5   6
ATOM      6  C   UNL     1       6.667  -0.236   0.000  0.00  0.00    +0.000 C 
ATOM      7  O   UNL     1       7.382   0.177   0.000  0.00  0.00    +0.000 OA
ENDBRANCH   5   6
ENDBRANCH   1   5
TORSDOF 4
