REMARK  Name = 
REMARK  5 active torsions:
REMARK  status: ('A' for Active; 'I' for Inactive)
REMARK    1  A    between atoms: C_2  and  N_4
REMARK    2  A    between atoms: N_7  and  C_8
REMARK    3  A    between atoms: C_8  and  C_9
REMARK    4  A    between atoms: C_12  and  C_14
REMARK    5  A    between atoms: C_16  and  C_23
REMARK                            x       y       z     vdW  Elec       q    Type
REMARK                         _______ _______ _______ _____ _____    ______ ____
ROOT
ATOM      1  C   UNL     1       3.993   3.300   0.000  0.00  0.00    +0.000 A 
ATOM      2  C   UNL     1       3.993   2.475   0.000  0.00  0.00    +0.000 A 
ATOM      3  C   UNL     1       3.279   2.062   0.000  0.00  0.00    +0.000 A 
ATOM      4  C   UNL     1       2.564   2.475   0.000  0.00  0.00    +0.000 A 
ATOM      5  C   UNL     1       2.564   3.300   0.000  0.00  0.00    +0.000 A 
ATOM      6  C   UNL     1       3.279   3.712   0.000  0.00  0.00    +0.000 A 
ATOM      7  C   UNL     1       3.107   4.519   0.000  0.00  0.00    +0.000 A 
ATOM      8  N   UNL     1       2.287   4.606   0.000  0.00  0.00    +0.000 NA
ATOM      9  N   UNL     1       1.951   3.852   0.000  0.00  0.00    +0.000 NA
ENDROOT
BRANCH   3  10
ATOM     10  C   UNL     1       3.279   1.238   0.000  0.00  0.00    +0.000 A 
ATOM     11  C   UNL     1       3.993   0.825   0.000  0.00  0.00    +0.000 A 
ATOM     12  C   UNL     1       3.993   0.000   0.000  0.00  0.00    +0.000 A 
ATOM     13  C   UNL     1       3.279  -0.412   0.000  0.00  0.00    +0.000 A 
ATOM     14  C   UNL     1       2.564   0.000   0.000  0.00  0.00    +0.000 A 
ATOM     15  C   UNL     1       2.564   0.825   0.000  0.00  0.00    +0.000 A 
ATOM     16  C   UNL     1       1.780   1.080   0.000  0.00  0.00    +0.000 A 
ATOM     17  C   UNL     1       1.295   0.412   0.000  0.00  0.00    +0.000 A 
ATOM     18  N   UNL     1       1.780  -0.255   0.000  0.00  0.00    +0.000 NA
ENDBRANCH   3  10
BRANCH   1  22
ATOM     19  C   UNL     1       5.601   4.705   0.000  0.00  0.00    +0.000 A 
ATOM     20  C   UNL     1       6.014   3.990   0.000  0.00  0.00    +0.000 A 
ATOM     21  N   UNL     1       5.462   3.377   0.000  0.00  0.00    +0.000 NA
ATOM     22  C   UNL     1       4.708   3.712   0.000  0.00  0.00    +0.000 A 
ATOM     23  O   UNL     1       4.794   4.533   0.000  0.00  0.00    +0.000 OA
BRANCH  19  24
ATOM     24  C   UNL     1       5.937   5.458   0.000  0.00  0.00    +0.000 C 
BRANCH  24  28
ATOM     25  N   UNL     1       8.398   5.717   0.000  0.00  0.00    +0.000 NA
ATOM     26  C   UNL     1       8.062   4.963   0.000  0.00  0.00    +0.000 C 
ATOM     27  C   UNL     1       7.242   4.877   0.000  0.00  0.00    +0.000 C 
ATOM     28  N   UNL     1       6.757   5.544   0.000  0.00  0.00    +0.000 NA
ATOM     29  C   UNL     1       7.093   6.298   0.000  0.00  0.00    +0.000 C 
ATOM     30  C   UNL     1       7.913   6.384   0.000  0.00  0.00    +0.000 C 
BRANCH  25  32
ATOM     31  C   UNL     1       9.554   6.557   0.000  0.00  0.00    +0.000 C 
ATOM     32  C   UNL     1       9.219   5.803   0.000  0.00  0.00    +0.000 C 
ATOM     33  C   UNL     1       9.704   5.136   0.000  0.00  0.00    +0.000 C 
ENDBRANCH  25  32
ENDBRANCH  24  28
ENDBRANCH  19  24
ENDBRANCH   1  22
TORSDOF 5
