REMARK  Name = 
REMARK  5 active torsions:
REMARK  status: ('A' for Active; 'I' for Inactive)
REMARK    1  A    between atoms: O_2  and  C_3
REMARK    2  A    between atoms: C_5  and  C_9
REMARK    3  A    between atoms: C_13  and  N_14
REMARK    4  A    between atoms: N_14  and  C_15
REMARK    5  A    between atoms: C_16  and  C_21
REMARK                            x       y       z     vdW  Elec       q    Type
REMARK                         _______ _______ _______ _____ _____    ______ ____
ROOT
ATOM      1  C   UNL     1       5.716  -4.125   0.000  0.00  0.00    +0.000 A 
ATOM      2  C   UNL     1       6.430  -3.712   0.000  0.00  0.00    +0.000 A 
ATOM      3  C   UNL     1       7.145  -4.125   0.000  0.00  0.00    +0.000 A 
ATOM      4  F   UNL     1       7.859  -3.712   0.000  0.00  0.00    +0.000 F 
ATOM      5  C   UNL     1       7.145  -4.950   0.000  0.00  0.00    +0.000 A 
ATOM      6  C   UNL     1       6.430  -5.362   0.000  0.00  0.00    +0.000 A 
ATOM      7  F   UNL     1       6.430  -6.188   0.000  0.00  0.00    +0.000 F 
ATOM      8  C   UNL     1       5.716  -4.950   0.000  0.00  0.00    +0.000 A 
ENDROOT
BRANCH   1  11
ATOM      9  C   UNL     1       4.287  -2.475   0.000  0.00  0.00    +0.000 A 
ATOM     10  C   UNL     1       5.001  -2.888   0.000  0.00  0.00    +0.000 A 
ATOM     11  C   UNL     1       5.001  -3.712   0.000  0.00  0.00    +0.000 A 
ATOM     12  C   UNL     1       4.287  -4.125   0.000  0.00  0.00    +0.000 A 
ATOM     13  C   UNL     1       3.572  -3.712   0.000  0.00  0.00    +0.000 A 
ATOM     14  C   UNL     1       3.572  -2.888   0.000  0.00  0.00    +0.000 A 
BRANCH   9  16
ATOM     15  C   UNL     1       3.572  -1.238   0.000  0.00  0.00    +0.000 C 
ATOM     16  O   UNL     1       4.287  -1.650   0.000  0.00  0.00    +0.000 OA
ENDBRANCH   9  16
ENDBRANCH   1  11
BRANCH   5  17
ATOM     17  N   UNL     1       7.859  -5.362   0.000  0.00  0.00    +0.000 NA
BRANCH  17  18
ATOM     18  C   UNL     1       7.859  -6.188   0.000  0.00  0.00    +0.000 A 
ATOM     19  C   UNL     1       8.574  -6.600   0.000  0.00  0.00    +0.000 A 
ATOM     20  C   UNL     1       8.574  -7.425   0.000  0.00  0.00    +0.000 A 
ATOM     21  C   UNL     1       7.859  -7.838   0.000  0.00  0.00    +0.000 A 
ATOM     22  C   UNL     1       7.145  -7.425   0.000  0.00  0.00    +0.000 A 
ATOM     23  N   UNL     1       7.145  -6.600   0.000  0.00  0.00    +0.000 NA
BRANCH  19  24
ATOM     24  C   UNL     1       9.288  -6.188   0.000  0.00  0.00    +0.000 C 
ATOM     25  O   UNL     1      10.003  -6.600   0.000  0.00  0.00    +0.000 OA
ATOM     26  O   UNL     1       9.288  -5.362   0.000  0.00  0.00    +0.000 OA
ENDBRANCH  19  24
ENDBRANCH  17  18
ENDBRANCH   5  17
TORSDOF 5
