REMARK  Name = 
REMARK  5 active torsions:
REMARK  status: ('A' for Active; 'I' for Inactive)
REMARK    1  A    between atoms: C_1  and  C_7
REMARK    2  A    between atoms: C_7  and  C_8
REMARK    3  A    between atoms: C_8  and  C_9
REMARK    4  A    between atoms: C_9  and  C_10
REMARK    5  A    between atoms: C_10  and  C_12
REMARK                            x       y       z     vdW  Elec       q    Type
REMARK                         _______ _______ _______ _____ _____    ______ ____
ROOT
ATOM      1  C   UNL     1      -0.714   0.412   0.000  0.00  0.00    +0.000 C 
ENDROOT
BRANCH   1   2
ATOM      2  C   UNL     1      -1.429   0.000   0.000  0.00  0.00    +0.000 A 
ATOM      3  C   UNL     1      -1.429  -0.825   0.000  0.00  0.00    +0.000 A 
ATOM      4  C   UNL     1      -2.143   0.412   0.000  0.00  0.00    +0.000 A 
ATOM      5  C   UNL     1      -2.143  -1.237   0.000  0.00  0.00    +0.000 A 
ATOM      6  C   UNL     1      -2.858   0.000   0.000  0.00  0.00    +0.000 A 
ATOM      7  C   UNL     1      -2.858  -0.825   0.000  0.00  0.00    +0.000 A 
ENDBRANCH   1   2
BRANCH   1   8
ATOM      8  C   UNL     1       0.000   0.000   0.000  0.00  0.00    +0.000 C 
BRANCH   8   9
ATOM      9  C   UNL     1       0.715   0.412   0.000  0.00  0.00    +0.000 C 
BRANCH   9  10
ATOM     10  C   UNL     1       1.429   0.000   0.000  0.00  0.00    +0.000 C 
BRANCH  10  12
ATOM     11  O   UNL     1       2.858   0.000   0.000  0.00  0.00    +0.000 OA
ATOM     12  C   UNL     1       2.143   0.412   0.000  0.00  0.00    +0.000 C 
ATOM     13  O   UNL     1       2.143   1.237   0.000  0.00  0.00    +0.000 OA
ENDBRANCH  10  12
ENDBRANCH   9  10
ENDBRANCH   8   9
ENDBRANCH   1   8
TORSDOF 5
