REMARK  Name = 
REMARK  6 active torsions:
REMARK  status: ('A' for Active; 'I' for Inactive)
REMARK    1  A    between atoms: C_2  and  C_9
REMARK    2  A    between atoms: C_2  and  C_10
REMARK    3  A    between atoms: C_9  and  N_19
REMARK    4  A    between atoms: C_10  and  O_21
REMARK    5  A    between atoms: C_13  and  C_17
REMARK    6  A    between atoms: C_16  and  O_21
REMARK                            x       y       z     vdW  Elec       q    Type
REMARK                         _______ _______ _______ _____ _____    ______ ____
ROOT
ATOM      1  C   UNL     1       0.028   0.022   0.000  0.00  0.00    +0.000 C 
ENDROOT
BRANCH   1   2
ATOM      2  C   UNL     1      -0.687   0.435   0.000  0.00  0.00    +0.000 C 
BRANCH   2   3
ATOM      3  C   UNL     1      -1.401   0.022   0.000  0.00  0.00    +0.000 C 
BRANCH   3  11
ATOM      4  C   UNL     1      -4.314   1.704   0.000  0.00  0.00    +0.000 C 
ATOM      5  C   UNL     1      -3.561   2.040   0.000  0.00  0.00    +0.000 C 
ATOM      6  C   UNL     1      -4.228   0.884   0.000  0.00  0.00    +0.000 C 
ATOM      7  C   UNL     1      -2.202   1.255   0.000  0.00  0.00    +0.000 C 
ATOM      8  C   UNL     1      -2.869   0.099   0.000  0.00  0.00    +0.000 C 
ATOM      9  C   UNL     1      -3.009   1.427   0.000  0.00  0.00    +0.000 C 
ATOM     10  C   UNL     1      -3.421   0.712   0.000  0.00  0.00    +0.000 C 
ATOM     11  N   UNL     1      -2.116   0.435   0.000  0.00  0.00    +0.000 NA
ENDBRANCH   3  11
ENDBRANCH   2   3
ENDBRANCH   1   2
BRANCH   1  12
ATOM     12  O   UNL     1       0.742   0.435   0.000  0.00  0.00    +0.000 OA
BRANCH  12  18
ATOM     13  C   UNL     1       2.886   0.022   0.000  0.00  0.00    +0.000 A 
ATOM     14  C   UNL     1       2.171  -1.215   0.000  0.00  0.00    +0.000 A 
ATOM     15  C   UNL     1       2.171   0.435   0.000  0.00  0.00    +0.000 A 
ATOM     16  C   UNL     1       1.457  -0.802   0.000  0.00  0.00    +0.000 A 
ATOM     17  C   UNL     1       2.886  -0.802   0.000  0.00  0.00    +0.000 A 
ATOM     18  C   UNL     1       1.457   0.022   0.000  0.00  0.00    +0.000 A 
BRANCH  17  19
ATOM     19  C   UNL     1       3.600  -1.215   0.000  0.00  0.00    +0.000 C 
ATOM     20  N   UNL     1       4.314  -0.802   0.000  0.00  0.00    +0.000 NA
ATOM     21  O   UNL     1       3.600  -2.040   0.000  0.00  0.00    +0.000 OA
ENDBRANCH  17  19
ENDBRANCH  12  18
ENDBRANCH   1  12
TORSDOF 6
