REMARK  Name = 
REMARK  5 active torsions:
REMARK  status: ('A' for Active; 'I' for Inactive)
REMARK    1  A    between atoms: C_4  and  O_5
REMARK    2  A    between atoms: O_5  and  C_6
REMARK    3  A    between atoms: C_6  and  C_7
REMARK    4  A    between atoms: C_7  and  N_8
REMARK    5  A    between atoms: N_15  and  C_16
REMARK                            x       y       z     vdW  Elec       q    Type
REMARK                         _______ _______ _______ _____ _____    ______ ____
ROOT
ATOM      1  C   UNL     1      -0.836   1.197   0.000  0.00  0.00    +0.000 C 
ATOM      2  C   UNL     1      -0.500   0.443   0.000  0.00  0.00    +0.000 A 
ATOM      3  C   UNL     1       0.307   0.272   0.000  0.00  0.00    +0.000 A 
ATOM      4  C   UNL     1       0.393  -0.548   0.000  0.00  0.00    +0.000 A 
ATOM      5  N   UNL     1      -0.361  -0.884   0.000  0.00  0.00    +0.000 NA
ATOM      6  N   UNL     1      -0.913  -0.271   0.000  0.00  0.00    +0.000 N 
ENDROOT
BRANCH   6   7
ATOM      7  C   UNL     1      -1.733  -0.357   0.000  0.00  0.00    +0.000 A 
ATOM      8  C   UNL     1      -2.069  -1.111   0.000  0.00  0.00    +0.000 A 
ATOM      9  C   UNL     1      -2.889  -1.197   0.000  0.00  0.00    +0.000 A 
ATOM     10  C   UNL     1      -3.374  -0.530   0.000  0.00  0.00    +0.000 A 
ATOM     11  C   UNL     1      -4.195  -0.616   0.000  0.00  0.00    +0.000 A 
ATOM     12  C   UNL     1      -4.680   0.051   0.000  0.00  0.00    +0.000 A 
ATOM     13  C   UNL     1      -4.344   0.805   0.000  0.00  0.00    +0.000 A 
ATOM     14  C   UNL     1      -3.524   0.891   0.000  0.00  0.00    +0.000 A 
ATOM     15  C   UNL     1      -3.039   0.224   0.000  0.00  0.00    +0.000 A 
ATOM     16  C   UNL     1      -2.218   0.310   0.000  0.00  0.00    +0.000 A 
ENDBRANCH   6   7
BRANCH   4  17
ATOM     17  O   UNL     1       1.107  -0.961   0.000  0.00  0.00    +0.000 OA
BRANCH  17  18
ATOM     18  C   UNL     1       1.822  -0.548   0.000  0.00  0.00    +0.000 C 
BRANCH  18  19
ATOM     19  C   UNL     1       2.536  -0.961   0.000  0.00  0.00    +0.000 C 
BRANCH  19  20
ATOM     20  N   UNL     1       3.251  -0.548   0.000  0.00  0.00    +0.000 NA
ATOM     21  C   UNL     1       3.965  -0.961   0.000  0.00  0.00    +0.000 C 
ATOM     22  C   UNL     1       4.680  -0.548   0.000  0.00  0.00    +0.000 C 
ATOM     23  O   UNL     1       4.680   0.276   0.000  0.00  0.00    +0.000 OA
ATOM     24  C   UNL     1       3.965   0.689   0.000  0.00  0.00    +0.000 C 
ATOM     25  C   UNL     1       3.251   0.276   0.000  0.00  0.00    +0.000 C 
ENDBRANCH  19  20
ENDBRANCH  18  19
ENDBRANCH  17  18
ENDBRANCH   4  17
TORSDOF 5
