REMARK  Name = 
REMARK  26 active torsions:
REMARK  status: ('A' for Active; 'I' for Inactive)
REMARK    1  A    between atoms: CG_4  and  CB_6
REMARK    2  A    between atoms: CB_6  and  CA_7
REMARK    3  A    between atoms: CA_11  and  CB_12
REMARK    4  A    between atoms: CB_12  and  CG_13
REMARK    5  A    between atoms: CG_13  and  CD_14
REMARK    6  A    between atoms: CD_14  and  CE_15
REMARK    7  A    between atoms: CA_20  and  CB_21
REMARK    8  A    between atoms: CA_27  and  C_28
REMARK    9  A    between atoms: N_30  and  CA_31
REMARK   10  A    between atoms: CA_31  and  C_32
REMARK   11  A    between atoms: CA_31  and  CB_35
REMARK   12  A    between atoms: CA_42  and  N_43
REMARK   13  A    between atoms: C_44  and  CA_46
REMARK   14  A    between atoms: CA_46  and  CB_47
REMARK   15  A    between atoms: CA_46  and  N_54
REMARK   16  A    between atoms: CB_47  and  CG_48
REMARK   17  A    between atoms: C_55  and  C_56
REMARK   18  A    between atoms: C_56  and  N_57
REMARK   19  A    between atoms: N_60  and  C_61
REMARK   20  A    between atoms: C_61  and  C_62
REMARK   21  A    between atoms: N_67  and  C_68
REMARK   22  A    between atoms: C_68  and  C_69
REMARK   23  A    between atoms: N_74  and  C_75
REMARK   24  A    between atoms: C_75  and  C_76
REMARK   25  A    between atoms: CA_85  and  CB_86
REMARK   26  A    between atoms: CB_86  and  CG_87
REMARK                            x       y       z     vdW  Elec       q    Type
REMARK                         _______ _______ _______ _____ _____    ______ ____
ROOT
ATOM      1  CA  CYS A   3       3.417   0.782   0.000  0.00  0.00    +0.000 C 
ATOM      2  C   CYS A   3       4.203   0.531   0.000  0.00  0.00    +0.000 C 
ATOM      3  O   CYS A   3       4.378  -0.275   0.000  0.00  0.00    +0.000 OA
ATOM      4  N   PHE A   1       4.814   1.086   0.000  0.00  0.00    +0.000 NA
ATOM      5  CA  PHE A   1       5.600   0.835   0.000  0.00  0.00    +0.000 C 
ATOM      6  C   PHE A   1       5.775   0.028   0.000  0.00  0.00    +0.000 C 
ATOM      7  O   PHE A   1       5.164  -0.526   0.000  0.00  0.00    +0.000 OA
ATOM      8  N   TYR A   2       6.561  -0.223   0.000  0.00  0.00    +0.000 NA
ATOM      9  CA  TYR A   2       6.736  -1.029   0.000  0.00  0.00    +0.000 C 
ATOM     10  C   TYR A   2       6.125  -1.584   0.000  0.00  0.00    +0.000 C 
ATOM     11  O   TYR A   2       5.340  -1.333   0.000  0.00  0.00    +0.000 OA
ATOM     12  N   CYS A   3       6.301  -2.390   0.000  0.00  0.00    +0.000 NA
ATOM     13  CA  CYS A   3       5.690  -2.945   0.000  0.00  0.00    +0.000 C 
ATOM     14  CB  CYS A   3       4.904  -2.694   0.000  0.00  0.00    +0.000 C 
ATOM     15  SG  CYS A   3       4.294  -3.248   0.000  0.00  0.00    +0.000 S 
ATOM     16  SG  PHE A   1       0.795  -4.521   0.000  0.00  0.00    +0.000 S 
ATOM     17  CB  PHE A   1       2.014  -0.302   0.000  0.00  0.00    +0.000 C 
ATOM     18  CA  PHE A   1       0.086   1.812   0.000  0.00  0.00    +0.000 C 
ATOM     19  C   PHE A   1       0.911   1.844   0.000  0.00  0.00    +0.000 C 
ATOM     20  O   PHE A   1       1.351   1.146   0.000  0.00  0.00    +0.000 OA
ATOM     21  N   TYR A   2       1.295   2.574   0.000  0.00  0.00    +0.000 NA
ATOM     22  CA  TYR A   2       2.112   2.463   0.000  0.00  0.00    +0.000 C 
ATOM     23  C   TYR A   2       2.425   1.700   0.000  0.00  0.00    +0.000 C 
ATOM     24  O   TYR A   2       1.920   1.047   0.000  0.00  0.00    +0.000 OA
ATOM     25  N   CYS A   3       3.242   1.589   0.000  0.00  0.00    +0.000 NA
ENDROOT
BRANCH   9  26
ATOM     26  CB  TYR A   2       7.522  -1.280   0.000  0.00  0.00    +0.000 C 
ATOM     27  CG2 TYR A   2       7.697  -2.087   0.000  0.00  0.00    +0.000 C 
ATOM     28  OG1 TYR A   2       8.132  -0.726   0.000  0.00  0.00    +0.000 OA
ENDBRANCH   9  26
BRANCH  13  29
ATOM     29  C   CYS A   3       5.865  -3.751   0.000  0.00  0.00    +0.000 C 
ATOM     30  O   CYS A   3       5.255  -4.306   0.000  0.00  0.00    +0.000 OA
ATOM     31  N   THR A   4       6.651  -4.003   0.000  0.00  0.00    +0.000 NA
BRANCH  31  32
ATOM     32  CA  THR A   4       6.826  -4.809   0.000  0.00  0.00    +0.000 C 
BRANCH  32  33
ATOM     33  C   THR A   4       6.216  -5.364   0.000  0.00  0.00    +0.000 C 
ATOM     34  O   THR A   4       5.430  -5.112   0.000  0.00  0.00    +0.000 OA
ATOM     35  OXT THR A   4       6.391  -6.170   0.000  0.00  0.00    +0.000 OA
ENDBRANCH  32  33
BRANCH  32  36
ATOM     36  CB  THR A   4       7.612  -5.060   0.000  0.00  0.00    +0.000 C 
ATOM     37  CG2 THR A   4       7.787  -5.866   0.000  0.00  0.00    +0.000 C 
ATOM     38  OG1 THR A   4       8.223  -4.505   0.000  0.00  0.00    +0.000 OA
ENDBRANCH  32  36
ENDBRANCH  31  32
ENDBRANCH  13  29
BRANCH  18  39
ATOM     39  N   PHE A   1      -0.609   2.001   0.000  0.00  0.00    +0.000 NA
ATOM     40  C   PHE A   1      -1.031   1.253   0.000  0.00  0.00    +0.000 C 
ATOM     41  O   PHE A   1      -1.667   2.022   0.000  0.00  0.00    +0.000 OA
BRANCH  40  42
ATOM     42  CA  PHE A   1      -1.506   0.319   0.000  0.00  0.00    +0.000 C 
BRANCH  42  43
ATOM     43  N   PHE A   1      -2.330   0.286   0.000  0.00  0.00    +0.000 NA
ATOM     44  C   UNK A   0      -2.714  -0.444   0.000  0.00  0.00    +0.000 C 
ATOM     45  O   UNK A   0      -2.274  -1.142   0.000  0.00  0.00    +0.000 OA
BRANCH  44  46
ATOM     46  C   UNK A   0      -3.539  -0.476   0.000  0.00  0.00    +0.000 C 
BRANCH  46  47
ATOM     47  N   UNK A   0      -3.979   0.221   0.000  0.00  0.00    +0.000 NA
ATOM     48  C   UNK A   0      -4.803   0.188   0.000  0.00  0.00    +0.000 C 
ATOM     49  C   UNK A   0      -5.331  -0.446   0.000  0.00  0.00    +0.000 C 
ATOM     50  N   UNK A   0      -6.097  -0.140   0.000  0.00  0.00    +0.000 NA
ATOM     51  C   UNK A   0      -6.043   0.683   0.000  0.00  0.00    +0.000 C 
ATOM     52  C   UNK A   0      -5.244   0.886   0.000  0.00  0.00    +0.000 C 
ATOM     53  N   UNK A   0      -4.860   1.616   0.000  0.00  0.00    +0.000 NA
ATOM     54  C   UNK A   0      -4.035   1.649   0.000  0.00  0.00    +0.000 C 
ATOM     55  C   UNK A   0      -3.508   2.283   0.000  0.00  0.00    +0.000 C 
ATOM     56  N   UNK A   0      -2.741   1.978   0.000  0.00  0.00    +0.000 NA
ATOM     57  C   UNK A   0      -2.795   1.154   0.000  0.00  0.00    +0.000 C 
ATOM     58  C   UNK A   0      -3.595   0.951   0.000  0.00  0.00    +0.000 C 
BRANCH  50  59
ATOM     59  C   UNK A   0      -6.795  -0.581   0.000  0.00  0.00    +0.000 C 
BRANCH  59  60
ATOM     60  C   UNK A   0      -7.525  -0.197   0.000  0.00  0.00    +0.000 C 
ATOM     61  O   UNK A   0      -8.223  -0.637   0.000  0.00  0.00    +0.000 OA
ATOM     62  O   UNK A   0      -7.558   0.627   0.000  0.00  0.00    +0.000 OA
ENDBRANCH  59  60
ENDBRANCH  50  59
BRANCH  53  63
ATOM     63  C   UNK A   0      -5.300   2.314   0.000  0.00  0.00    +0.000 C 
BRANCH  63  64
ATOM     64  C   UNK A   0      -6.124   2.281   0.000  0.00  0.00    +0.000 C 
ATOM     65  O   UNK A   0      -6.565   2.979   0.000  0.00  0.00    +0.000 OA
ATOM     66  O   UNK A   0      -6.508   1.551   0.000  0.00  0.00    +0.000 OA
ENDBRANCH  63  64
ENDBRANCH  53  63
BRANCH  56  67
ATOM     67  C   UNK A   0      -2.044   2.418   0.000  0.00  0.00    +0.000 C 
BRANCH  67  68
ATOM     68  C   UNK A   0      -2.076   3.242   0.000  0.00  0.00    +0.000 C 
ATOM     69  O   UNK A   0      -1.379   3.683   0.000  0.00  0.00    +0.000 OA
ATOM     70  O   UNK A   0      -2.807   3.626   0.000  0.00  0.00    +0.000 OA
ENDBRANCH  67  68
ENDBRANCH  56  67
ENDBRANCH  46  47
ENDBRANCH  44  46
ENDBRANCH  42  43
BRANCH  42  71
ATOM     71  CB  PHE A   1      -1.065  -0.379   0.000  0.00  0.00    +0.000 C 
BRANCH  71  72
ATOM     72  CG  PHE A   1      -1.022  -0.984   0.000  0.00  0.00    +0.000 A 
ATOM     73  CD1 PHE A   1       0.002  -1.327   0.000  0.00  0.00    +0.000 A 
ATOM     74  CE1 PHE A   1       0.048  -2.094   0.000  0.00  0.00    +0.000 A 
ATOM     75  CZ  PHE A   1      -0.597  -2.601   0.000  0.00  0.00    +0.000 A 
ATOM     76  CE2 PHE A   1      -1.572  -2.373   0.000  0.00  0.00    +0.000 A 
ATOM     77  CD2 PHE A   1      -1.827  -1.505   0.000  0.00  0.00    +0.000 A 
ENDBRANCH  71  72
ENDBRANCH  42  71
ENDBRANCH  40  42
ENDBRANCH  18  39
BRANCH   1  78
ATOM     78  CB  CYS A   3       3.209   0.160   0.000  0.00  0.00    +0.000 C 
BRANCH  78  82
ATOM     79  NE1 CYS A   3       4.200  -1.710   0.000  0.00  0.00    +0.000 NA
ATOM     80  CE2 CYS A   3       3.394  -1.885   0.000  0.00  0.00    +0.000 A 
ATOM     81  CD2 CYS A   3       2.978  -1.173   0.000  0.00  0.00    +0.000 A 
ATOM     82  CG  CYS A   3       3.527  -0.557   0.000  0.00  0.00    +0.000 A 
ATOM     83  CD1 CYS A   3       4.283  -0.889   0.000  0.00  0.00    +0.000 A 
ATOM     84  CE3 CYS A   3       2.153  -1.176   0.000  0.00  0.00    +0.000 A 
ATOM     85  CZ3 CYS A   3       1.744  -1.893   0.000  0.00  0.00    +0.000 A 
ATOM     86  CH2 CYS A   3       2.160  -2.605   0.000  0.00  0.00    +0.000 A 
ATOM     87  CZ2 CYS A   3       2.985  -2.602   0.000  0.00  0.00    +0.000 A 
ENDBRANCH  78  82
ENDBRANCH   1  78
BRANCH   5  88
ATOM     88  CB  PHE A   1       6.210   1.389   0.000  0.00  0.00    +0.000 C 
BRANCH  88  89
ATOM     89  CG  PHE A   1       5.898   2.153   0.000  0.00  0.00    +0.000 C 
BRANCH  89  90
ATOM     90  CD  PHE A   1       5.080   2.264   0.000  0.00  0.00    +0.000 C 
BRANCH  90  91
ATOM     91  CE  PHE A   1       4.768   3.027   0.000  0.00  0.00    +0.000 C 
ATOM     92  NZ  PHE A   1       3.950   3.139   0.000  0.00  0.00    +0.000 NA
ENDBRANCH  90  91
ENDBRANCH  89  90
ENDBRANCH  88  89
ENDBRANCH   5  88
BRANCH  22  93
ATOM     93  CB  TYR A   2       2.617   3.116   0.000  0.00  0.00    +0.000 C 
BRANCH  93  94
ATOM     94  CG  TYR A   2       2.305   3.879   0.000  0.00  0.00    +0.000 A 
ATOM     95  CD1 TYR A   2       2.810   4.532   0.000  0.00  0.00    +0.000 A 
ATOM     96  CE1 TYR A   2       2.497   5.295   0.000  0.00  0.00    +0.000 A 
ATOM     97  CZ  TYR A   2       1.680   5.406   0.000  0.00  0.00    +0.000 A 
ATOM     98  CE2 TYR A   2       1.175   4.754   0.000  0.00  0.00    +0.000 A 
ATOM     99  CD2 TYR A   2       1.487   3.990   0.000  0.00  0.00    +0.000 A 
ATOM    100  OH  TYR A   2       1.367   6.170   0.000  0.00  0.00    +0.000 OA
ENDBRANCH  93  94
ENDBRANCH  22  93
TORSDOF 26
