REMARK  Name = 
REMARK  4 active torsions:
REMARK  status: ('A' for Active; 'I' for Inactive)
REMARK    1  A    between atoms: C_2  and  C_5
REMARK    2  A    between atoms: C_12  and  C_14
REMARK    3  A    between atoms: C_20  and  O_21
REMARK    4  A    between atoms: O_21  and  C_22
REMARK                            x       y       z     vdW  Elec       q    Type
REMARK                         _______ _______ _______ _____ _____    ______ ____
ROOT
ATOM      1  C   UNL     1      -1.818  -4.558   0.000  0.00  0.00    +0.000 C 
ATOM      2  C   UNL     1      -1.313  -5.210   0.000  0.00  0.00    +0.000 C 
ATOM      3  O   UNL     1      -0.683  -5.743   0.000  0.00  0.00    +0.000 OA
ATOM      4  C   UNL     1       0.018  -5.309   0.000  0.00  0.00    +0.000 A 
ATOM      5  C   UNL     1      -0.178  -4.508   0.000  0.00  0.00    +0.000 A 
ATOM      6  C   UNL     1       0.418  -3.937   0.000  0.00  0.00    +0.000 A 
ATOM      7  C   UNL     1       1.210  -4.168   0.000  0.00  0.00    +0.000 A 
ATOM      8  C   UNL     1       1.406  -4.969   0.000  0.00  0.00    +0.000 A 
ATOM      9  C   UNL     1       0.810  -5.540   0.000  0.00  0.00    +0.000 A 
ATOM     10  C   UNL     1      -1.001  -4.447   0.000  0.00  0.00    +0.000 C 
ENDROOT
BRANCH   1  18
ATOM     11  C   UNL     1      -4.923  -2.843   0.000  0.00  0.00    +0.000 A 
ATOM     12  C   UNL     1      -4.106  -2.731   0.000  0.00  0.00    +0.000 A 
ATOM     13  C   UNL     1      -3.601  -3.383   0.000  0.00  0.00    +0.000 A 
ATOM     14  C   UNL     1      -3.913  -4.147   0.000  0.00  0.00    +0.000 A 
ATOM     15  C   UNL     1      -4.731  -4.258   0.000  0.00  0.00    +0.000 A 
ATOM     16  C   UNL     1      -5.236  -3.606   0.000  0.00  0.00    +0.000 A 
ATOM     17  N   UNL     1      -3.283  -4.680   0.000  0.00  0.00    +0.000 NA
ATOM     18  C   UNL     1      -2.582  -4.246   0.000  0.00  0.00    +0.000 A 
ATOM     19  N   UNL     1      -2.778  -3.444   0.000  0.00  0.00    +0.000 NA
BRANCH  11  21
ATOM     20  F   UNL     1      -5.934  -1.538   0.000  0.00  0.00    +0.000 F 
ATOM     21  C   UNL     1      -5.429  -2.190   0.000  0.00  0.00    +0.000 C 
ATOM     22  F   UNL     1      -6.081  -2.696   0.000  0.00  0.00    +0.000 F 
ATOM     23  F   UNL     1      -4.777  -1.685   0.000  0.00  0.00    +0.000 F 
ENDBRANCH  11  21
ENDBRANCH   1  18
BRANCH   7  24
ATOM     24  O   UNL     1       1.806  -3.597   0.000  0.00  0.00    +0.000 OA
BRANCH  24  25
ATOM     25  C   UNL     1       2.598  -3.828   0.000  0.00  0.00    +0.000 A 
ATOM     26  C   UNL     1       3.194  -3.257   0.000  0.00  0.00    +0.000 A 
ATOM     27  C   UNL     1       2.997  -2.456   0.000  0.00  0.00    +0.000 C 
ATOM     28  C   UNL     1       3.593  -1.885   0.000  0.00  0.00    +0.000 C 
ATOM     29  C   UNL     1       4.385  -2.116   0.000  0.00  0.00    +0.000 C 
ATOM     30  O   UNL     1       4.981  -1.545   0.000  0.00  0.00    +0.000 OA
ATOM     31  N   UNL     1       4.582  -2.917   0.000  0.00  0.00    +0.000 NA
ATOM     32  C   UNL     1       3.986  -3.488   0.000  0.00  0.00    +0.000 A 
ATOM     33  N   UNL     1       4.182  -4.289   0.000  0.00  0.00    +0.000 NA
ATOM     34  C   UNL     1       3.586  -4.860   0.000  0.00  0.00    +0.000 A 
ATOM     35  C   UNL     1       2.794  -4.629   0.000  0.00  0.00    +0.000 A 
ENDBRANCH  24  25
ENDBRANCH   7  24
TORSDOF 4
