REMARK  Name = 
REMARK  10 active torsions:
REMARK  status: ('A' for Active; 'I' for Inactive)
REMARK    1  A    between atoms: C_2  and  C_5
REMARK    2  A    between atoms: C_8  and  C_11
REMARK    3  A    between atoms: C_11  and  N_12
REMARK    4  A    between atoms: N_12  and  C_13
REMARK    5  A    between atoms: N_12  and  S_25
REMARK    6  A    between atoms: C_13  and  C_14
REMARK    7  A    between atoms: C_18  and  O_20
REMARK    8  A    between atoms: O_20  and  C_21
REMARK    9  A    between atoms: C_21  and  C_22
REMARK   10  A    between atoms: S_25  and  C_28
REMARK                            x       y       z     vdW  Elec       q    Type
REMARK                         _______ _______ _______ _____ _____    ______ ____
ROOT
ATOM      1  N   UNL     1      -2.888  -2.586   0.000  0.00  0.00    +0.000 NA
ENDROOT
BRANCH   1   2
ATOM      2  S   UNL     1      -2.888  -3.410   0.000  0.00  0.00    +0.000 S 
ATOM      3  O   UNL     1      -2.888  -4.236   0.000  0.00  0.00    +0.000 OA
ATOM      4  O   UNL     1      -3.712  -3.410   0.000  0.00  0.00    +0.000 OA
BRANCH   2   5
ATOM      5  C   UNL     1      -2.062  -3.410   0.000  0.00  0.00    +0.000 A 
ATOM      6  C   UNL     1      -1.650  -2.696   0.000  0.00  0.00    +0.000 A 
ATOM      7  C   UNL     1      -0.825  -2.696   0.000  0.00  0.00    +0.000 A 
ATOM      8  C   UNL     1      -0.412  -3.410   0.000  0.00  0.00    +0.000 A 
ATOM      9  N   UNL     1      -0.825  -4.125   0.000  0.00  0.00    +0.000 NA
ATOM     10  C   UNL     1      -1.650  -4.125   0.000  0.00  0.00    +0.000 A 
ENDBRANCH   2   5
ENDBRANCH   1   2
BRANCH   1  11
ATOM     11  C   UNL     1      -2.173  -2.173   0.000  0.00  0.00    +0.000 C 
BRANCH  11  15
ATOM     12  C   UNL     1      -2.173   0.302   0.000  0.00  0.00    +0.000 A 
ATOM     13  C   UNL     1      -1.459  -0.111   0.000  0.00  0.00    +0.000 A 
ATOM     14  C   UNL     1      -1.459  -0.935   0.000  0.00  0.00    +0.000 A 
ATOM     15  C   UNL     1      -2.173  -1.348   0.000  0.00  0.00    +0.000 A 
ATOM     16  C   UNL     1      -2.888  -0.935   0.000  0.00  0.00    +0.000 A 
ATOM     17  C   UNL     1      -2.888  -0.111   0.000  0.00  0.00    +0.000 A 
BRANCH  12  19
ATOM     18  C   UNL     1      -2.173   1.952   0.000  0.00  0.00    +0.000 C 
ATOM     19  C   UNL     1      -2.173   1.127   0.000  0.00  0.00    +0.000 C 
ATOM     20  C   UNL     1      -2.998   1.127   0.000  0.00  0.00    +0.000 C 
ATOM     21  C   UNL     1      -1.348   1.127   0.000  0.00  0.00    +0.000 C 
ENDBRANCH  12  19
ENDBRANCH  11  15
ENDBRANCH   1  11
BRANCH   1  22
ATOM     22  C   UNL     1      -3.602  -2.173   0.000  0.00  0.00    +0.000 C 
BRANCH  22  23
ATOM     23  C   UNL     1      -4.316  -2.586   0.000  0.00  0.00    +0.000 A 
ATOM     24  C   UNL     1      -4.316  -3.410   0.000  0.00  0.00    +0.000 A 
ATOM     25  C   UNL     1      -5.031  -3.823   0.000  0.00  0.00    +0.000 A 
ATOM     26  C   UNL     1      -5.745  -3.410   0.000  0.00  0.00    +0.000 A 
ATOM     27  C   UNL     1      -5.745  -2.586   0.000  0.00  0.00    +0.000 A 
ATOM     28  C   UNL     1      -5.031  -2.173   0.000  0.00  0.00    +0.000 A 
BRANCH  27  29
ATOM     29  O   UNL     1      -6.460  -2.173   0.000  0.00  0.00    +0.000 OA
BRANCH  29  30
ATOM     30  C   UNL     1      -7.174  -2.586   0.000  0.00  0.00    +0.000 C 
BRANCH  30  31
ATOM     31  C   UNL     1      -7.889  -2.173   0.000  0.00  0.00    +0.000 C 
ATOM     32  O   UNL     1      -8.603  -2.586   0.000  0.00  0.00    +0.000 OA
ATOM     33  O   UNL     1      -7.889  -1.348   0.000  0.00  0.00    +0.000 OA
ENDBRANCH  30  31
ENDBRANCH  29  30
ENDBRANCH  27  29
ENDBRANCH  22  23
ENDBRANCH   1  22
TORSDOF 10
