REMARK  Name = 
REMARK  6 active torsions:
REMARK  status: ('A' for Active; 'I' for Inactive)
REMARK    1  A    between atoms: O_2  and  C_15
REMARK    2  A    between atoms: O_2  and  C_22
REMARK    3  A    between atoms: O_3  and  C_14
REMARK    4  A    between atoms: C_11  and  C_15
REMARK    5  A    between atoms: C_16  and  C_21
REMARK    6  A    between atoms: C_19  and  C_21
REMARK                            x       y       z     vdW  Elec       q    Type
REMARK                         _______ _______ _______ _____ _____    ______ ____
ROOT
ATOM      1  O   UNL     1      -0.428   0.204   0.000  0.00  0.00    +0.000 OA
ENDROOT
BRANCH   1   3
ATOM      2  C   UNL     1       1.713   1.446   0.000  0.00  0.00    +0.000 A 
ATOM      3  C   UNL     1       0.272   0.621   0.000  0.00  0.00    +0.000 A 
ATOM      4  C   UNL     1       0.971   1.854   0.000  0.00  0.00    +0.000 A 
ATOM      5  C   UNL     1       1.713   0.621   0.000  0.00  0.00    +0.000 A 
ATOM      6  C   UNL     1       0.272   1.446   0.000  0.00  0.00    +0.000 A 
ATOM      7  C   UNL     1       0.971   0.204   0.000  0.00  0.00    +0.000 A 
BRANCH   2   8
ATOM      8  C   UNL     1       2.423   1.854   0.000  0.00  0.00    +0.000 C 
BRANCH   8  13
ATOM      9  S   UNL     1       3.948   1.687   0.000  0.00  0.00    +0.000 S 
ATOM     10  O   UNL     1       2.465   0.120   0.000  0.00  0.00    +0.000 OA
ATOM     11  O   UNL     1       5.222   1.029   0.000  0.00  0.00    +0.000 OA
ATOM     12  N   UNL     1       3.906   0.329   0.000  0.00  0.00    +0.000 NA
ATOM     13  C   UNL     1       3.123   1.446   0.000  0.00  0.00    +0.000 C 
ATOM     14  C   UNL     1       3.123   0.621   0.000  0.00  0.00    +0.000 C 
ATOM     15  C   UNL     1       4.397   1.029   0.000  0.00  0.00    +0.000 C 
ENDBRANCH   8  13
ENDBRANCH   2   8
ENDBRANCH   1   3
BRANCH   1  16
ATOM     16  C   UNL     1      -0.428  -0.621   0.000  0.00  0.00    +0.000 C 
BRANCH  16  21
ATOM     17  N   UNL     1      -1.577  -0.371   0.000  0.00  0.00    +0.000 N 
ATOM     18  N   UNL     1      -1.577  -1.687   0.000  0.00  0.00    +0.000 NA
ATOM     19  C   UNL     1      -2.360  -0.621   0.000  0.00  0.00    +0.000 A 
ATOM     20  C   UNL     1      -2.360  -1.446   0.000  0.00  0.00    +0.000 A 
ATOM     21  C   UNL     1      -1.128  -1.029   0.000  0.00  0.00    +0.000 A 
ATOM     22  C   UNL     1      -3.102  -0.204   0.000  0.00  0.00    +0.000 A 
ATOM     23  C   UNL     1      -3.102  -1.854   0.000  0.00  0.00    +0.000 A 
ATOM     24  C   UNL     1      -3.801  -0.621   0.000  0.00  0.00    +0.000 A 
ATOM     25  C   UNL     1      -3.801  -1.446   0.000  0.00  0.00    +0.000 A 
ATOM     26  C   UNL     1      -1.316   0.412   0.000  0.00  0.00    +0.000 C 
BRANCH  24  27
ATOM     27  O   UNL     1      -4.522  -0.204   0.000  0.00  0.00    +0.000 OA
ATOM     28  C   UNL     1      -5.222  -0.611   0.000  0.00  0.00    +0.000 C 
ENDBRANCH  24  27
ENDBRANCH  16  21
ENDBRANCH   1  16
TORSDOF 6
