REMARK  Name = 
REMARK  10 active torsions:
REMARK  status: ('A' for Active; 'I' for Inactive)
REMARK    1  A    between atoms: C_8  and  C_16
REMARK    2  A    between atoms: C_9  and  C_10
REMARK    3  A    between atoms: C_10  and  C_11
REMARK    4  A    between atoms: C_11  and  C_12
REMARK    5  A    between atoms: C_12  and  C_13
REMARK    6  A    between atoms: C_17  and  C_18
REMARK    7  A    between atoms: C_18  and  C_19
REMARK    8  A    between atoms: C_19  and  C_20
REMARK    9  A    between atoms: C_20  and  C_21
REMARK   10  A    between atoms: C_21  and  C_22
REMARK                            x       y       z     vdW  Elec       q    Type
REMARK                         _______ _______ _______ _____ _____    ______ ____
ROOT
ATOM      1  O   UNL     1      -2.073   0.541   0.000  0.00  0.00    +0.000 OA
ATOM      2  C   UNL     1      -1.405   1.025   0.000  0.00  0.00    +0.000 C 
ATOM      3  C   UNL     1      -1.819  -0.244   0.000  0.00  0.00    +0.000 C 
ATOM      4  C   UNL     1      -0.738   0.539   0.000  0.00  0.00    +0.000 C 
ATOM      5  C   UNL     1      -0.994  -0.245   0.000  0.00  0.00    +0.000 C 
ATOM      6  C   UNL     1      -2.074  -1.029   0.000  0.00  0.00    +0.000 C 
ATOM      7  C   UNL     1      -1.407  -1.514   0.000  0.00  0.00    +0.000 C 
ATOM      8  C   UNL     1      -0.739  -1.030   0.000  0.00  0.00    +0.000 C 
ATOM      9  C   UNL     1      -1.405   1.850   0.000  0.00  0.00    +0.000 C 
ATOM     10  O   UNL     1      -1.406  -2.266   0.000  0.00  0.00    +0.000 OA
ENDROOT
BRANCH   8  11
ATOM     11  C   UNL     1      -0.025  -1.443   0.000  0.00  0.00    +0.000 C 
ATOM     12  C   UNL     1       0.690  -1.030   0.000  0.00  0.00    +0.000 C 
BRANCH  12  13
ATOM     13  C   UNL     1       1.404  -1.443   0.000  0.00  0.00    +0.000 C 
ATOM     14  O   UNL     1       1.415  -2.187   0.000  0.00  0.00    +0.000 OA
BRANCH  13  15
ATOM     15  C   UNL     1       2.119  -1.031   0.000  0.00  0.00    +0.000 C 
BRANCH  15  16
ATOM     16  C   UNL     1       2.833  -1.444   0.000  0.00  0.00    +0.000 C 
BRANCH  16  17
ATOM     17  C   UNL     1       3.547  -1.032   0.000  0.00  0.00    +0.000 C 
BRANCH  17  18
ATOM     18  C   UNL     1       4.262  -1.445   0.000  0.00  0.00    +0.000 C 
ATOM     19  C   UNL     1       4.976  -1.032   0.000  0.00  0.00    +0.000 C 
ENDBRANCH  17  18
ENDBRANCH  16  17
ENDBRANCH  15  16
ENDBRANCH  13  15
ENDBRANCH  12  13
ENDBRANCH   8  11
BRANCH   9  20
ATOM     20  C   UNL     1      -2.119   2.263   0.000  0.00  0.00    +0.000 C 
BRANCH  20  21
ATOM     21  C   UNL     1      -2.833   1.851   0.000  0.00  0.00    +0.000 C 
BRANCH  21  22
ATOM     22  C   UNL     1      -3.547   2.264   0.000  0.00  0.00    +0.000 C 
BRANCH  22  23
ATOM     23  C   UNL     1      -4.262   1.853   0.000  0.00  0.00    +0.000 C 
ATOM     24  O   UNL     1      -4.976   2.266   0.000  0.00  0.00    +0.000 OA
ATOM     25  O   UNL     1      -4.263   1.028   0.000  0.00  0.00    +0.000 OA
ENDBRANCH  22  23
ENDBRANCH  21  22
ENDBRANCH  20  21
ENDBRANCH   9  20
TORSDOF 10
