REMARK  Name = 
REMARK  5 active torsions:
REMARK  status: ('A' for Active; 'I' for Inactive)
REMARK    1  A    between atoms: C_1  and  C_2
REMARK    2  A    between atoms: C_1  and  C_3
REMARK    3  A    between atoms: C_1  and  C_4
REMARK    4  A    between atoms: C_2  and  CA_6
REMARK    5  A    between atoms: C_5  and  CA_6
REMARK                            x       y       z     vdW  Elec       q    Type
REMARK                         _______ _______ _______ _____ _____    ______ ____
ROOT
ATOM      1  C   UNL     1      -0.721   0.000   0.000  0.00  0.00    +0.000 C 
ENDROOT
BRANCH   1   2
ATOM      2  C   UNL     1      -0.733  -0.825   0.000  0.00  0.00    +0.000 C 
ATOM      3  O   UNL     1      -1.454  -1.227   0.000  0.00  0.00    +0.000 OA
ATOM      4  O   UNL     1      -0.025  -1.248   0.000  0.00  0.00    +0.000 OA
ENDBRANCH   1   2
BRANCH   1   5
ATOM      5  C   UNL     1      -1.426   0.423   0.000  0.00  0.00    +0.000 C 
ATOM      6  O   UNL     1      -2.147   0.021   0.000  0.00  0.00    +0.000 OA
ATOM      7  O   UNL     1      -1.411   1.248   0.000  0.00  0.00    +0.000 OA
ENDBRANCH   1   5
BRANCH   1   8
ATOM      8  C   UNL     1       0.000   0.402   0.000  0.00  0.00    +0.000 C 
BRANCH   8   9
ATOM      9  CA  UNL     1       0.705  -0.021   0.000  0.00  0.00    +0.000 C 
ATOM     10  N   UNL     1       0.705  -0.856   0.000  0.00  0.00    +0.000 NA
BRANCH   9  11
ATOM     11  C   UNL     1       1.442   0.371   0.000  0.00  0.00    +0.000 C 
ATOM     12  O   UNL     1       2.147  -0.052   0.000  0.00  0.00    +0.000 OA
ATOM     13  OXT UNL     1       1.442   1.205   0.000  0.00  0.00    +0.000 OA
ENDBRANCH   9  11
ENDBRANCH   8   9
ENDBRANCH   1   8
TORSDOF 5
