REMARK  Name = 
REMARK  6 active torsions:
REMARK  status: ('A' for Active; 'I' for Inactive)
REMARK    1  A    between atoms: C_1  and  C_7
REMARK    2  A    between atoms: C_8  and  C_9
REMARK    3  A    between atoms: C_8  and  C_14
REMARK    4  A    between atoms: C_9  and  C_10
REMARK    5  A    between atoms: C_10  and  C_11
REMARK    6  A    between atoms: C_11  and  C_12
REMARK                            x       y       z     vdW  Elec       q    Type
REMARK                         _______ _______ _______ _____ _____    ______ ____
ROOT
ATOM      1  C   UNL     1       1.068   0.828   0.000  0.00  0.00    +0.000 C 
ATOM      2  C   UNL     1       0.353   0.416   0.000  0.00  0.00    +0.000 C 
ENDROOT
BRANCH   1   3
ATOM      3  C   UNL     1       1.783   0.420   0.000  0.00  0.00    +0.000 A 
ATOM      4  C   UNL     1       1.779  -0.407   0.000  0.00  0.00    +0.000 A 
ATOM      5  C   UNL     1       2.494  -0.826   0.000  0.00  0.00    +0.000 A 
ATOM      6  C   UNL     1       3.212  -0.414   0.000  0.00  0.00    +0.000 A 
ATOM      7  C   UNL     1       3.217   0.413   0.000  0.00  0.00    +0.000 A 
ATOM      8  C   UNL     1       2.502   0.828   0.000  0.00  0.00    +0.000 A 
ENDBRANCH   1   3
BRANCH   2   9
ATOM      9  C   UNL     1       0.355  -0.411   0.000  0.00  0.00    +0.000 C 
ATOM     10  O   UNL     1      -0.357  -0.828   0.000  0.00  0.00    +0.000 OA
ENDBRANCH   2   9
BRANCH   2  11
ATOM     11  C   UNL     1      -0.357   0.823   0.000  0.00  0.00    +0.000 C 
BRANCH  11  12
ATOM     12  C   UNL     1      -1.072   0.412   0.000  0.00  0.00    +0.000 C 
BRANCH  12  13
ATOM     13  C   UNL     1      -1.787   0.819   0.000  0.00  0.00    +0.000 C 
BRANCH  13  14
ATOM     14  C   UNL     1      -2.502   0.408   0.000  0.00  0.00    +0.000 C 
ATOM     15  C   UNL     1      -3.217   0.815   0.000  0.00  0.00    +0.000 C 
ENDBRANCH  13  14
ENDBRANCH  12  13
ENDBRANCH  11  12
ENDBRANCH   2  11
TORSDOF 6
