REMARK  Name = 
REMARK  10 active torsions:
REMARK  status: ('A' for Active; 'I' for Inactive)
REMARK    1  A    between atoms: C_1  and  O_7
REMARK    2  A    between atoms: C_2  and  N_8
REMARK    3  A    between atoms: C_5  and  C_11
REMARK    4  A    between atoms: O_7  and  C_21
REMARK    5  A    between atoms: C_16  and  O_22
REMARK    6  A    between atoms: C_17  and  N_23
REMARK    7  A    between atoms: C_20  and  C_25
REMARK    8  A    between atoms: O_22  and  C_35
REMARK    9  A    between atoms: C_31  and  N_37
REMARK   10  A    between atoms: C_34  and  C_39
REMARK                            x       y       z     vdW  Elec       q    Type
REMARK                         _______ _______ _______ _____ _____    ______ ____
ROOT
ATOM      1  C   UNL     1       0.714   1.031   0.000  0.00  0.00    +0.000 C 
ATOM      2  C   UNL     1       0.714   0.206   0.000  0.00  0.00    +0.000 C 
ATOM      3  O   UNL     1       0.000   1.444   0.000  0.00  0.00    +0.000 OA
ATOM      4  C   UNL     1       0.000  -0.206   0.000  0.00  0.00    +0.000 C 
ATOM      5  C   UNL     1      -0.714   1.031   0.000  0.00  0.00    +0.000 C 
ATOM      6  C   UNL     1      -0.714   0.206   0.000  0.00  0.00    +0.000 C 
ATOM      7  O   UNL     1       0.000  -1.031   0.000  0.00  0.00    +0.000 OA
ENDROOT
BRANCH   2   8
ATOM      8  N   UNL     1       1.429  -0.206   0.000  0.00  0.00    +0.000 NA
ATOM      9  C   UNL     1       1.429  -1.031   0.000  0.00  0.00    +0.000 C 
ATOM     10  C   UNL     1       2.143  -1.444   0.000  0.00  0.00    +0.000 C 
ATOM     11  O   UNL     1       0.714  -1.444   0.000  0.00  0.00    +0.000 OA
ENDBRANCH   2   8
BRANCH   5  12
ATOM     12  C   UNL     1      -1.429   1.444   0.000  0.00  0.00    +0.000 C 
ATOM     13  O   UNL     1      -2.143   1.031   0.000  0.00  0.00    +0.000 OA
ENDBRANCH   5  12
BRANCH   6  14
ATOM     14  O   UNL     1      -1.429  -0.206   0.000  0.00  0.00    +0.000 OA
BRANCH  14  15
ATOM     15  C   UNL     1      -2.143  -0.619   0.000  0.00  0.00    +0.000 C 
ATOM     16  C   UNL     1      -2.143  -1.444   0.000  0.00  0.00    +0.000 C 
ATOM     17  O   UNL     1      -2.858  -0.206   0.000  0.00  0.00    +0.000 OA
ATOM     18  C   UNL     1      -2.858  -1.856   0.000  0.00  0.00    +0.000 C 
ATOM     19  C   UNL     1      -3.572  -0.619   0.000  0.00  0.00    +0.000 C 
ATOM     20  C   UNL     1      -3.572  -1.444   0.000  0.00  0.00    +0.000 C 
ATOM     21  O   UNL     1      -2.858  -2.681   0.000  0.00  0.00    +0.000 OA
ATOM     22  O   UNL     1      -4.287  -1.856   0.000  0.00  0.00    +0.000 OA
BRANCH  16  23
ATOM     23  N   UNL     1      -1.429  -1.856   0.000  0.00  0.00    +0.000 NA
ATOM     24  C   UNL     1      -1.429  -2.681   0.000  0.00  0.00    +0.000 C 
ATOM     25  C   UNL     1      -0.714  -3.094   0.000  0.00  0.00    +0.000 C 
ATOM     26  O   UNL     1      -2.143  -3.094   0.000  0.00  0.00    +0.000 OA
ENDBRANCH  16  23
BRANCH  19  27
ATOM     27  C   UNL     1      -4.287  -0.206   0.000  0.00  0.00    +0.000 C 
ATOM     28  O   UNL     1      -5.001  -0.619   0.000  0.00  0.00    +0.000 OA
ENDBRANCH  19  27
ENDBRANCH  14  15
ENDBRANCH   6  14
BRANCH   1  29
ATOM     29  O   UNL     1       1.429   1.444   0.000  0.00  0.00    +0.000 OA
BRANCH  29  35
ATOM     30  C   UNL     1       3.572   2.681   0.000  0.00  0.00    +0.000 C 
ATOM     31  C   UNL     1       3.572   1.856   0.000  0.00  0.00    +0.000 C 
ATOM     32  O   UNL     1       2.858   3.094   0.000  0.00  0.00    +0.000 OA
ATOM     33  C   UNL     1       2.858   1.444   0.000  0.00  0.00    +0.000 C 
ATOM     34  C   UNL     1       2.143   2.681   0.000  0.00  0.00    +0.000 C 
ATOM     35  C   UNL     1       2.143   1.856   0.000  0.00  0.00    +0.000 C 
ATOM     36  O   UNL     1       4.287   3.094   0.000  0.00  0.00    +0.000 OA
ATOM     37  O   UNL     1       2.858   0.619   0.000  0.00  0.00    +0.000 OA
BRANCH  31  38
ATOM     38  N   UNL     1       4.287   1.444   0.000  0.00  0.00    +0.000 NA
ATOM     39  C   UNL     1       4.287   0.619   0.000  0.00  0.00    +0.000 C 
ATOM     40  C   UNL     1       5.001   0.206   0.000  0.00  0.00    +0.000 C 
ATOM     41  O   UNL     1       3.572   0.206   0.000  0.00  0.00    +0.000 OA
ENDBRANCH  31  38
BRANCH  34  42
ATOM     42  C   UNL     1       1.429   3.094   0.000  0.00  0.00    +0.000 C 
ATOM     43  O   UNL     1       0.714   2.681   0.000  0.00  0.00    +0.000 OA
ENDBRANCH  34  42
ENDBRANCH  29  35
ENDBRANCH   1  29
TORSDOF 10
