REMARK  Name = 
REMARK  2 active torsions:
REMARK  status: ('A' for Active; 'I' for Inactive)
REMARK    1  A    between atoms: C_1  and  P_3
REMARK    2  A    between atoms: C_1  and  P_7
REMARK                            x       y       z     vdW  Elec       q    Type
REMARK                         _______ _______ _______ _____ _____    ______ ____
ROOT
ATOM      1  C   UNL     1      -0.935  -0.262   0.000  0.00  0.00    +0.000 C 
ATOM      2  O   UNL     1      -0.221  -0.674   0.000  0.00  0.00    +0.000 OA
ENDROOT
BRANCH   1   3
ATOM      3  P   UNL     1      -1.650  -0.674   0.000  0.00  0.00    +0.000 P 
ATOM      4  O   UNL     1      -2.364  -1.087   0.000  0.00  0.00    +0.000 OA
ATOM      5  O   UNL     1      -1.238  -1.388   0.000  0.00  0.00    +0.000 OA
ATOM      6  O   UNL     1      -2.062   0.040   0.000  0.00  0.00    +0.000 OA
ENDBRANCH   1   3
BRANCH   1   7
ATOM      7  P   UNL     1      -0.935   0.563   0.000  0.00  0.00    +0.000 P 
ATOM      8  O   UNL     1      -0.935   1.388   0.000  0.00  0.00    +0.000 OA
ATOM      9  O   UNL     1      -0.111   0.563   0.000  0.00  0.00    +0.000 OA
ATOM     10  O   UNL     1      -1.760   0.563   0.000  0.00  0.00    +0.000 OA
ENDBRANCH   1   7
TORSDOF 2
REMARK  Name = 
REMARK  2 active torsions:
REMARK  status: ('A' for Active; 'I' for Inactive)
REMARK    1  A    between atoms: C_1  and  P_3
REMARK    2  A    between atoms: C_1  and  P_7
REMARK                            x       y       z     vdW  Elec       q    Type
REMARK                         _______ _______ _______ _____ _____    ______ ____
ROOT
ATOM      1 TC   UNL     1       2.364  -0.097   0.000  0.00  0.00    +0.000 Tc
ENDROOT
TORSDOF 0
