REMARK  Name = 
REMARK  9 active torsions:
REMARK  status: ('A' for Active; 'I' for Inactive)
REMARK    1  A    between atoms: N_10  and  C_17
REMARK    2  A    between atoms: N_10  and  C_22
REMARK    3  A    between atoms: N_13  and  CA_26
REMARK    4  A    between atoms: C_15  and  C_17
REMARK    5  A    between atoms: CA_26  and  CB_27
REMARK    6  A    between atoms: CA_26  and  C_33
REMARK    7  A    between atoms: CB_27  and  CG_32
REMARK    8  A    between atoms: C_28  and  C_31
REMARK    9  A    between atoms: CG_32  and  CD_34
REMARK                            x       y       z     vdW  Elec       q    Type
REMARK                         _______ _______ _______ _____ _____    ______ ____
ROOT
ATOM      1  N   UNL     1       0.108   1.174   0.000  0.00  0.00    +0.000 N 
ATOM      2  H   UNL     1       0.108   1.685   0.000  0.00  0.00    +0.000 HD
ENDROOT
BRANCH   1   3
ATOM      3  C   UNL     1      -0.606   0.761   0.000  0.00  0.00    +0.000 A 
ATOM      4  C   UNL     1      -1.321   1.174   0.000  0.00  0.00    +0.000 A 
ATOM      5  C   UNL     1      -0.606  -0.064   0.000  0.00  0.00    +0.000 A 
ATOM      6  C   UNL     1      -2.035  -0.064   0.000  0.00  0.00    +0.000 A 
ATOM      7  C   UNL     1      -2.035   0.761   0.000  0.00  0.00    +0.000 A 
ATOM      8  C   UNL     1      -1.321  -0.476   0.000  0.00  0.00    +0.000 A 
BRANCH   6  11
ATOM      9  O   UNL     1      -2.750  -1.301   0.000  0.00  0.00    +0.000 OA
ATOM     10  N   UNL     1      -3.464  -0.064   0.000  0.00  0.00    +0.000 N 
ATOM     11  C   ACE A   0      -2.750  -0.476   0.000  0.00  0.00    +0.000 C 
ATOM     12  H   UNL     1      -3.464   0.448   0.000  0.00  0.00    +0.000 HD
BRANCH  10  13
ATOM     13  CA  UNL     1      -4.179  -0.476   0.000  0.00  0.00    +0.000 C 
BRANCH  13  16
ATOM     14  O   UNL     1      -5.608  -0.476   0.000  0.00  0.00    +0.000 OA
ATOM     15  OXT UNL     1      -4.893   0.761   0.000  0.00  0.00    +0.000 OA
ATOM     16  C   UNL     1      -4.893  -0.064   0.000  0.00  0.00    +0.000 C 
ENDBRANCH  13  16
BRANCH  13  17
ATOM     17  CB  UNL     1      -4.179  -1.301   0.000  0.00  0.00    +0.000 C 
BRANCH  17  18
ATOM     18  CG  UNL     1      -4.893  -1.714   0.000  0.00  0.00    +0.000 C 
BRANCH  18  21
ATOM     19  OE1 UNL     1      -5.608  -2.951   0.000  0.00  0.00    +0.000 OA
ATOM     20  OE2 UNL     1      -4.179  -2.951   0.000  0.00  0.00    +0.000 OA
ATOM     21  CD  UNL     1      -4.893  -2.539   0.000  0.00  0.00    +0.000 C 
ENDBRANCH  18  21
ENDBRANCH  17  18
ENDBRANCH  13  17
ENDBRANCH  10  13
ENDBRANCH   6  11
ENDBRANCH   1   3
BRANCH   1  22
ATOM     22  C   UNL     1       0.823   0.761   0.000  0.00  0.00    +0.000 C 
BRANCH  22  30
ATOM     23  O   UNL     1       3.694  -0.092   0.000  0.00  0.00    +0.000 OA
ATOM     24  O   UNL     1       2.966  -0.476   0.000  0.00  0.00    +0.000 OA
ATOM     25  N   UNL     1       2.251   0.761   0.000  0.00  0.00    +0.000 N 
ATOM     26  N   UNL     1       2.251   2.411   0.000  0.00  0.00    +0.000 N 
ATOM     27  N   UNL     1       3.704   2.440   0.000  0.00  0.00    +0.000 N 
ATOM     28  N   UNL     1       4.451   1.157   0.000  0.00  0.00    +0.000 NA
ATOM     29  N   UNL     1       5.164   2.431   0.000  0.00  0.00    +0.000 N 
ATOM     30  C   UNL     1       1.537   1.174   0.000  0.00  0.00    +0.000 C 
ATOM     31  C   UNL     1       1.537   1.999   0.000  0.00  0.00    +0.000 C 
ATOM     32  C   UNL     1       2.966   1.174   0.000  0.00  0.00    +0.000 A 
ATOM     33  C   UNL     1       2.966   1.999   0.000  0.00  0.00    +0.000 A 
ATOM     34  C   UNL     1       3.704   0.733   0.000  0.00  0.00    +0.000 A 
ATOM     35  C   UNL     1       2.251  -0.064   0.000  0.00  0.00    +0.000 C 
ATOM     36  C   UNL     1       4.451   2.016   0.000  0.00  0.00    +0.000 A 
ATOM     37  H   UNL     1       2.251   2.923   0.000  0.00  0.00    +0.000 HD
ATOM     38  H   UNL     1       3.698   2.951   0.000  0.00  0.00    +0.000 HD
ATOM     39  H   UNL     1       5.162   2.943   0.000  0.00  0.00    +0.000 HD
ATOM     40  H   UNL     1       5.608   2.177   0.000  0.00  0.00    +0.000 HD
ENDBRANCH  22  30
ENDBRANCH   1  22
TORSDOF 9
