REMARK  Name = 
REMARK  11 active torsions:
REMARK  status: ('A' for Active; 'I' for Inactive)
REMARK    1  A    between atoms: O_2  and  C_3
REMARK    2  A    between atoms: C_4  and  O_20
REMARK    3  A    between atoms: C_10  and  C_11
REMARK    4  A    between atoms: C_14  and  C_15
REMARK    5  A    between atoms: C_15  and  C_16
REMARK    6  A    between atoms: O_20  and  C_21
REMARK    7  A    between atoms: C_21  and  C_23
REMARK    8  A    between atoms: C_24  and  C_25
REMARK    9  A    between atoms: C_26  and  C_27
REMARK   10  A    between atoms: C_28  and  C_29
REMARK   11  A    between atoms: C_30  and  C_31
REMARK                            x       y       z     vdW  Elec       q    Type
REMARK                         _______ _______ _______ _____ _____    ______ ____
ROOT
ATOM      1  C   UNL     1       1.952   1.127   0.000  0.00  0.00    +0.000 C 
ATOM      2  C   UNL     1       2.365   0.412   0.000  0.00  0.00    +0.000 C 
ATOM      3  C   UNL     1       1.952  -0.302   0.000  0.00  0.00    +0.000 C 
ATOM      4  C   UNL     1       1.127  -0.302   0.000  0.00  0.00    +0.000 C 
ATOM      5  C   UNL     1       0.715   0.412   0.000  0.00  0.00    +0.000 C 
ATOM      6  C   UNL     1       0.000   0.000   0.000  0.00  0.00    +0.000 C 
ATOM      7  O   UNL     1       0.000   0.825   0.000  0.00  0.00    +0.000 OA
ATOM      8  C   UNL     1       1.127   1.127   0.000  0.00  0.00    +0.000 C 
ENDROOT
BRANCH   8   9
ATOM      9  C   UNL     1       0.715   1.841   0.000  0.00  0.00    +0.000 C 
ATOM     10  C   UNL     1       1.347   2.372   0.000  0.00  0.00    +0.000 C 
ATOM     11  O   UNL     1      -0.061   1.559   0.000  0.00  0.00    +0.000 OA
ATOM     12  C   UNL     1       0.083   2.372   0.000  0.00  0.00    +0.000 C 
BRANCH  12  13
ATOM     13  C   UNL     1      -0.200   3.147   0.000  0.00  0.00    +0.000 C 
BRANCH  13  14
ATOM     14  C   UNL     1      -1.012   3.290   0.000  0.00  0.00    +0.000 C 
ATOM     15  C   UNL     1      -1.294   4.066   0.000  0.00  0.00    +0.000 C 
ATOM     16  C   UNL     1      -2.107   4.209   0.000  0.00  0.00    +0.000 C 
ATOM     17  C   UNL     1      -0.764   4.697   0.000  0.00  0.00    +0.000 C 
ENDBRANCH  13  14
ENDBRANCH  12  13
ENDBRANCH   8   9
BRANCH   1  19
ATOM     18  C   UNL     1       1.952   2.556   0.000  0.00  0.00    +0.000 C 
ATOM     19  O   UNL     1       2.365   1.841   0.000  0.00  0.00    +0.000 OA
ENDBRANCH   1  19
BRANCH   2  20
ATOM     20  O   UNL     1       3.189   0.412   0.000  0.00  0.00    +0.000 OA
BRANCH  20  21
ATOM     21  C   UNL     1       3.602  -0.302   0.000  0.00  0.00    +0.000 C 
ATOM     22  O   UNL     1       3.189  -1.016   0.000  0.00  0.00    +0.000 OA
BRANCH  21  23
ATOM     23  C   UNL     1       4.427  -0.302   0.000  0.00  0.00    +0.000 C 
ATOM     24  C   UNL     1       4.840  -1.016   0.000  0.00  0.00    +0.000 C 
BRANCH  24  25
ATOM     25  C   UNL     1       5.665  -1.016   0.000  0.00  0.00    +0.000 C 
ATOM     26  C   UNL     1       6.077  -1.731   0.000  0.00  0.00    +0.000 C 
BRANCH  26  27
ATOM     27  C   UNL     1       6.902  -1.731   0.000  0.00  0.00    +0.000 C 
ATOM     28  C   UNL     1       7.314  -2.445   0.000  0.00  0.00    +0.000 C 
BRANCH  28  29
ATOM     29  C   UNL     1       8.139  -2.445   0.000  0.00  0.00    +0.000 C 
ATOM     30  C   UNL     1       8.552  -3.160   0.000  0.00  0.00    +0.000 C 
BRANCH  30  31
ATOM     31  C   UNL     1       9.377  -3.160   0.000  0.00  0.00    +0.000 C 
ATOM     32  O   UNL     1       9.790  -2.445   0.000  0.00  0.00    +0.000 OA
ATOM     33  O   UNL     1       9.790  -3.874   0.000  0.00  0.00    +0.000 OA
ENDBRANCH  30  31
ENDBRANCH  28  29
ENDBRANCH  26  27
ENDBRANCH  24  25
ENDBRANCH  21  23
ENDBRANCH  20  21
ENDBRANCH   2  20
TORSDOF 11
