REMARK  Name = 
REMARK  8 active torsions:
REMARK  status: ('A' for Active; 'I' for Inactive)
REMARK    1  A    between atoms: C_5  and  C_6
REMARK    2  A    between atoms: C_6  and  C_7
REMARK    3  A    between atoms: C_7  and  C_8
REMARK    4  A    between atoms: C_8  and  C_9
REMARK    5  A    between atoms: C_9  and  C_10
REMARK    6  A    between atoms: C_13  and  C_14
REMARK    7  A    between atoms: C_14  and  C_15
REMARK    8  A    between atoms: C_14  and  C_17
REMARK                            x       y       z     vdW  Elec       q    Type
REMARK                         _______ _______ _______ _____ _____    ______ ____
ROOT
ATOM      1  C   UNL     1      -0.580  -0.352   0.000  0.00  0.00    +0.000 C 
ENDROOT
BRANCH   1   6
ATOM      2  C   UNL     1      -2.049  -0.276   0.000  0.00  0.00    +0.000 C 
ATOM      3  C   UNL     1      -2.600   0.338   0.000  0.00  0.00    +0.000 C 
ATOM      4  S   UNL     1      -2.188   1.052   0.000  0.00  0.00    +0.000 S 
ATOM      5  S   UNL     1      -1.381   0.880   0.000  0.00  0.00    +0.000 S 
ATOM      6  C   UNL     1      -1.295   0.060   0.000  0.00  0.00    +0.000 C 
ENDBRANCH   1   6
BRANCH   1   7
ATOM      7  C   UNL     1       0.134   0.060   0.000  0.00  0.00    +0.000 C 
BRANCH   7   8
ATOM      8  C   UNL     1       0.849  -0.352   0.000  0.00  0.00    +0.000 C 
BRANCH   8   9
ATOM      9  C   UNL     1       1.563   0.060   0.000  0.00  0.00    +0.000 C 
BRANCH   9  10
ATOM     10  C   UNL     1       2.278  -0.352   0.000  0.00  0.00    +0.000 C 
ATOM     11  O   UNL     1       2.992   0.060   0.000  0.00  0.00    +0.000 OA
ATOM     12  O   UNL     1       2.278  -1.177   0.000  0.00  0.00    +0.000 OA
ENDBRANCH   9  10
ENDBRANCH   8   9
ENDBRANCH   7   8
ENDBRANCH   1   7
TORSDOF 5
REMARK  Name = 
REMARK  8 active torsions:
REMARK  status: ('A' for Active; 'I' for Inactive)
REMARK    1  A    between atoms: C_5  and  C_6
REMARK    2  A    between atoms: C_6  and  C_7
REMARK    3  A    between atoms: C_7  and  C_8
REMARK    4  A    between atoms: C_8  and  C_9
REMARK    5  A    between atoms: C_9  and  C_10
REMARK    6  A    between atoms: C_13  and  C_14
REMARK    7  A    between atoms: C_14  and  C_15
REMARK    8  A    between atoms: C_14  and  C_17
REMARK                            x       y       z     vdW  Elec       q    Type
REMARK                         _______ _______ _______ _____ _____    ______ ____
ROOT
ATOM      1  C   UNL     1       6.307  -0.065   0.000  0.00  0.00    +0.000 C 
ATOM      2  N   UNL     1       5.894   0.649   0.000  0.00  0.00    +0.000 NA
ENDROOT
BRANCH   1   3
ATOM      3  C   UNL     1       5.592  -0.478   0.000  0.00  0.00    +0.000 C 
ATOM      4  O   UNL     1       4.878  -0.065   0.000  0.00  0.00    +0.000 OA
ENDBRANCH   1   3
BRANCH   1   5
ATOM      5  C   UNL     1       7.021   0.347   0.000  0.00  0.00    +0.000 C 
ATOM      6  O   UNL     1       7.021   1.172   0.000  0.00  0.00    +0.000 OA
ENDBRANCH   1   5
BRANCH   1   7
ATOM      7  C   UNL     1       6.719  -0.780   0.000  0.00  0.00    +0.000 C 
ATOM      8  O   UNL     1       7.544  -0.780   0.000  0.00  0.00    +0.000 OA
ENDBRANCH   1   7
TORSDOF 3
