REMARK  Name = 
REMARK  2 active torsions:
REMARK  status: ('A' for Active; 'I' for Inactive)
REMARK    1  A    between atoms: C_13  and  O_17
REMARK    2  A    between atoms: C_16  and  O_17
REMARK                            x       y       z     vdW  Elec       q    Type
REMARK                         _______ _______ _______ _____ _____    ______ ____
ROOT
ATOM      1  C   UNL     1       2.228   0.722   0.000  0.00  0.00    +0.000 C 
ATOM      2  C   UNL     1       2.223  -0.102   0.000  0.00  0.00    +0.000 C 
ATOM      3  C   UNL     1       1.500  -0.514   0.000  0.00  0.00    +0.000 C 
ATOM      4  C   UNL     1       0.788  -0.097   0.000  0.00  0.00    +0.000 C 
ATOM      5  C   UNL     1       0.075  -0.514   0.000  0.00  0.00    +0.000 A 
ATOM      6  C   UNL     1       0.075  -1.343   0.000  0.00  0.00    +0.000 A 
ATOM      7  C   UNL     1       1.510   1.139   0.000  0.00  0.00    +0.000 C 
ATOM      8  C   UNL     1       0.788   0.732   0.000  0.00  0.00    +0.000 C 
ATOM      9  C   UNL     1       1.505  -1.343   0.000  0.00  0.00    +0.000 C 
ATOM     10  C   UNL     1       3.003  -0.363   0.000  0.00  0.00    +0.000 C 
ATOM     11  C   UNL     1      -0.637  -0.102   0.000  0.00  0.00    +0.000 A 
ATOM     12  C   UNL     1       3.013   0.969   0.000  0.00  0.00    +0.000 C 
ATOM     13  C   UNL     1      -0.637  -1.755   0.000  0.00  0.00    +0.000 A 
ATOM     14  C   UNL     1       0.788  -1.755   0.000  0.00  0.00    +0.000 C 
ATOM     15  C   UNL     1      -1.350  -1.343   0.000  0.00  0.00    +0.000 A 
ATOM     16  C   UNL     1       3.493   0.300   0.000  0.00  0.00    +0.000 C 
ATOM     17  C   UNL     1      -1.350  -0.514   0.000  0.00  0.00    +0.000 A 
ATOM     18  C   UNL     1       2.223   1.551   0.000  0.00  0.00    +0.000 C 
ATOM     19  O   UNL     1       3.270   1.755   0.000  0.00  0.00    +0.000 OA
ENDROOT
BRANCH  15  20
ATOM     20  O   UNL     1      -2.063  -1.755   0.000  0.00  0.00    +0.000 OA
BRANCH  20  21
ATOM     21  C   UNL     1      -2.780  -1.343   0.000  0.00  0.00    +0.000 C 
ATOM     22  O   UNL     1      -2.775  -0.519   0.000  0.00  0.00    +0.000 OA
ATOM     23  C   UNL     1      -3.493  -1.755   0.000  0.00  0.00    +0.000 C 
ENDBRANCH  20  21
ENDBRANCH  15  20
TORSDOF 2
