REMARK  Name = 
REMARK  2 active torsions:
REMARK  status: ('A' for Active; 'I' for Inactive)
REMARK    1  A    between atoms: N_8  and  C1*_9
REMARK    2  A    between atoms: C4*_11  and  C5*_12
REMARK                            x       y       z     vdW  Elec       q    Type
REMARK                         _______ _______ _______ _____ _____    ______ ____
ROOT
ATOM      1  C   UNL     1      -0.888   2.092   0.000  0.00  0.00    +0.000 A 
ATOM      2  N   UNL     1      -1.603   1.680   0.000  0.00  0.00    +0.000 NA
ATOM      3  N   UNL     1      -0.888   0.442   0.000  0.00  0.00    +0.000 NA
ATOM      4  C   UNL     1      -0.174   0.855   0.000  0.00  0.00    +0.000 A 
ATOM      5  C   UNL     1      -0.174   1.680   0.000  0.00  0.00    +0.000 A 
ATOM      6  N   UNL     1       0.611   1.935   0.000  0.00  0.00    +0.000 NA
ATOM      7  C   UNL     1       1.095   1.267   0.000  0.00  0.00    +0.000 A 
ATOM      8  N   UNL     1       0.611   0.600   0.000  0.00  0.00    +0.000 N 
ATOM      9  C   UNL     1      -1.603   0.855   0.000  0.00  0.00    +0.000 A 
ATOM     10  N   UNL     1      -2.317   0.442   0.000  0.00  0.00    +0.000 NA
ATOM     11  O   UNL     1      -0.888   2.917   0.000  0.00  0.00    +0.000 OA
ATOM     12  O   UNL     1       1.921   1.267   0.000  0.00  0.00    +0.000 OA
ENDROOT
BRANCH   8  13
ATOM     13  C1* UNL     1       0.866  -0.185   0.000  0.00  0.00    +0.000 C 
ATOM     14  O4* UNL     1       0.381  -0.852   0.000  0.00  0.00    +0.000 OA
ATOM     15  C4* UNL     1       0.865  -1.520   0.000  0.00  0.00    +0.000 C 
ATOM     16  C3* UNL     1       1.650  -1.265   0.000  0.00  0.00    +0.000 C 
ATOM     17  O3* UNL     1       2.317  -1.750   0.000  0.00  0.00    +0.000 OA
ATOM     18  C2* UNL     1       1.650  -0.440   0.000  0.00  0.00    +0.000 C 
BRANCH  15  19
ATOM     19  C5* UNL     1       0.610  -2.304   0.000  0.00  0.00    +0.000 C 
ATOM     20  O5* UNL     1       1.163  -2.917   0.000  0.00  0.00    +0.000 OA
ENDBRANCH  15  19
ENDBRANCH   8  13
TORSDOF 2
