REMARK  Name = 
REMARK  9 active torsions:
REMARK  status: ('A' for Active; 'I' for Inactive)
REMARK    1  A    between atoms: O_2  and  C_3
REMARK    2  A    between atoms: C_3  and  C_4
REMARK    3  A    between atoms: C_4  and  C_5
REMARK    4  A    between atoms: N_7  and  C_8
REMARK    5  A    between atoms: C_11  and  C_12
REMARK    6  A    between atoms: C_12  and  C_13
REMARK    7  A    between atoms: C_13  and  N_14
REMARK    8  A    between atoms: N_17  and  C_20
REMARK    9  A    between atoms: C_24  and  C_26
REMARK                            x       y       z     vdW  Elec       q    Type
REMARK                         _______ _______ _______ _____ _____    ______ ____
ROOT
ATOM      1  C   UNL     1       9.288 -11.137   0.000  0.00  0.00    +0.000 C 
ENDROOT
BRANCH   1   2
ATOM      2  N   UNL     1      10.003 -11.550   0.000  0.00  0.00    +0.000 NA
ATOM      3  C   UNL     1      10.717 -11.137   0.000  0.00  0.00    +0.000 C 
ATOM      4  C   UNL     1      11.431 -11.550   0.000  0.00  0.00    +0.000 C 
ATOM      5  N   UNL     1      11.431 -12.375   0.000  0.00  0.00    +0.000 N 
ATOM      6  C   UNL     1      10.717 -12.787   0.000  0.00  0.00    +0.000 C 
ATOM      7  C   UNL     1      10.003 -12.375   0.000  0.00  0.00    +0.000 C 
BRANCH   5   8
ATOM      8  C   UNL     1      12.146 -12.787   0.000  0.00  0.00    +0.000 A 
ATOM      9  C   UNL     1      12.861 -12.375   0.000  0.00  0.00    +0.000 A 
ATOM     10  C   UNL     1      13.575 -12.787   0.000  0.00  0.00    +0.000 A 
ATOM     11  C   UNL     1      13.575 -13.613   0.000  0.00  0.00    +0.000 A 
ATOM     12  C   UNL     1      12.861 -14.025   0.000  0.00  0.00    +0.000 A 
ATOM     13  C   UNL     1      12.146 -13.613   0.000  0.00  0.00    +0.000 A 
BRANCH  12  14
ATOM     14  C   UNL     1      12.861 -14.850   0.000  0.00  0.00    +0.000 C 
ATOM     15  N   UNL     1      12.861 -15.675   0.000  0.00  0.00    +0.000 NA
ENDBRANCH  12  14
ENDBRANCH   5   8
ENDBRANCH   1   2
BRANCH   1  16
ATOM     16  C   UNL     1       8.574 -11.550   0.000  0.00  0.00    +0.000 C 
BRANCH  16  20
ATOM     17  C   UNL     1       6.430 -10.312   0.000  0.00  0.00    +0.000 C 
ATOM     18  C   UNL     1       7.145  -9.900   0.000  0.00  0.00    +0.000 C 
ATOM     19  C   UNL     1       7.859 -10.312   0.000  0.00  0.00    +0.000 C 
ATOM     20  C   UNL     1       7.859 -11.137   0.000  0.00  0.00    +0.000 C 
ATOM     21  C   UNL     1       7.145 -11.550   0.000  0.00  0.00    +0.000 C 
ATOM     22  C   UNL     1       6.430 -11.137   0.000  0.00  0.00    +0.000 C 
BRANCH  17  25
ATOM     23  C   UNL     1       5.001 -10.312   0.000  0.00  0.00    +0.000 C 
ATOM     24  O   UNL     1       5.001 -11.137   0.000  0.00  0.00    +0.000 OA
ATOM     25  N   UNL     1       5.716  -9.900   0.000  0.00  0.00    +0.000 NA
BRANCH  23  26
ATOM     26  C   UNL     1       4.287  -9.900   0.000  0.00  0.00    +0.000 C 
BRANCH  26  27
ATOM     27  C   UNL     1       3.572 -10.312   0.000  0.00  0.00    +0.000 C 
BRANCH  27  29
ATOM     28  C   UNL     1       2.143 -10.312   0.000  0.00  0.00    +0.000 C 
ATOM     29  O   UNL     1       2.858  -9.900   0.000  0.00  0.00    +0.000 OA
ENDBRANCH  27  29
ENDBRANCH  26  27
ENDBRANCH  23  26
ENDBRANCH  17  25
ENDBRANCH  16  20
ENDBRANCH   1  16
TORSDOF 9
