REMARK  Name = 
REMARK  7 active torsions:
REMARK  status: ('A' for Active; 'I' for Inactive)
REMARK    1  A    between atoms: C_4  and  O_35
REMARK    2  A    between atoms: C_6  and  O_7
REMARK    3  A    between atoms: O_7  and  C_8
REMARK    4  A    between atoms: C_8  and  C_10
REMARK    5  A    between atoms: C_16  and  O_31
REMARK    6  A    between atoms: O_31  and  C_32
REMARK    7  A    between atoms: O_35  and  C_36
REMARK                            x       y       z     vdW  Elec       q    Type
REMARK                         _______ _______ _______ _____ _____    ______ ____
ROOT
ATOM      1  C   UNL     1       7.810   1.238   0.000  0.00  0.00    +0.000 C 
ATOM      2  C   UNL     1       6.985   1.238   0.000  0.00  0.00    +0.000 C 
ATOM      3  C   UNL     1       6.500   1.905   0.000  0.00  0.00    +0.000 C 
ATOM      4  C   UNL     1       5.716   1.650   0.000  0.00  0.00    +0.000 C 
ATOM      5  C   UNL     1       5.716   0.825   0.000  0.00  0.00    +0.000 C 
ATOM      6  C   UNL     1       6.500   0.570   0.000  0.00  0.00    +0.000 C 
ATOM      7  C   UNL     1       4.954   0.340   0.000  0.00  0.00    +0.000 C 
ATOM      8  C   UNL     1       4.699  -0.445   0.000  0.00  0.00    +0.000 C 
ATOM      9  C   UNL     1       5.184  -1.112   0.000  0.00  0.00    +0.000 C 
ATOM     10  C   UNL     1       3.874  -0.445   0.000  0.00  0.00    +0.000 C 
ATOM     11  C   UNL     1       3.619   0.340   0.000  0.00  0.00    +0.000 C 
ATOM     12  C   UNL     1       2.858   0.825   0.000  0.00  0.00    +0.000 C 
ATOM     13  C   UNL     1       2.858   1.650   0.000  0.00  0.00    +0.000 C 
ATOM     14  C   UNL     1       2.143   1.238   0.000  0.00  0.00    +0.000 C 
ATOM     15  C   UNL     1       1.468   1.711   0.000  0.00  0.00    +0.000 C 
ATOM     16  C   UNL     1       1.468   0.764   0.000  0.00  0.00    +0.000 C 
ATOM     17  C   UNL     1       3.572   2.062   0.000  0.00  0.00    +0.000 C 
ATOM     18  C   UNL     1       4.287   1.650   0.000  0.00  0.00    +0.000 C 
ATOM     19  C   UNL     1       5.001   2.062   0.000  0.00  0.00    +0.000 C 
ATOM     20  O   UNL     1       5.001   2.888   0.000  0.00  0.00    +0.000 OA
ATOM     21  C   UNL     1       4.287   0.825   0.000  0.00  0.00    +0.000 C 
ENDROOT
BRANCH   6  22
ATOM     22  O   UNL     1       6.755  -0.215   0.000  0.00  0.00    +0.000 OA
BRANCH  22  23
ATOM     23  C   UNL     1       7.562  -0.386   0.000  0.00  0.00    +0.000 C 
ATOM     24  O   UNL     1       8.114   0.227   0.000  0.00  0.00    +0.000 OA
BRANCH  23  25
ATOM     25  C   UNL     1       7.817  -1.171   0.000  0.00  0.00    +0.000 A 
ATOM     26  C   UNL     1       8.624  -1.342   0.000  0.00  0.00    +0.000 A 
ATOM     27  C   UNL     1       8.879  -2.127   0.000  0.00  0.00    +0.000 A 
ATOM     28  C   UNL     1       8.327  -2.740   0.000  0.00  0.00    +0.000 A 
ATOM     29  C   UNL     1       7.520  -2.568   0.000  0.00  0.00    +0.000 A 
ATOM     30  C   UNL     1       7.265  -1.784   0.000  0.00  0.00    +0.000 A 
ENDBRANCH  23  25
ENDBRANCH  22  23
ENDBRANCH   6  22
BRANCH   4  31
ATOM     31  O   UNL     1       5.802   2.470   0.000  0.00  0.00    +0.000 OA
BRANCH  31  32
ATOM     32  C   UNL     1       6.556   2.806   0.000  0.00  0.00    +0.000 C 
ATOM     33  O   UNL     1       6.642   3.627   0.000  0.00  0.00    +0.000 OA
ATOM     34  C   UNL     1       7.223   2.321   0.000  0.00  0.00    +0.000 C 
ENDBRANCH  31  32
ENDBRANCH   4  31
BRANCH   7  35
ATOM     35  O   UNL     1       5.606  -0.165   0.000  0.00  0.00    +0.000 OA
BRANCH  35  36
ATOM     36  C   UNL     1       5.495  -0.983   0.000  0.00  0.00    +0.000 C 
ATOM     37  O   UNL     1       6.147  -1.488   0.000  0.00  0.00    +0.000 OA
ATOM     38  C   UNL     1       5.061  -1.684   0.000  0.00  0.00    +0.000 C 
ENDBRANCH  35  36
ENDBRANCH   7  35
TORSDOF 7
