REMARK  Name = 
REMARK  8 active torsions:
REMARK  status: ('A' for Active; 'I' for Inactive)
REMARK    1  A    between atoms: C_2  and  C_3
REMARK    2  A    between atoms: C_3  and  C_4
REMARK    3  A    between atoms: C_4  and  N_5
REMARK    4  A    between atoms: C_6  and  C_7
REMARK    5  A    between atoms: C_16  and  C_19
REMARK    6  A    between atoms: C_19  and  N_20
REMARK    7  A    between atoms: N_20  and  C_21
REMARK    8  A    between atoms: C_24  and  C_27
REMARK                            x       y       z     vdW  Elec       q    Type
REMARK                         _______ _______ _______ _____ _____    ______ ____
ROOT
ATOM      1  C   UNL     1       1.710   0.616   0.000  0.00  0.00    +0.000 A 
ATOM      2  C   UNL     1       1.006   1.022   0.000  0.00  0.00    +0.000 A 
ATOM      3  C   UNL     1       0.289   0.608   0.000  0.00  0.00    +0.000 A 
ATOM      4  C   UNL     1       0.289  -0.220   0.000  0.00  0.00    +0.000 A 
ATOM      5  C   UNL     1       0.993  -0.626   0.000  0.00  0.00    +0.000 A 
ATOM      6  C   UNL     1       1.710  -0.212   0.000  0.00  0.00    +0.000 A 
ATOM      7  N   UNL     1      -0.498   0.864   0.000  0.00  0.00    +0.000 NA
ATOM      8  C   UNL     1      -0.985   0.195   0.000  0.00  0.00    +0.000 A 
ATOM      9  N   UNL     1      -0.498  -0.475   0.000  0.00  0.00    +0.000 N 
ATOM     10  C   UNL     1      -0.752  -1.256   0.000  0.00  0.00    +0.000 C 
ENDROOT
BRANCH   1  12
ATOM     11  N   UNL     1       3.117   0.615   0.000  0.00  0.00    +0.000 N 
ATOM     12  C   UNL     1       2.413   1.022   0.000  0.00  0.00    +0.000 C 
ATOM     13  O   UNL     1       2.413   1.854   0.000  0.00  0.00    +0.000 OA
ATOM     14  C   UNL     1       3.123  -0.212   0.000  0.00  0.00    +0.000 A 
ATOM     15  N   UNL     1       2.423  -0.622   0.000  0.00  0.00    +0.000 NA
ATOM     16  C   UNL     1       2.428  -1.446   0.000  0.00  0.00    +0.000 A 
ATOM     17  C   UNL     1       3.145  -1.854   0.000  0.00  0.00    +0.000 A 
ATOM     18  C   UNL     1       3.845  -1.443   0.000  0.00  0.00    +0.000 A 
ATOM     19  C   UNL     1       3.839  -0.619   0.000  0.00  0.00    +0.000 A 
BRANCH  11  20
ATOM     20  C   UNL     1       3.821   1.022   0.000  0.00  0.00    +0.000 C 
BRANCH  20  21
ATOM     21  C   UNL     1       4.525   0.615   0.000  0.00  0.00    +0.000 C 
BRANCH  21  23
ATOM     22  O   UNL     1       5.934   0.612   0.000  0.00  0.00    +0.000 OA
ATOM     23  C   UNL     1       5.227   1.020   0.000  0.00  0.00    +0.000 C 
ATOM     24  O   UNL     1       5.227   1.853   0.000  0.00  0.00    +0.000 OA
ENDBRANCH  21  23
ENDBRANCH  20  21
ENDBRANCH  11  20
ENDBRANCH   1  12
BRANCH   8  25
ATOM     25  C   UNL     1      -1.793   0.195   0.000  0.00  0.00    +0.000 C 
BRANCH  25  26
ATOM     26  N   UNL     1      -2.206  -0.520   0.000  0.00  0.00    +0.000 NA
BRANCH  26  27
ATOM     27  C   UNL     1      -3.035  -0.519   0.000  0.00  0.00    +0.000 A 
ATOM     28  C   UNL     1      -3.455   0.208   0.000  0.00  0.00    +0.000 A 
ATOM     29  C   UNL     1      -4.283   0.208   0.000  0.00  0.00    +0.000 A 
ATOM     30  C   UNL     1      -4.697  -0.509   0.000  0.00  0.00    +0.000 A 
ATOM     31  C   UNL     1      -4.277  -1.236   0.000  0.00  0.00    +0.000 A 
ATOM     32  C   UNL     1      -3.449  -1.236   0.000  0.00  0.00    +0.000 A 
BRANCH  30  33
ATOM     33  C   UNL     1      -5.519  -0.509   0.000  0.00  0.00    +0.000 C 
ATOM     34  N   UNL     1      -5.931  -1.223   0.000  0.00  0.00    +0.000 NA
ATOM     35  N   UNL     1      -5.934   0.210   0.000  0.00  0.00    +0.000 NA
ENDBRANCH  30  33
ENDBRANCH  26  27
ENDBRANCH  25  26
ENDBRANCH   8  25
TORSDOF 8
