REMARK  Name = 
REMARK  6 active torsions:
REMARK  status: ('A' for Active; 'I' for Inactive)
REMARK    1  A    between atoms: N_1  and  C_2
REMARK    2  A    between atoms: N_1  and  C_3
REMARK    3  A    between atoms: N_1  and  C_4
REMARK    4  A    between atoms: C_3  and  C_7
REMARK    5  A    between atoms: C_4  and  C_8
REMARK    6  A    between atoms: C_8  and  N_13
REMARK                            x       y       z     vdW  Elec       q    Type
REMARK                         _______ _______ _______ _____ _____    ______ ____
ROOT
ATOM      1  N   UNL     1       0.016   0.738   0.000  0.00  0.00    +0.000 N 
ENDROOT
BRANCH   1   2
ATOM      2  C   UNL     1       0.841   0.738   0.000  0.00  0.00    +0.000 A 
ATOM      3  C   UNL     1       1.254   0.023   0.000  0.00  0.00    +0.000 A 
ATOM      4  N   UNL     1       1.254   1.452   0.000  0.00  0.00    +0.000 NA
ATOM      5  C   UNL     1       2.079   0.023   0.000  0.00  0.00    +0.000 A 
ATOM      6  C   UNL     1       2.079   1.452   0.000  0.00  0.00    +0.000 A 
ATOM      7  C   UNL     1       2.491   0.738   0.000  0.00  0.00    +0.000 A 
ENDBRANCH   1   2
BRANCH   1   8
ATOM      8  C   UNL     1      -0.396   1.452   0.000  0.00  0.00    +0.000 C 
BRANCH   8   9
ATOM      9  C   UNL     1      -1.221   1.452   0.000  0.00  0.00    +0.000 A 
ATOM     10  C   UNL     1      -1.706   0.785   0.000  0.00  0.00    +0.000 A 
ATOM     11  C   UNL     1      -1.706   2.120   0.000  0.00  0.00    +0.000 A 
ATOM     12  C   UNL     1      -2.491   1.040   0.000  0.00  0.00    +0.000 A 
ATOM     13  S   UNL     1      -2.491   1.865   0.000  0.00  0.00    +0.000 S 
ENDBRANCH   8   9
ENDBRANCH   1   8
BRANCH   1  14
ATOM     14  C   UNL     1      -0.396   0.023   0.000  0.00  0.00    +0.000 C 
BRANCH  14  15
ATOM     15  C   UNL     1       0.016  -0.691   0.000  0.00  0.00    +0.000 C 
BRANCH  15  16
ATOM     16  N   UNL     1      -0.396  -1.405   0.000  0.00  0.00    +0.000 NA
ATOM     17  C   UNL     1      -1.221  -1.405   0.000  0.00  0.00    +0.000 C 
ATOM     18  C   UNL     1       0.016  -2.120   0.000  0.00  0.00    +0.000 C 
ENDBRANCH  15  16
ENDBRANCH  14  15
ENDBRANCH   1  14
TORSDOF 6
