REMARK  Name = 
REMARK  2 active torsions:
REMARK  status: ('A' for Active; 'I' for Inactive)
REMARK    1  A    between atoms: C_10  and  C_11
REMARK    2  A    between atoms: C_17  and  C_19
REMARK                            x       y       z     vdW  Elec       q    Type
REMARK                         _______ _______ _______ _____ _____    ______ ____
ROOT
ATOM      1  C   UNL     1       3.279   2.062   0.000  0.00  0.00    +0.000 C 
ATOM      2  C   UNL     1       3.279   1.238   0.000  0.00  0.00    +0.000 C 
ATOM      3  N   UNL     1       3.993   0.825   0.000  0.00  0.00    +0.000 N 
ATOM      4  C   UNL     1       3.993   0.000   0.000  0.00  0.00    +0.000 C 
ATOM      5  C   UNL     1       3.279  -0.412   0.000  0.00  0.00    +0.000 C 
ATOM      6  N   UNL     1       2.564   0.000   0.000  0.00  0.00    +0.000 N 
ATOM      7  C   UNL     1       2.564   0.825   0.000  0.00  0.00    +0.000 A 
ATOM      8  N   UNL     1       1.780   1.080   0.000  0.00  0.00    +0.000 NA
ATOM      9  N   UNL     1       1.295   0.412   0.000  0.00  0.00    +0.000 NA
ATOM     10  C   UNL     1       1.780  -0.255   0.000  0.00  0.00    +0.000 A 
ATOM     11  C   UNL     1       4.708   1.238   0.000  0.00  0.00    +0.000 C 
ATOM     12  O   UNL     1       4.708   2.062   0.000  0.00  0.00    +0.000 OA
ENDROOT
BRANCH  11  13
ATOM     13  C   UNL     1       5.422   0.825   0.000  0.00  0.00    +0.000 A 
ATOM     14  C   UNL     1       6.137   1.238   0.000  0.00  0.00    +0.000 A 
ATOM     15  C   UNL     1       6.851   0.825   0.000  0.00  0.00    +0.000 A 
ATOM     16  C   UNL     1       6.851   0.000   0.000  0.00  0.00    +0.000 A 
ATOM     17  F   UNL     1       7.566  -0.412   0.000  0.00  0.00    +0.000 F 
ATOM     18  C   UNL     1       6.137  -0.412   0.000  0.00  0.00    +0.000 A 
ATOM     19  C   UNL     1       5.422   0.000   0.000  0.00  0.00    +0.000 A 
ENDBRANCH  11  13
BRANCH  10  20
ATOM     20  C   UNL     1       1.525  -1.040   0.000  0.00  0.00    +0.000 A 
ATOM     21  N   UNL     1       2.010  -1.707   0.000  0.00  0.00    +0.000 NA
ATOM     22  C   UNL     1       1.525  -2.374   0.000  0.00  0.00    +0.000 A 
ATOM     23  C   UNL     1       1.780  -3.159   0.000  0.00  0.00    +0.000 C 
ATOM     24  N   UNL     1       0.740  -2.119   0.000  0.00  0.00    +0.000 NA
ATOM     25  S   UNL     1       0.740  -1.294   0.000  0.00  0.00    +0.000 S 
ENDBRANCH  10  20
TORSDOF 2
