REMARK  Name = 
REMARK  0 active torsions:
REMARK  status: ('A' for Active; 'I' for Inactive)
REMARK                            x       y       z     vdW  Elec       q    Type
REMARK                         _______ _______ _______ _____ _____    ______ ____
ROOT
ATOM      1  C   UNL     1       2.143  -0.412   0.000  0.00  0.00    +0.000 C 
ATOM      2  C   UNL     1       1.429   0.000   0.000  0.00  0.00    +0.000 C 
ATOM      3  C   UNL     1       0.715  -0.412   0.000  0.00  0.00    +0.000 C 
ATOM      4  C   UNL     1       0.715  -1.238   0.000  0.00  0.00    +0.000 C 
ATOM      5  N   UNL     1       1.429  -1.650   0.000  0.00  0.00    +0.000 N 
ATOM      6  O   UNL     1       0.715  -2.062   0.000  0.00  0.00    +0.000 OA
ATOM      7  C   UNL     1       1.429  -2.475   0.000  0.00  0.00    +0.000 C 
ATOM      8  C   UNL     1       2.143  -2.888   0.000  0.00  0.00    +0.000 C 
ATOM      9  C   UNL     1       2.858  -2.475   0.000  0.00  0.00    +0.000 C 
ATOM     10  C   UNL     1       2.858  -1.650   0.000  0.00  0.00    +0.000 C 
ATOM     11  C   UNL     1       3.572  -1.238   0.000  0.00  0.00    +0.000 C 
ATOM     12  C   UNL     1       4.287  -1.650   0.000  0.00  0.00    +0.000 C 
ATOM     13  C   UNL     1       5.001  -1.238   0.000  0.00  0.00    +0.000 C 
ATOM     14  C   UNL     1       5.001  -0.412   0.000  0.00  0.00    +0.000 C 
ATOM     15  C   UNL     1       4.287   0.000   0.000  0.00  0.00    +0.000 C 
ATOM     16  O   UNL     1       4.287   0.825   0.000  0.00  0.00    +0.000 OA
ATOM     17  N   UNL     1       3.572  -0.412   0.000  0.00  0.00    +0.000 N 
ATOM     18  C   UNL     1       2.858   0.000   0.000  0.00  0.00    +0.000 C 
ATOM     19  C   UNL     1       2.143  -1.238   0.000  0.00  0.00    +0.000 C 
ENDROOT
TORSDOF 0
