REMARK  Name = 
REMARK  6 active torsions:
REMARK  status: ('A' for Active; 'I' for Inactive)
REMARK    1  A    between atoms: C_2  and  C_3
REMARK    2  A    between atoms: C_3  and  O_4
REMARK    3  A    between atoms: O_4  and  N_5
REMARK    4  A    between atoms: C_6  and  C_8
REMARK    5  A    between atoms: N_16  and  O_17
REMARK    6  A    between atoms: O_17  and  S_18
REMARK                            x       y       z     vdW  Elec       q    Type
REMARK                         _______ _______ _______ _____ _____    ______ ____
ROOT
ATOM      1  C   UNL     1       1.219  -3.132   0.000  0.00  0.00    +0.000 C 
ATOM      2  C   UNL     1       1.157  -3.954   0.000  0.00  0.00    +0.000 C 
ATOM      3  C   UNL     1       1.762  -4.516   0.000  0.00  0.00    +0.000 C 
ATOM      4  C   UNL     1       2.578  -4.393   0.000  0.00  0.00    +0.000 C 
ATOM      5  C   UNL     1       2.455  -3.445   0.000  0.00  0.00    +0.000 C 
ATOM      6  N   UNL     1       1.901  -2.667   0.000  0.00  0.00    +0.000 N 
ATOM      7  C   UNL     1       2.689  -2.910   0.000  0.00  0.00    +0.000 C 
ATOM      8  O   UNL     1       3.250  -2.305   0.000  0.00  0.00    +0.000 OA
ATOM      9  N   UNL     1       2.991  -3.678   0.000  0.00  0.00    +0.000 N 
ENDROOT
BRANCH   1  11
ATOM     10  N   UNL     1      -0.210  -3.132   0.000  0.00  0.00    +0.000 NA
ATOM     11  C   UNL     1       0.505  -2.719   0.000  0.00  0.00    +0.000 C 
ATOM     12  O   UNL     1       0.505  -1.894   0.000  0.00  0.00    +0.000 OA
BRANCH  10  13
ATOM     13  O   UNL     1      -0.924  -2.719   0.000  0.00  0.00    +0.000 OA
BRANCH  13  14
ATOM     14  C   UNL     1      -1.639  -3.132   0.000  0.00  0.00    +0.000 C 
BRANCH  14  16
ATOM     15  N   UNL     1      -3.068  -3.132   0.000  0.00  0.00    +0.000 NA
ATOM     16  C   UNL     1      -2.353  -2.719   0.000  0.00  0.00    +0.000 C 
ENDBRANCH  14  16
ENDBRANCH  13  14
ENDBRANCH  10  13
ENDBRANCH   1  11
BRANCH   9  17
ATOM     17  O   UNL     1       3.813  -3.740   0.000  0.00  0.00    +0.000 OA
BRANCH  17  18
ATOM     18  S   UNL     1       4.278  -3.058   0.000  0.00  0.00    +0.000 S 
ATOM     19  O   UNL     1       4.743  -2.377   0.000  0.00  0.00    +0.000 OA
ATOM     20  O   UNL     1       4.960  -3.523   0.000  0.00  0.00    +0.000 OA
ATOM     21  O   UNL     1       3.596  -2.593   0.000  0.00  0.00    +0.000 OA
ENDBRANCH  17  18
ENDBRANCH   9  17
TORSDOF 6
