REMARK  Name = 
REMARK  6 active torsions:
REMARK  status: ('A' for Active; 'I' for Inactive)
REMARK    1  A    between atoms: O_2  and  C_3
REMARK    2  A    between atoms: C_3  and  C_4
REMARK    3  A    between atoms: C_3  and  C_8
REMARK    4  A    between atoms: N_15  and  C_16
REMARK    5  A    between atoms: C_16  and  C_17
REMARK    6  A    between atoms: C_18  and  O_19
REMARK                            x       y       z     vdW  Elec       q    Type
REMARK                         _______ _______ _______ _____ _____    ______ ____
ROOT
ATOM      1  C   UNL     1      -0.715  -1.238   0.000  0.00  0.00    +0.000 A 
ATOM      2  C   UNL     1       0.000  -1.650   0.000  0.00  0.00    +0.000 A 
ATOM      3 CL   UNL     1       0.000  -2.475   0.000  0.00  0.00    +0.000 Cl
ATOM      4  C   UNL     1       0.715  -1.238   0.000  0.00  0.00    +0.000 A 
ATOM      5  C   UNL     1       0.715  -0.412   0.000  0.00  0.00    +0.000 A 
ATOM      6  C   UNL     1       1.429   0.000   0.000  0.00  0.00    +0.000 C 
ATOM      7  C   UNL     1       2.143  -0.412   0.000  0.00  0.00    +0.000 C 
ATOM      8  N   UNL     1       2.143  -1.238   0.000  0.00  0.00    +0.000 N 
ATOM      9  C   UNL     1       1.429  -1.650   0.000  0.00  0.00    +0.000 C 
ATOM     10  O   UNL     1       1.429  -2.475   0.000  0.00  0.00    +0.000 OA
ATOM     11  C   UNL     1       0.000   0.000   0.000  0.00  0.00    +0.000 A 
ATOM     12 CL   UNL     1       0.000   0.825   0.000  0.00  0.00    +0.000 Cl
ATOM     13  C   UNL     1      -0.715  -0.412   0.000  0.00  0.00    +0.000 A 
ENDROOT
BRANCH   8  14
ATOM     14  C   UNL     1       2.858  -1.650   0.000  0.00  0.00    +0.000 C 
BRANCH  14  15
ATOM     15  C   UNL     1       3.572  -1.238   0.000  0.00  0.00    +0.000 A 
ATOM     16  C   UNL     1       3.572  -0.412   0.000  0.00  0.00    +0.000 A 
ATOM     17  C   UNL     1       4.287   0.000   0.000  0.00  0.00    +0.000 A 
ATOM     18  C   UNL     1       5.001  -0.412   0.000  0.00  0.00    +0.000 A 
ATOM     19  C   UNL     1       5.716   0.000   0.000  0.00  0.00    +0.000 C 
ATOM     20  N   UNL     1       5.001  -1.238   0.000  0.00  0.00    +0.000 NA
ATOM     21  C   UNL     1       4.287  -1.650   0.000  0.00  0.00    +0.000 A 
ATOM     22  O   UNL     1       4.287  -2.475   0.000  0.00  0.00    +0.000 OA
BRANCH  16  23
ATOM     23  O   UNL     1       2.858   0.000   0.000  0.00  0.00    +0.000 OA
ATOM     24  C   UNL     1       2.858   0.825   0.000  0.00  0.00    +0.000 C 
ENDBRANCH  16  23
ENDBRANCH  14  15
ENDBRANCH   8  14
BRANCH   1  25
ATOM     25  C   UNL     1      -1.429  -1.650   0.000  0.00  0.00    +0.000 C 
BRANCH  25  26
ATOM     26  C   UNL     1      -2.143  -1.238   0.000  0.00  0.00    +0.000 C 
ATOM     27  C   UNL     1      -2.940  -1.451   0.000  0.00  0.00    +0.000 C 
ATOM     28  O   UNL     1      -3.154  -0.654   0.000  0.00  0.00    +0.000 OA
ATOM     29  C   UNL     1      -2.357  -0.441   0.000  0.00  0.00    +0.000 C 
ENDBRANCH  25  26
BRANCH  25  31
ATOM     30  C   UNL     1      -2.143  -2.888   0.000  0.00  0.00    +0.000 C 
ATOM     31  O   UNL     1      -1.429  -2.475   0.000  0.00  0.00    +0.000 OA
ENDBRANCH  25  31
ENDBRANCH   1  25
TORSDOF 6
