REMARK  Name = 
REMARK  8 active torsions:
REMARK  status: ('A' for Active; 'I' for Inactive)
REMARK    1  A    between atoms: C_2  and  O_4
REMARK    2  A    between atoms: O_4  and  C_5
REMARK    3  A    between atoms: C_5  and  C_6
REMARK    4  A    between atoms: C_6  and  C_8
REMARK    5  A    between atoms: C_18  and  C_30
REMARK    6  A    between atoms: C_23  and  O_25
REMARK    7  A    between atoms: O_25  and  C_26
REMARK    8  A    between atoms: C_26  and  C_27
REMARK                            x       y       z     vdW  Elec       q    Type
REMARK                         _______ _______ _______ _____ _____    ______ ____
ROOT
ATOM      1  C   UNL     1       4.815   0.131   0.000  0.00  0.00    +0.000 C 
ATOM      2  C   UNL     1       4.991   0.937   0.000  0.00  0.00    +0.000 C 
ATOM      3  C   UNL     1       4.279   1.353   0.000  0.00  0.00    +0.000 C 
ATOM      4  C   UNL     1       3.663   0.805   0.000  0.00  0.00    +0.000 C 
ATOM      5  C   UNL     1       3.994   0.049   0.000  0.00  0.00    +0.000 C 
ATOM      6  C   UNL     1       3.506  -0.616   0.000  0.00  0.00    +0.000 C 
ATOM      7  C   UNL     1       2.686  -0.525   0.000  0.00  0.00    +0.000 C 
ATOM      8  C   UNL     1       2.354   0.231   0.000  0.00  0.00    +0.000 C 
ATOM      9  C   UNL     1       2.843   0.895   0.000  0.00  0.00    +0.000 C 
ATOM     10  C   UNL     1       2.512   1.651   0.000  0.00  0.00    +0.000 C 
ATOM     11  C   UNL     1       1.692   1.742   0.000  0.00  0.00    +0.000 C 
ATOM     12  C   UNL     1       1.203   1.077   0.000  0.00  0.00    +0.000 C 
ATOM     13  C   UNL     1       1.534   0.322   0.000  0.00  0.00    +0.000 C 
ATOM     14  C   UNL     1       1.046  -0.343   0.000  0.00  0.00    +0.000 C 
ATOM     15  C   UNL     1       0.226  -0.252   0.000  0.00  0.00    +0.000 C 
ATOM     16  C   UNL     1      -0.105   0.503   0.000  0.00  0.00    +0.000 C 
ATOM     17  C   UNL     1       0.383   1.168   0.000  0.00  0.00    +0.000 C 
ATOM     18  C   UNL     1       2.212  -0.381   0.000  0.00  0.00    +0.000 C 
ATOM     19  F   UNL     1       1.866  -0.434   0.000  0.00  0.00    +0.000 F 
ATOM     20  O   UNL     1       2.197  -1.190   0.000  0.00  0.00    +0.000 OA
ATOM     21  C   UNL     1       4.403  -0.668   0.000  0.00  0.00    +0.000 C 
ATOM     22  O   UNL     1       5.812   1.018   0.000  0.00  0.00    +0.000 OA
ATOM     23  C   UNL     1       6.144   0.263   0.000  0.00  0.00    +0.000 C 
ATOM     24  O   UNL     1       5.527  -0.286   0.000  0.00  0.00    +0.000 OA
ATOM     25  C   UNL     1       6.932   0.505   0.000  0.00  0.00    +0.000 C 
ATOM     26  C   UNL     1       6.759  -0.286   0.000  0.00  0.00    +0.000 C 
ENDROOT
BRANCH  11  27
ATOM     27  C   UNL     1       1.361   2.497   0.000  0.00  0.00    +0.000 C 
ATOM     28  O   UNL     1       1.849   3.162   0.000  0.00  0.00    +0.000 OA
ENDBRANCH  11  27
BRANCH   1  29
ATOM     29  C   UNL     1       4.755  -0.658   0.000  0.00  0.00    +0.000 C 
ATOM     30  O   UNL     1       3.853  -0.926   0.000  0.00  0.00    +0.000 OA
BRANCH  29  31
ATOM     31  C   UNL     1       5.249  -1.231   0.000  0.00  0.00    +0.000 C 
BRANCH  31  32
ATOM     32  O   UNL     1       6.035  -0.980   0.000  0.00  0.00    +0.000 OA
BRANCH  32  34
ATOM     33  C   UNL     1       7.431  -1.285   0.000  0.00  0.00    +0.000 C 
ATOM     34  C   UNL     1       6.645  -1.536   0.000  0.00  0.00    +0.000 C 
ATOM     35  O   UNL     1       6.469  -2.342   0.000  0.00  0.00    +0.000 OA
ENDBRANCH  32  34
ENDBRANCH  31  32
ENDBRANCH  29  31
ENDBRANCH   1  29
BRANCH  16  36
ATOM     36  O   UNL     1      -0.925   0.594   0.000  0.00  0.00    +0.000 OA
BRANCH  36  37
ATOM     37  C   UNL     1      -1.414  -0.070   0.000  0.00  0.00    +0.000 C 
BRANCH  37  38
ATOM     38  C   UNL     1      -2.234   0.020   0.000  0.00  0.00    +0.000 C 
ATOM     39 CL   UNL     1      -2.566   0.776   0.000  0.00  0.00    +0.000 Cl
ENDBRANCH  37  38
ENDBRANCH  36  37
ENDBRANCH  16  36
TORSDOF 8
