REMARK  Name = 
REMARK  13 active torsions:
REMARK  status: ('A' for Active; 'I' for Inactive)
REMARK    1  A    between atoms: C_1  and  C_4
REMARK    2  A    between atoms: C_2  and  C_6
REMARK    3  A    between atoms: C_4  and  C_9
REMARK    4  A    between atoms: C_9  and  C_12
REMARK    5  A    between atoms: C_11  and  C_13
REMARK    6  A    between atoms: C_12  and  C_14
REMARK    7  A    between atoms: C_13  and  C_15
REMARK    8  A    between atoms: C_14  and  C_17
REMARK    9  A    between atoms: C_15  and  C_18
REMARK   10  A    between atoms: C_17  and  C_19
REMARK   11  A    between atoms: C_18  and  C_20
REMARK   12  A    between atoms: C_19  and  C_21
REMARK   13  A    between atoms: C_20  and  C_22
REMARK                            x       y       z     vdW  Elec       q    Type
REMARK                         _______ _______ _______ _____ _____    ______ ____
ROOT
ATOM      1  C   UNL     1      -2.223   0.423   0.000  0.00  0.00    +0.000 C 
ATOM      2  C   UNL     1      -2.226  -0.406   0.000  0.00  0.00    +0.000 C 
ATOM      3  C   UNL     1      -3.011   0.677   0.000  0.00  0.00    +0.000 C 
ATOM      4  C   UNL     1      -3.001  -0.660   0.000  0.00  0.00    +0.000 C 
ATOM      5  C   UNL     1      -3.495   0.005   0.000  0.00  0.00    +0.000 C 
ATOM      6  O   UNL     1      -3.269   1.459   0.000  0.00  0.00    +0.000 OA
ATOM      7  O   UNL     1      -3.248  -1.446   0.000  0.00  0.00    +0.000 OA
ENDROOT
BRANCH   2   8
ATOM      8  C   UNL     1      -1.509  -0.815   0.000  0.00  0.00    +0.000 C 
ATOM      9  C   UNL     1      -0.796  -0.406   0.000  0.00  0.00    +0.000 C 
BRANCH   9  10
ATOM     10  C   UNL     1      -0.079  -0.815   0.000  0.00  0.00    +0.000 C 
ATOM     11  O   UNL     1      -0.079  -1.641   0.000  0.00  0.00    +0.000 OA
BRANCH  10  12
ATOM     12  C   UNL     1       0.634  -0.406   0.000  0.00  0.00    +0.000 C 
BRANCH  12  13
ATOM     13  C   UNL     1       1.348  -0.815   0.000  0.00  0.00    +0.000 C 
BRANCH  13  14
ATOM     14  C   UNL     1       2.065  -0.406   0.000  0.00  0.00    +0.000 C 
BRANCH  14  15
ATOM     15  C   UNL     1       2.778  -0.815   0.000  0.00  0.00    +0.000 C 
ATOM     16  C   UNL     1       3.495  -0.406   0.000  0.00  0.00    +0.000 C 
ENDBRANCH  14  15
ENDBRANCH  13  14
ENDBRANCH  12  13
ENDBRANCH  10  12
ENDBRANCH   9  10
ENDBRANCH   2   8
BRANCH   1  17
ATOM     17  C   UNL     1      -1.509   0.839   0.000  0.00  0.00    +0.000 C 
BRANCH  17  18
ATOM     18  C   UNL     1      -0.796   0.423   0.000  0.00  0.00    +0.000 C 
BRANCH  18  19
ATOM     19  C   UNL     1      -0.079   0.839   0.000  0.00  0.00    +0.000 C 
BRANCH  19  20
ATOM     20  C   UNL     1       0.631   0.423   0.000  0.00  0.00    +0.000 C 
BRANCH  20  21
ATOM     21  C   UNL     1       1.348   0.839   0.000  0.00  0.00    +0.000 C 
BRANCH  21  22
ATOM     22  C   UNL     1       2.065   0.423   0.000  0.00  0.00    +0.000 C 
BRANCH  22  23
ATOM     23  C   UNL     1       2.778   0.839   0.000  0.00  0.00    +0.000 C 
ATOM     24  O   UNL     1       3.491   0.420   0.000  0.00  0.00    +0.000 OA
ATOM     25  O   UNL     1       2.792   1.641   0.000  0.00  0.00    +0.000 OA
ENDBRANCH  22  23
ENDBRANCH  21  22
ENDBRANCH  20  21
ENDBRANCH  19  20
ENDBRANCH  18  19
ENDBRANCH  17  18
ENDBRANCH   1  17
TORSDOF 13
