REMARK  Name = 
REMARK  8 active torsions:
REMARK  status: ('A' for Active; 'I' for Inactive)
REMARK    1  A    between atoms: C_1  and  O_18
REMARK    2  A    between atoms: C_2  and  O_23
REMARK    3  A    between atoms: C_4  and  C_7
REMARK    4  A    between atoms: C_6  and  O_16
REMARK    5  A    between atoms: C_7  and  C_8
REMARK    6  A    between atoms: O_18  and  C_19
REMARK    7  A    between atoms: C_19  and  C_20
REMARK    8  A    between atoms: C_20  and  O_21
REMARK                            x       y       z     vdW  Elec       q    Type
REMARK                         _______ _______ _______ _____ _____    ______ ____
ROOT
ATOM      1  C   UNL     1       0.713  -0.207   0.000  0.00  0.00    +0.000 A 
ATOM      2  C   UNL     1       0.714   0.621   0.000  0.00  0.00    +0.000 A 
ATOM      3  C   UNL     1      -0.002   1.034   0.000  0.00  0.00    +0.000 A 
ATOM      4  C   UNL     1      -0.719   0.621   0.000  0.00  0.00    +0.000 A 
ATOM      5  C   UNL     1      -0.716  -0.211   0.000  0.00  0.00    +0.000 A 
ATOM      6  C   UNL     1       0.000  -0.620   0.000  0.00  0.00    +0.000 A 
ENDROOT
BRANCH   2   7
ATOM      7  O   UNL     1       1.429   1.028   0.000  0.00  0.00    +0.000 OA
ATOM      8  C   UNL     1       2.138   0.615   0.000  0.00  0.00    +0.000 C 
ENDBRANCH   2   7
BRANCH   6   9
ATOM      9  O   UNL     1       0.002  -1.446   0.000  0.00  0.00    +0.000 OA
ATOM     10  C   UNL     1      -0.707  -1.859   0.000  0.00  0.00    +0.000 C 
ENDBRANCH   6   9
BRANCH   4  11
ATOM     11  C   UNL     1      -1.428   1.032   0.000  0.00  0.00    +0.000 C 
BRANCH  11  12
ATOM     12  C   UNL     1      -2.142   0.619   0.000  0.00  0.00    +0.000 A 
ATOM     13  C   UNL     1      -2.855   1.033   0.000  0.00  0.00    +0.000 A 
ATOM     14  N   UNL     1      -3.568   0.621   0.000  0.00  0.00    +0.000 NA
ATOM     15  C   UNL     1      -3.568  -0.204   0.000  0.00  0.00    +0.000 A 
ATOM     16  N   UNL     1      -2.848  -0.615   0.000  0.00  0.00    +0.000 NA
ATOM     17  C   UNL     1      -2.139  -0.201   0.000  0.00  0.00    +0.000 A 
ATOM     18  N   UNL     1      -4.282  -0.619   0.000  0.00  0.00    +0.000 NA
ATOM     19  N   UNL     1      -2.855   1.859   0.000  0.00  0.00    +0.000 NA
ENDBRANCH  11  12
ENDBRANCH   4  11
BRANCH   1  20
ATOM     20  O   UNL     1       1.429  -0.620   0.000  0.00  0.00    +0.000 OA
BRANCH  20  21
ATOM     21  C   UNL     1       2.142  -0.207   0.000  0.00  0.00    +0.000 C 
BRANCH  21  22
ATOM     22  C   UNL     1       2.855  -0.616   0.000  0.00  0.00    +0.000 C 
BRANCH  22  23
ATOM     23  O   UNL     1       3.569  -0.203   0.000  0.00  0.00    +0.000 OA
ATOM     24  C   UNL     1       4.282  -0.612   0.000  0.00  0.00    +0.000 C 
ENDBRANCH  22  23
ENDBRANCH  21  22
ENDBRANCH  20  21
ENDBRANCH   1  20
TORSDOF 8
