REMARK  Name = 
REMARK  4 active torsions:
REMARK  status: ('A' for Active; 'I' for Inactive)
REMARK    1  A    between atoms: CA_3  and  C_15
REMARK    2  A    between atoms: CA_7  and  N_9
REMARK    3  A    between atoms: C_10  and  CA_13
REMARK    4  A    between atoms: CA_13  and  C_18
REMARK                            x       y       z     vdW  Elec       q    Type
REMARK                         _______ _______ _______ _____ _____    ______ ____
ROOT
ATOM      1  C   UNL     1       1.489   0.620   0.000  0.00  0.00    +0.000 C 
ATOM      2  N   UNL     1       1.489  -0.205   0.000  0.00  0.00    +0.000 N 
ATOM      3  CA  UNL     1       2.204  -0.617   0.000  0.00  0.00    +0.000 C 
ATOM      4  C   UNL     1       2.918  -0.205   0.000  0.00  0.00    +0.000 C 
ATOM      5  C   UNL     1       2.918   0.620   0.000  0.00  0.00    +0.000 C 
ATOM      6  S   UNL     1       2.204   1.033   0.000  0.00  0.00    +0.000 S 
ATOM      7  CA  UNL     1       0.664   0.620   0.000  0.00  0.00    +0.000 C 
ATOM      8  C   UNL     1       0.664  -0.205   0.000  0.00  0.00    +0.000 C 
ATOM      9  O   UNL     1      -0.050  -0.617   0.000  0.00  0.00    +0.000 OA
ATOM     10  C   UNL     1       3.633  -0.618   0.000  0.00  0.00    +0.000 C 
ENDROOT
BRANCH   7  11
ATOM     11  N   UNL     1      -0.050   1.033   0.000  0.00  0.00    +0.000 NA
ATOM     12  C   UNL     1      -0.765   0.620   0.000  0.00  0.00    +0.000 C 
ATOM     13  O   UNL     1      -0.765  -0.205   0.000  0.00  0.00    +0.000 OA
BRANCH  12  14
ATOM     14  CA  UNL     1      -1.480   1.033   0.000  0.00  0.00    +0.000 C 
ATOM     15  N   UNL     1      -1.480   1.861   0.000  0.00  0.00    +0.000 NA
BRANCH  14  16
ATOM     16  C   UNL     1      -2.206   0.613   0.000  0.00  0.00    +0.000 A 
ATOM     17  C   UNL     1      -2.919   1.025   0.000  0.00  0.00    +0.000 A 
ATOM     18  C   UNL     1      -3.633   0.613   0.000  0.00  0.00    +0.000 A 
ATOM     19  C   UNL     1      -3.633  -0.211   0.000  0.00  0.00    +0.000 A 
ATOM     20  C   UNL     1      -2.919  -0.623   0.000  0.00  0.00    +0.000 A 
ATOM     21  C   UNL     1      -2.206  -0.211   0.000  0.00  0.00    +0.000 A 
ENDBRANCH  14  16
ENDBRANCH  12  14
ENDBRANCH   7  11
BRANCH   3  22
ATOM     22  C   UNL     1       2.204  -1.442   0.000  0.00  0.00    +0.000 C 
ATOM     23  O   UNL     1       1.479  -1.861   0.000  0.00  0.00    +0.000 OA
ATOM     24  OXT UNL     1       2.909  -1.849   0.000  0.00  0.00    +0.000 OA
ENDBRANCH   3  22
TORSDOF 4
