REMARK  Name = 
REMARK  7 active torsions:
REMARK  status: ('A' for Active; 'I' for Inactive)
REMARK    1  A    between atoms: C_2  and  C_5
REMARK    2  A    between atoms: C_7  and  N_8
REMARK    3  A    between atoms: N_8  and  C_9
REMARK    4  A    between atoms: C_11  and  O_12
REMARK    5  A    between atoms: O_12  and  C_13
REMARK    6  A    between atoms: N_15  and  C_24
REMARK    7  A    between atoms: C_17  and  C_18
REMARK                            x       y       z     vdW  Elec       q    Type
REMARK                         _______ _______ _______ _____ _____    ______ ____
ROOT
ATOM      1  C   UNL     1       2.411  -1.248   0.000  0.00  0.00    +0.000 A 
ATOM      2  C   UNL     1       1.591  -1.161   0.000  0.00  0.00    +0.000 A 
ATOM      3  C   UNL     1       1.255  -0.408   0.000  0.00  0.00    +0.000 A 
ATOM      4  C   UNL     1       1.740   0.260   0.000  0.00  0.00    +0.000 A 
ATOM      5  C   UNL     1       2.560   0.173   0.000  0.00  0.00    +0.000 A 
ATOM      6  N   UNL     1       2.896  -0.580   0.000  0.00  0.00    +0.000 NA
ENDROOT
BRANCH   1   7
ATOM      7  N   UNL     1       2.747  -2.001   0.000  0.00  0.00    +0.000 NA
BRANCH   7  10
ATOM      8  C   UNL     1       4.723  -2.928   0.000  0.00  0.00    +0.000 A 
ATOM      9  C   UNL     1       3.903  -2.841   0.000  0.00  0.00    +0.000 A 
ATOM     10  C   UNL     1       3.567  -2.088   0.000  0.00  0.00    +0.000 A 
ATOM     11  C   UNL     1       4.052  -1.420   0.000  0.00  0.00    +0.000 A 
ATOM     12  C   UNL     1       4.872  -1.506   0.000  0.00  0.00    +0.000 A 
ATOM     13  N   UNL     1       5.208  -2.260   0.000  0.00  0.00    +0.000 NA
BRANCH   8  15
ATOM     14  C   UNL     1       5.394  -4.435   0.000  0.00  0.00    +0.000 C 
ATOM     15  C   UNL     1       5.059  -3.681   0.000  0.00  0.00    +0.000 C 
ATOM     16  C   UNL     1       5.812  -3.346   0.000  0.00  0.00    +0.000 C 
ATOM     17  O   UNL     1       4.305  -4.017   0.000  0.00  0.00    +0.000 OA
ENDBRANCH   8  15
ENDBRANCH   7  10
ENDBRANCH   1   7
BRANCH   3  18
ATOM     18  O   UNL     1       0.434  -0.322   0.000  0.00  0.00    +0.000 OA
BRANCH  18  19
ATOM     19  C   UNL     1      -0.050  -0.989   0.000  0.00  0.00    +0.000 A 
ATOM     20  C   UNL     1       0.204  -1.774   0.000  0.00  0.00    +0.000 A 
ATOM     21  N   UNL     1      -0.463  -2.259   0.000  0.00  0.00    +0.000 N 
ATOM     22  N   UNL     1      -1.130  -1.774   0.000  0.00  0.00    +0.000 NA
ATOM     23  C   UNL     1      -0.875  -0.989   0.000  0.00  0.00    +0.000 A 
BRANCH  23  24
ATOM     24  C   UNL     1      -1.360  -0.322   0.000  0.00  0.00    +0.000 C 
ATOM     25  C   UNL     1      -2.181  -0.408   0.000  0.00  0.00    +0.000 C 
ATOM     26  C   UNL     1      -2.666   0.260   0.000  0.00  0.00    +0.000 C 
ATOM     27  O   UNL     1      -2.330   1.013   0.000  0.00  0.00    +0.000 OA
ATOM     28  C   UNL     1      -1.510   1.100   0.000  0.00  0.00    +0.000 C 
ATOM     29  C   UNL     1      -1.025   0.432   0.000  0.00  0.00    +0.000 C 
ENDBRANCH  23  24
BRANCH  21  30
ATOM     30  C   UNL     1      -0.463  -3.083   0.000  0.00  0.00    +0.000 C 
ATOM     31  C   UNL     1      -0.050  -3.798   0.000  0.00  0.00    +0.000 C 
ATOM     32  C   UNL     1      -0.875  -3.798   0.000  0.00  0.00    +0.000 C 
ENDBRANCH  21  30
ENDBRANCH  18  19
ENDBRANCH   3  18
TORSDOF 7
