REMARK  Name = 
REMARK  9 active torsions:
REMARK  status: ('A' for Active; 'I' for Inactive)
REMARK    1  A    between atoms: C_3  and  C_31
REMARK    2  A    between atoms: N_7  and  C_8
REMARK    3  A    between atoms: C_8  and  C_9
REMARK    4  A    between atoms: C_11  and  C_27
REMARK    5  A    between atoms: C_14  and  C_15
REMARK    6  A    between atoms: C_17  and  C_24
REMARK    7  A    between atoms: C_20  and  O_21
REMARK    8  A    between atoms: C_33  and  C_41
REMARK    9  A    between atoms: C_35  and  C_37
REMARK                            x       y       z     vdW  Elec       q    Type
REMARK                         _______ _______ _______ _____ _____    ______ ____
ROOT
ATOM      1  C   UNL     1      -0.738  -1.468   0.000  0.00  0.00    +0.000 C 
ENDROOT
BRANCH   1   8
ATOM      2  C   UNL     1       0.715  -0.412   0.000  0.00  0.00    +0.000 C 
ATOM      3  C   UNL     1       0.715  -1.238   0.000  0.00  0.00    +0.000 C 
ATOM      4  C   UNL     1       1.382  -1.722   0.000  0.00  0.00    +0.000 C 
ATOM      5  O   UNL     1       1.127  -2.507   0.000  0.00  0.00    +0.000 OA
ATOM      6  C   UNL     1       0.302  -2.507   0.000  0.00  0.00    +0.000 C 
ATOM      7  O   UNL     1      -0.183  -3.175   0.000  0.00  0.00    +0.000 OA
ATOM      8  N   UNL     1       0.047  -1.722   0.000  0.00  0.00    +0.000 N 
BRANCH   4   9
ATOM      9  C   UNL     1       2.167  -1.468   0.000  0.00  0.00    +0.000 A 
ATOM     10  C   UNL     1       2.338  -0.660   0.000  0.00  0.00    +0.000 A 
ATOM     11  C   UNL     1       3.123  -0.406   0.000  0.00  0.00    +0.000 A 
ATOM     12  C   UNL     1       3.736  -0.958   0.000  0.00  0.00    +0.000 A 
ATOM     13  C   UNL     1       3.564  -1.765   0.000  0.00  0.00    +0.000 A 
ATOM     14  C   UNL     1       2.780  -2.019   0.000  0.00  0.00    +0.000 A 
BRANCH  11  15
ATOM     15  C   UNL     1       3.294   0.401   0.000  0.00  0.00    +0.000 C 
ATOM     16  F   UNL     1       3.466   1.208   0.000  0.00  0.00    +0.000 F 
ATOM     17  F   UNL     1       4.101   0.230   0.000  0.00  0.00    +0.000 F 
ATOM     18  F   UNL     1       2.487   0.573   0.000  0.00  0.00    +0.000 F 
ENDBRANCH  11  15
BRANCH  13  19
ATOM     19  C   UNL     1       4.177  -2.317   0.000  0.00  0.00    +0.000 C 
ATOM     20  F   UNL     1       4.790  -2.869   0.000  0.00  0.00    +0.000 F 
ATOM     21  F   UNL     1       3.625  -2.930   0.000  0.00  0.00    +0.000 F 
ATOM     22  F   UNL     1       4.729  -1.704   0.000  0.00  0.00    +0.000 F 
ENDBRANCH  13  19
ENDBRANCH   4   9
ENDBRANCH   1   8
BRANCH   1  23
ATOM     23  C   UNL     1      -1.351  -2.019   0.000  0.00  0.00    +0.000 A 
ATOM     24  C   UNL     1      -1.179  -2.826   0.000  0.00  0.00    +0.000 A 
ATOM     25  C   UNL     1      -1.792  -3.378   0.000  0.00  0.00    +0.000 A 
ATOM     26  C   UNL     1      -2.577  -3.124   0.000  0.00  0.00    +0.000 A 
ATOM     27  C   UNL     1      -2.748  -2.317   0.000  0.00  0.00    +0.000 A 
ATOM     28  C   UNL     1      -2.135  -1.765   0.000  0.00  0.00    +0.000 A 
BRANCH  28  29
ATOM     29  C   UNL     1      -2.307  -0.958   0.000  0.00  0.00    +0.000 A 
ATOM     30  C   UNL     1      -3.091  -0.703   0.000  0.00  0.00    +0.000 A 
ATOM     31  C   UNL     1      -3.263   0.104   0.000  0.00  0.00    +0.000 A 
ATOM     32  C   UNL     1      -2.650   0.656   0.000  0.00  0.00    +0.000 A 
ATOM     33  C   UNL     1      -1.865   0.401   0.000  0.00  0.00    +0.000 A 
ATOM     34  C   UNL     1      -1.694  -0.406   0.000  0.00  0.00    +0.000 A 
ATOM     35  F   UNL     1      -2.821   1.463   0.000  0.00  0.00    +0.000 F 
BRANCH  31  36
ATOM     36  C   UNL     1      -4.048   0.359   0.000  0.00  0.00    +0.000 C 
ATOM     37  C   UNL     1      -4.219   1.166   0.000  0.00  0.00    +0.000 C 
ATOM     38  C   UNL     1      -4.661  -0.193   0.000  0.00  0.00    +0.000 C 
ENDBRANCH  31  36
BRANCH  34  39
ATOM     39  O   UNL     1      -0.909  -0.660   0.000  0.00  0.00    +0.000 OA
ATOM     40  C   UNL     1      -0.296  -0.108   0.000  0.00  0.00    +0.000 C 
ENDBRANCH  34  39
ENDBRANCH  28  29
BRANCH  25  41
ATOM     41  C   UNL     1      -1.621  -4.186   0.000  0.00  0.00    +0.000 C 
ATOM     42  F   UNL     1      -1.449  -4.992   0.000  0.00  0.00    +0.000 F 
ATOM     43  F   UNL     1      -2.428  -4.357   0.000  0.00  0.00    +0.000 F 
ATOM     44  F   UNL     1      -0.814  -4.014   0.000  0.00  0.00    +0.000 F 
ENDBRANCH  25  41
ENDBRANCH   1  23
TORSDOF 9
