REMARK  Name = 
REMARK  2 active torsions:
REMARK  status: ('A' for Active; 'I' for Inactive)
REMARK    1  A    between atoms: C_5  and  C_34
REMARK    2  A    between atoms: C_22  and  C_28
REMARK                            x       y       z     vdW  Elec       q    Type
REMARK                         _______ _______ _______ _____ _____    ______ ____
ROOT
ATOM      1  C   UNL     1       3.189   1.841   0.000  0.00  0.00    +0.000 C 
ATOM      2  C   UNL     1       3.602   1.127   0.000  0.00  0.00    +0.000 C 
ATOM      3  C   UNL     1       4.014   1.841   0.000  0.00  0.00    +0.000 C 
ATOM      4  C   UNL     1       4.840   1.841   0.000  0.00  0.00    +0.000 C 
ATOM      5  C   UNL     1       5.252   1.127   0.000  0.00  0.00    +0.000 C 
ATOM      6  C   UNL     1       6.077   1.127   0.000  0.00  0.00    +0.000 C 
ATOM      7  C   UNL     1       6.489   0.412   0.000  0.00  0.00    +0.000 C 
ATOM      8  C   UNL     1       6.077  -0.302   0.000  0.00  0.00    +0.000 C 
ATOM      9  C   UNL     1       5.252  -0.302   0.000  0.00  0.00    +0.000 C 
ATOM     10  C   UNL     1       4.840   0.412   0.000  0.00  0.00    +0.000 C 
ATOM     11  C   UNL     1       4.014   0.412   0.000  0.00  0.00    +0.000 C 
ATOM     12  C   UNL     1       3.602  -0.302   0.000  0.00  0.00    +0.000 C 
ATOM     13  O   UNL     1       4.014  -1.016   0.000  0.00  0.00    +0.000 OA
ATOM     14  C   UNL     1       2.777  -0.302   0.000  0.00  0.00    +0.000 C 
ATOM     15  C   UNL     1       2.365   0.412   0.000  0.00  0.00    +0.000 C 
ATOM     16  C   UNL     1       2.777   1.127   0.000  0.00  0.00    +0.000 C 
ATOM     17  C   UNL     1       2.365   1.841   0.000  0.00  0.00    +0.000 C 
ATOM     18  C   UNL     1       1.540   1.841   0.000  0.00  0.00    +0.000 C 
ATOM     19  C   UNL     1       1.127   1.127   0.000  0.00  0.00    +0.000 C 
ATOM     20  C   UNL     1       1.540   0.412   0.000  0.00  0.00    +0.000 C 
ATOM     21  C   UNL     1       1.127  -0.302   0.000  0.00  0.00    +0.000 C 
ATOM     22  C   UNL     1       0.302  -0.302   0.000  0.00  0.00    +0.000 C 
ATOM     23  C   UNL     1      -0.111   0.412   0.000  0.00  0.00    +0.000 C 
ATOM     24  O   UNL     1      -0.935   0.412   0.000  0.00  0.00    +0.000 OA
ATOM     25  C   UNL     1       0.302   1.127   0.000  0.00  0.00    +0.000 C 
ATOM     26  C   UNL     1      -0.398   1.564   0.000  0.00  0.00    +0.000 C 
ATOM     27  C   UNL     1       0.273   1.952   0.000  0.00  0.00    +0.000 C 
ATOM     28  C   UNL     1       1.952  -0.302   0.000  0.00  0.00    +0.000 C 
ATOM     29  C   UNL     1       2.691   1.948   0.000  0.00  0.00    +0.000 C 
ATOM     30  C   UNL     1       6.106  -1.127   0.000  0.00  0.00    +0.000 C 
ATOM     31  C   UNL     1       6.777  -0.739   0.000  0.00  0.00    +0.000 C 
ENDROOT
BRANCH   5  32
ATOM     32  C   UNL     1       5.665   1.841   0.000  0.00  0.00    +0.000 C 
ATOM     33  O   UNL     1       5.252   2.556   0.000  0.00  0.00    +0.000 OA
ATOM     34  O   UNL     1       6.489   1.841   0.000  0.00  0.00    +0.000 OA
ENDBRANCH   5  32
BRANCH  22  35
ATOM     35  C   UNL     1      -0.111  -1.016   0.000  0.00  0.00    +0.000 C 
ATOM     36  N   UNL     1      -0.523  -1.731   0.000  0.00  0.00    +0.000 NA
ENDBRANCH  22  35
TORSDOF 2
