REMARK  Name = 
REMARK  6 active torsions:
REMARK  status: ('A' for Active; 'I' for Inactive)
REMARK    1  A    between atoms: C_5  and  C_6
REMARK    2  A    between atoms: C_6  and  S_7
REMARK    3  A    between atoms: S_7  and  C_8
REMARK    4  A    between atoms: C_8  and  C_9
REMARK    5  A    between atoms: C_9  and  N_10
REMARK    6  A    between atoms: N_14  and  C_15
REMARK                            x       y       z     vdW  Elec       q    Type
REMARK                         _______ _______ _______ _____ _____    ______ ____
ROOT
ATOM      1  C   UNL     1       0.465  -1.137   0.000  0.00  0.00    +0.000 C 
ENDROOT
BRANCH   1   2
ATOM      2  S   UNL     1       1.357  -0.683   0.000  0.00  0.00    +0.000 S 
BRANCH   2   3
ATOM      3  C   UNL     1       2.225  -1.190   0.000  0.00  0.00    +0.000 C 
BRANCH   3   8
ATOM      4  N   UNL     1       3.256   0.568   0.000  0.00  0.00    +0.000 NA
ATOM      5  C   UNL     1       3.909   0.094   0.000  0.00  0.00    +0.000 A 
ATOM      6  N   UNL     1       3.659  -0.674   0.000  0.00  0.00    +0.000 NA
ATOM      7  C   UNL     1       2.603   0.094   0.000  0.00  0.00    +0.000 A 
ATOM      8  C   UNL     1       2.852  -0.674   0.000  0.00  0.00    +0.000 A 
ATOM      9  C   UNL     1       1.810   0.324   0.000  0.00  0.00    +0.000 C 
ENDBRANCH   3   8
ENDBRANCH   2   3
ENDBRANCH   1   2
BRANCH   1  10
ATOM     10  C   UNL     1      -0.372  -0.637   0.000  0.00  0.00    +0.000 C 
BRANCH  10  11
ATOM     11  N   UNL     1      -1.164  -1.090   0.000  0.00  0.00    +0.000 NA
ATOM     12  C   UNL     1      -2.010  -0.637   0.000  0.00  0.00    +0.000 C 
ATOM     13  N   UNL     1      -2.971  -1.090   0.000  0.00  0.00    +0.000 NA
ATOM     14  C   UNL     1      -3.909  -0.660   0.000  0.00  0.00    +0.000 C 
ATOM     15  N   UNL     1      -2.010   0.278   0.000  0.00  0.00    +0.000 NA
BRANCH  15  16
ATOM     16  C   UNL     1      -1.220   0.734   0.000  0.00  0.00    +0.000 C 
ATOM     17  N   UNL     1      -0.429   1.190   0.000  0.00  0.00    +0.000 NA
ENDBRANCH  15  16
ENDBRANCH  10  11
ENDBRANCH   1  10
TORSDOF 6
