REMARK  Name = 
REMARK  15 active torsions:
REMARK  status: ('A' for Active; 'I' for Inactive)
REMARK    1  A    between atoms: O_2  and  C_3
REMARK    2  A    between atoms: C_4  and  O_5
REMARK    3  A    between atoms: O_5  and  P_6
REMARK    4  A    between atoms: P_6  and  O_8
REMARK    5  A    between atoms: P_6  and  S_26
REMARK    6  A    between atoms: O_8  and  C_9
REMARK    7  A    between atoms: C_9  and  C_10
REMARK    8  A    between atoms: C_12  and  N_16
REMARK    9  A    between atoms: S_26  and  C_27
REMARK   10  A    between atoms: C_27  and  O_28
REMARK   11  A    between atoms: O_28  and  C_29
REMARK   12  A    between atoms: C_29  and  O_31
REMARK   13  A    between atoms: O_31  and  C_32
REMARK   14  A    between atoms: C_35  and  C_36
REMARK   15  A    between atoms: C_39  and  N_40
REMARK                            x       y       z     vdW  Elec       q    Type
REMARK                         _______ _______ _______ _____ _____    ______ ____
ROOT
ATOM      1  P   UNL     1      -3.272   2.468   0.000  0.00  0.00    +0.000 P 
ATOM      2  O   UNL     1      -3.756   1.801   0.000  0.00  0.00    +0.000 OA
ENDROOT
BRANCH   1   3
ATOM      3  O   UNL     1      -2.604   1.983   0.000  0.00  0.00    +0.000 OA
BRANCH   3   4
ATOM      4  C   UNL     1      -1.851   2.319   0.000  0.00  0.00    +0.000 C 
BRANCH   4   5
ATOM      5  C   UNL     1      -1.183   1.834   0.000  0.00  0.00    +0.000 C 
ATOM      6  O   UNL     1      -1.183   1.009   0.000  0.00  0.00    +0.000 OA
ATOM      7  C   UNL     1      -0.398   0.754   0.000  0.00  0.00    +0.000 C 
ATOM      8  C   UNL     1       0.086   1.422   0.000  0.00  0.00    +0.000 C 
ATOM      9  C   UNL     1      -0.398   2.089   0.000  0.00  0.00    +0.000 C 
ATOM     10  O   UNL     1      -0.143   2.874   0.000  0.00  0.00    +0.000 OA
BRANCH   7  11
ATOM     11  N   UNL     1      -0.143  -0.030   0.000  0.00  0.00    +0.000 N 
ATOM     12  C   UNL     1      -0.628  -0.698   0.000  0.00  0.00    +0.000 A 
ATOM     13  N   UNL     1      -0.143  -1.365   0.000  0.00  0.00    +0.000 NA
ATOM     14  C   UNL     1       0.641  -1.110   0.000  0.00  0.00    +0.000 A 
ATOM     15  C   UNL     1       0.641  -0.285   0.000  0.00  0.00    +0.000 A 
ATOM     16  N   UNL     1       1.356   0.127   0.000  0.00  0.00    +0.000 NA
ATOM     17  C   UNL     1       2.070  -0.285   0.000  0.00  0.00    +0.000 A 
ATOM     18  N   UNL     1       2.070  -1.110   0.000  0.00  0.00    +0.000 NA
ATOM     19  C   UNL     1       1.356  -1.523   0.000  0.00  0.00    +0.000 A 
ATOM     20  N   UNL     1       1.356  -2.348   0.000  0.00  0.00    +0.000 NA
ENDBRANCH   7  11
ENDBRANCH   4   5
ENDBRANCH   3   4
ENDBRANCH   1   3
BRANCH   1  21
ATOM     21  O   UNL     1      -3.939   2.953   0.000  0.00  0.00    +0.000 OA
BRANCH  21  23
ATOM     22  C   UNL     1      -4.864   1.811   0.000  0.00  0.00    +0.000 C 
ATOM     23  C   UNL     1      -4.693   2.618   0.000  0.00  0.00    +0.000 C 
ATOM     24  C   UNL     1      -5.407   3.030   0.000  0.00  0.00    +0.000 C 
ATOM     25  O   UNL     1      -6.020   2.478   0.000  0.00  0.00    +0.000 OA
ATOM     26  C   UNL     1      -5.685   1.724   0.000  0.00  0.00    +0.000 C 
BRANCH  26  27
ATOM     27  N   UNL     1      -6.097   1.010   0.000  0.00  0.00    +0.000 N 
ATOM     28  C   UNL     1      -5.685   0.296   0.000  0.00  0.00    +0.000 A 
ATOM     29  C   UNL     1      -6.097  -0.419   0.000  0.00  0.00    +0.000 A 
ATOM     30  C   UNL     1      -6.922  -0.419   0.000  0.00  0.00    +0.000 A 
ATOM     31  O   UNL     1      -7.335  -1.133   0.000  0.00  0.00    +0.000 OA
ATOM     32  N   UNL     1      -7.335   0.296   0.000  0.00  0.00    +0.000 NA
ATOM     33  C   UNL     1      -6.922   1.010   0.000  0.00  0.00    +0.000 A 
ATOM     34  O   UNL     1      -7.335   1.724   0.000  0.00  0.00    +0.000 OA
ENDBRANCH  26  27
BRANCH  22  36
ATOM     35  C   UNL     1      -4.567   0.413   0.000  0.00  0.00    +0.000 C 
ATOM     36  O   UNL     1      -4.312   1.198   0.000  0.00  0.00    +0.000 OA
ENDBRANCH  22  36
BRANCH  24  37
ATOM     37  C   UNL     1      -5.493   3.851   0.000  0.00  0.00    +0.000 C 
ATOM     38  O   UNL     1      -4.826   4.336   0.000  0.00  0.00    +0.000 OA
ENDBRANCH  24  37
ENDBRANCH  21  23
ENDBRANCH   1  21
BRANCH   1  39
ATOM     39  S   UNL     1      -2.787   3.136   0.000  0.00  0.00    +0.000 S 
BRANCH  39  40
ATOM     40  C   UNL     1      -3.122   3.889   0.000  0.00  0.00    +0.000 C 
BRANCH  40  41
ATOM     41  O   UNL     1      -2.637   4.557   0.000  0.00  0.00    +0.000 OA
BRANCH  41  42
ATOM     42  C   UNL     1      -2.973   5.311   0.000  0.00  0.00    +0.000 C 
ATOM     43  O   UNL     1      -3.793   5.397   0.000  0.00  0.00    +0.000 OA
BRANCH  42  44
ATOM     44  O   UNL     1      -2.488   5.978   0.000  0.00  0.00    +0.000 OA
BRANCH  44  45
ATOM     45  C   UNL     1      -2.824   6.732   0.000  0.00  0.00    +0.000 C 
ATOM     46  C   UNL     1      -3.644   6.818   0.000  0.00  0.00    +0.000 C 
ATOM     47  C   UNL     1      -2.339   7.399   0.000  0.00  0.00    +0.000 C 
ENDBRANCH  44  45
ENDBRANCH  42  44
ENDBRANCH  41  42
ENDBRANCH  40  41
ENDBRANCH  39  40
ENDBRANCH   1  39
TORSDOF 15
