REMARK  Name = 
REMARK  3 active torsions:
REMARK  status: ('A' for Active; 'I' for Inactive)
REMARK    1  A    between atoms: O_2  and  C_3
REMARK    2  A    between atoms: N_8  and  C_9
REMARK    3  A    between atoms: O_17  and  S_18
REMARK                            x       y       z     vdW  Elec       q    Type
REMARK                         _______ _______ _______ _____ _____    ______ ____
ROOT
ATOM      1  C   UNL     1       0.810   0.138   0.000  0.00  0.00    +0.000 A 
ATOM      2  C   UNL     1       1.524  -0.275   0.000  0.00  0.00    +0.000 A 
ATOM      3  C   UNL     1       1.524  -1.100   0.000  0.00  0.00    +0.000 A 
ATOM      4  C   UNL     1       0.810  -1.512   0.000  0.00  0.00    +0.000 A 
ATOM      5  N   UNL     1       0.095  -1.100   0.000  0.00  0.00    +0.000 NA
ATOM      6  N   UNL     1       0.095  -0.275   0.000  0.00  0.00    +0.000 N 
ATOM      7  N   UNL     1       2.239  -1.512   0.000  0.00  0.00    +0.000 NA
ENDROOT
BRANCH   6   8
ATOM      8  C   UNL     1      -0.619   0.138   0.000  0.00  0.00    +0.000 A 
ATOM      9  C   UNL     1      -1.334  -0.275   0.000  0.00  0.00    +0.000 A 
ATOM     10  C   UNL     1      -2.048   0.138   0.000  0.00  0.00    +0.000 A 
ATOM     11  C   UNL     1      -2.048   0.963   0.000  0.00  0.00    +0.000 A 
ATOM     12  C   UNL     1      -1.334   1.375   0.000  0.00  0.00    +0.000 A 
ATOM     13  C   UNL     1      -0.619   0.963   0.000  0.00  0.00    +0.000 A 
ENDBRANCH   6   8
BRANCH   1  15
ATOM     14  C   UNL     1       0.095   1.375   0.000  0.00  0.00    +0.000 C 
ATOM     15  O   UNL     1       0.810   0.963   0.000  0.00  0.00    +0.000 OA
ENDBRANCH   1  15
TORSDOF 2
REMARK  Name = 
REMARK  3 active torsions:
REMARK  status: ('A' for Active; 'I' for Inactive)
REMARK    1  A    between atoms: O_2  and  C_3
REMARK    2  A    between atoms: N_8  and  C_9
REMARK    3  A    between atoms: O_17  and  S_18
REMARK                            x       y       z     vdW  Elec       q    Type
REMARK                         _______ _______ _______ _____ _____    ______ ____
ROOT
ATOM      1  S   UNL     1       5.310   0.206   0.000  0.00  0.00    +0.000 S 
ATOM      2  O   UNL     1       5.310   1.031   0.000  0.00  0.00    +0.000 OA
ATOM      3  O   UNL     1       6.135   0.206   0.000  0.00  0.00    +0.000 OA
ATOM      4  O   UNL     1       4.485   0.206   0.000  0.00  0.00    +0.000 OA
ENDROOT
BRANCH   1   6
ATOM      5  C   UNL     1       4.596  -1.031   0.000  0.00  0.00    +0.000 C 
ATOM      6  O   UNL     1       5.310  -0.619   0.000  0.00  0.00    +0.000 OA
ENDBRANCH   1   6
TORSDOF 1
