REMARK  Name = 
REMARK  7 active torsions:
REMARK  status: ('A' for Active; 'I' for Inactive)
REMARK    1  A    between atoms: C_2  and  C_17
REMARK    2  A    between atoms: C_5  and  C_7
REMARK    3  A    between atoms: C_10  and  C_13
REMARK    4  A    between atoms: C_13  and  C_14
REMARK    5  A    between atoms: C_20  and  N_23
REMARK    6  A    between atoms: N_23  and  C_24
REMARK    7  A    between atoms: C_27  and  C_30
REMARK                            x       y       z     vdW  Elec       q    Type
REMARK                         _______ _______ _______ _____ _____    ______ ____
ROOT
ATOM      1  C   UNL     1       4.287  -4.950   0.000  0.00  0.00    +0.000 A 
ATOM      2  N   UNL     1       5.001  -5.362   0.000  0.00  0.00    +0.000 NA
ATOM      3  C   UNL     1       5.001  -6.188   0.000  0.00  0.00    +0.000 A 
ATOM      4  C   UNL     1       4.287  -6.600   0.000  0.00  0.00    +0.000 A 
ATOM      5  C   UNL     1       3.572  -6.188   0.000  0.00  0.00    +0.000 A 
ATOM      6  C   UNL     1       3.572  -5.362   0.000  0.00  0.00    +0.000 A 
ENDROOT
BRANCH   1   8
ATOM      7  C   UNL     1       5.001  -3.712   0.000  0.00  0.00    +0.000 A 
ATOM      8  C   UNL     1       4.287  -4.125   0.000  0.00  0.00    +0.000 A 
ATOM      9  C   UNL     1       3.572  -3.712   0.000  0.00  0.00    +0.000 A 
ATOM     10  C   UNL     1       3.572  -2.888   0.000  0.00  0.00    +0.000 A 
ATOM     11  C   UNL     1       4.287  -2.475   0.000  0.00  0.00    +0.000 A 
ATOM     12  C   UNL     1       5.001  -2.888   0.000  0.00  0.00    +0.000 A 
BRANCH  11  13
ATOM     13  C   UNL     1       4.287  -1.650   0.000  0.00  0.00    +0.000 C 
ATOM     14  C   UNL     1       3.572  -1.238   0.000  0.00  0.00    +0.000 C 
ATOM     15  C   UNL     1       3.572  -0.412   0.000  0.00  0.00    +0.000 C 
ATOM     16  C   UNL     1       4.287   0.000   0.000  0.00  0.00    +0.000 C 
ATOM     17  C   UNL     1       5.001  -0.412   0.000  0.00  0.00    +0.000 C 
ATOM     18  C   UNL     1       5.001  -1.238   0.000  0.00  0.00    +0.000 C 
BRANCH  16  19
ATOM     19  C   UNL     1       4.287   0.825   0.000  0.00  0.00    +0.000 C 
BRANCH  19  20
ATOM     20  C   UNL     1       5.001   1.238   0.000  0.00  0.00    +0.000 C 
ATOM     21  O   UNL     1       5.001   2.062   0.000  0.00  0.00    +0.000 OA
ATOM     22  O   UNL     1       5.716   0.825   0.000  0.00  0.00    +0.000 OA
ENDBRANCH  19  20
ENDBRANCH  16  19
ENDBRANCH  11  13
ENDBRANCH   1   8
BRANCH   4  23
ATOM     23  N   UNL     1       4.287  -7.425   0.000  0.00  0.00    +0.000 NA
BRANCH  23  24
ATOM     24  C   UNL     1       3.572  -7.838   0.000  0.00  0.00    +0.000 A 
ATOM     25  C   UNL     1       3.572  -8.662   0.000  0.00  0.00    +0.000 A 
ATOM     26  N   UNL     1       2.858  -9.075   0.000  0.00  0.00    +0.000 NA
ATOM     27  C   UNL     1       2.143  -8.662   0.000  0.00  0.00    +0.000 A 
ATOM     28  C   UNL     1       2.143  -7.838   0.000  0.00  0.00    +0.000 A 
ATOM     29  C   UNL     1       2.858  -7.425   0.000  0.00  0.00    +0.000 A 
BRANCH  27  30
ATOM     30  C   UNL     1       1.429  -9.075   0.000  0.00  0.00    +0.000 C 
ATOM     31  F   UNL     1       0.715  -9.488   0.000  0.00  0.00    +0.000 F 
ATOM     32  F   UNL     1       1.016  -8.361   0.000  0.00  0.00    +0.000 F 
ATOM     33  F   UNL     1       1.841  -9.790   0.000  0.00  0.00    +0.000 F 
ENDBRANCH  27  30
ENDBRANCH  23  24
ENDBRANCH   4  23
TORSDOF 7
