REMARK  Name = 
REMARK  0 active torsions:
REMARK  status: ('A' for Active; 'I' for Inactive)
REMARK                            x       y       z     vdW  Elec       q    Type
REMARK                         _______ _______ _______ _____ _____    ______ ____
ROOT
ATOM      1  N   UNL     1       0.356  -0.618   0.000  0.00  0.00    +0.000 NA
ATOM      2  C   UNL     1      -0.360  -0.206   0.000  0.00  0.00    +0.000 C 
ATOM      3  N   UNL     1      -1.071  -0.618   0.000  0.00  0.00    +0.000 NA
ATOM      4  N   UNL     1      -0.360   0.618   0.000  0.00  0.00    +0.000 NA
ATOM      5  N   UNL     1       1.071  -0.206   0.000  0.00  0.00    +0.000 NA
ENDROOT
TORSDOF 0
