REMARK  Name = 
REMARK  7 active torsions:
REMARK  status: ('A' for Active; 'I' for Inactive)
REMARK    1  A    between atoms: C_1  and  C_2
REMARK    2  A    between atoms: C_6  and  O_8
REMARK    3  A    between atoms: O_8  and  C_9
REMARK    4  A    between atoms: C_9  and  C_10
REMARK    5  A    between atoms: C_9  and  C_12
REMARK    6  A    between atoms: C_12  and  C_13
REMARK    7  A    between atoms: C_13  and  C_14
REMARK                            x       y       z     vdW  Elec       q    Type
REMARK                         _______ _______ _______ _____ _____    ______ ____
ROOT
ATOM      1  C   UNL     1       0.795   0.715   0.000  0.00  0.00    +0.000 C 
ATOM      2  C   UNL     1       0.383   1.429   0.000  0.00  0.00    +0.000 C 
ATOM      3  C   UNL     1       0.795   2.143   0.000  0.00  0.00    +0.000 C 
ATOM      4  C   UNL     1       1.620   2.143   0.000  0.00  0.00    +0.000 C 
ATOM      5  C   UNL     1       2.033   1.429   0.000  0.00  0.00    +0.000 C 
ATOM      6  O   UNL     1       1.620   0.715   0.000  0.00  0.00    +0.000 OA
ATOM      7  O   UNL     1       2.033   2.858   0.000  0.00  0.00    +0.000 OA
ATOM      8  O   UNL     1       0.383   2.858   0.000  0.00  0.00    +0.000 OA
ATOM      9  O   UNL     1      -0.442   1.429   0.000  0.00  0.00    +0.000 OA
ENDROOT
BRANCH   1  10
ATOM     10  C   UNL     1       0.383   0.000   0.000  0.00  0.00    +0.000 C 
ATOM     11  O   UNL     1       0.795  -0.715   0.000  0.00  0.00    +0.000 OA
ENDBRANCH   1  10
BRANCH   5  12
ATOM     12  O   UNL     1       2.858   1.429   0.000  0.00  0.00    +0.000 OA
BRANCH  12  13
ATOM     13  C   UNL     1       3.270   0.715   0.000  0.00  0.00    +0.000 C 
BRANCH  13  14
ATOM     14  C   UNL     1       2.858   0.000   0.000  0.00  0.00    +0.000 C 
ATOM     15  O   UNL     1       2.033   0.000   0.000  0.00  0.00    +0.000 OA
ENDBRANCH  13  14
BRANCH  13  16
ATOM     16  C   UNL     1       4.095   0.715   0.000  0.00  0.00    +0.000 C 
ATOM     17  O   UNL     1       4.508   1.429   0.000  0.00  0.00    +0.000 OA
BRANCH  16  18
ATOM     18  C   UNL     1       4.508   0.000   0.000  0.00  0.00    +0.000 C 
ATOM     19  O   UNL     1       4.095  -0.715   0.000  0.00  0.00    +0.000 OA
BRANCH  18  20
ATOM     20  C   UNL     1       5.333   0.000   0.000  0.00  0.00    +0.000 C 
ATOM     21  O   UNL     1       5.745  -0.715   0.000  0.00  0.00    +0.000 OA
ENDBRANCH  18  20
ENDBRANCH  16  18
ENDBRANCH  13  16
ENDBRANCH  12  13
ENDBRANCH   5  12
TORSDOF 7
