REMARK  Name = 
REMARK  5 active torsions:
REMARK  status: ('A' for Active; 'I' for Inactive)
REMARK    1  A    between atoms: N_11  and  C_14
REMARK    2  A    between atoms: C_14  and  C_15
REMARK    3  A    between atoms: C_15  and  O_16
REMARK    4  A    between atoms: O_16  and  C_17
REMARK    5  A    between atoms: C_17  and  C_19
REMARK                            x       y       z     vdW  Elec       q    Type
REMARK                         _______ _______ _______ _____ _____    ______ ____
ROOT
ATOM      1  C   UNL     1      -5.940   2.755   0.000  0.00  0.00    +0.000 C 
ATOM      2  N   UNL     1      -5.388   2.142   0.000  0.00  0.00    +0.000 N 
ATOM      3  C   UNL     1      -4.581   2.314   0.000  0.00  0.00    +0.000 A 
ATOM      4  C   UNL     1      -4.029   1.700   0.000  0.00  0.00    +0.000 A 
ATOM      5  C   UNL     1      -4.284   0.916   0.000  0.00  0.00    +0.000 A 
ATOM      6  O   UNL     1      -3.732   0.303   0.000  0.00  0.00    +0.000 OA
ATOM      7  N   UNL     1      -5.091   0.744   0.000  0.00  0.00    +0.000 N 
ATOM      8  C   UNL     1      -5.643   1.357   0.000  0.00  0.00    +0.000 A 
ATOM      9  O   UNL     1      -6.450   1.186   0.000  0.00  0.00    +0.000 OA
ATOM     10  C   UNL     1      -5.346  -0.040   0.000  0.00  0.00    +0.000 C 
ATOM     11  N   UNL     1      -3.276   2.036   0.000  0.00  0.00    +0.000 N 
ATOM     12  C   UNL     1      -3.362   2.857   0.000  0.00  0.00    +0.000 A 
ATOM     13  N   UNL     1      -4.169   3.028   0.000  0.00  0.00    +0.000 NA
ENDROOT
BRANCH  11  14
ATOM     14  C   UNL     1      -2.561   1.624   0.000  0.00  0.00    +0.000 C 
BRANCH  14  15
ATOM     15  C   UNL     1      -1.847   2.036   0.000  0.00  0.00    +0.000 C 
BRANCH  15  16
ATOM     16  O   UNL     1      -1.132   1.624   0.000  0.00  0.00    +0.000 OA
BRANCH  16  17
ATOM     17  C   UNL     1      -0.418   2.036   0.000  0.00  0.00    +0.000 C 
ATOM     18  O   UNL     1      -0.418   2.861   0.000  0.00  0.00    +0.000 OA
BRANCH  17  19
ATOM     19  C   UNL     1       0.297   1.624   0.000  0.00  0.00    +0.000 A 
ATOM     20  C   UNL     1       1.011   2.036   0.000  0.00  0.00    +0.000 A 
ATOM     21  C   UNL     1       1.726   1.624   0.000  0.00  0.00    +0.000 A 
ATOM     22  C   UNL     1       1.726   0.799   0.000  0.00  0.00    +0.000 A 
ATOM     23  N   UNL     1       1.011   0.386   0.000  0.00  0.00    +0.000 NA
ATOM     24  C   UNL     1       0.297   0.799   0.000  0.00  0.00    +0.000 A 
ENDBRANCH  17  19
ENDBRANCH  16  17
ENDBRANCH  15  16
ENDBRANCH  14  15
ENDBRANCH  11  14
TORSDOF 5
