REMARK  Name = 
REMARK  10 active torsions:
REMARK  status: ('A' for Active; 'I' for Inactive)
REMARK    1  A    between atoms: C_2  and  C_7
REMARK    2  A    between atoms: C_7  and  C_14
REMARK    3  A    between atoms: N_8  and  O_9
REMARK    4  A    between atoms: O_9  and  C_10
REMARK    5  A    between atoms: C_10  and  C_11
REMARK    6  A    between atoms: N_16  and  C_17
REMARK    7  A    between atoms: C_18  and  C_26
REMARK    8  A    between atoms: N_19  and  S_22
REMARK    9  A    between atoms: C_26  and  O_27
REMARK   10  A    between atoms: O_27  and  C_28
REMARK                            x       y       z     vdW  Elec       q    Type
REMARK                         _______ _______ _______ _____ _____    ______ ____
ROOT
ATOM      1  C   UNL     1      -0.395  -1.221   0.000  0.00  0.00    +0.000 C 
ATOM      2  O   UNL     1      -1.109  -1.633   0.000  0.00  0.00    +0.000 OA
ATOM      3  N   UNL     1       0.320  -1.633   0.000  0.00  0.00    +0.000 NA
ENDROOT
BRANCH   3   4
ATOM      4  C   UNL     1       0.320  -2.458   0.000  0.00  0.00    +0.000 C 
ATOM      5  C   UNL     1       0.903  -3.042   0.000  0.00  0.00    +0.000 C 
ATOM      6  N   UNL     1       0.320  -3.625   0.000  0.00  0.00    +0.000 N 
ATOM      7  C   UNL     1      -0.264  -3.042   0.000  0.00  0.00    +0.000 C 
ATOM      8  O   UNL     1      -1.089  -3.042   0.000  0.00  0.00    +0.000 OA
BRANCH   6   9
ATOM      9  S   UNL     1       0.320  -4.450   0.000  0.00  0.00    +0.000 S 
ATOM     10  O   UNL     1       0.320  -5.275   0.000  0.00  0.00    +0.000 OA
ATOM     11  O   UNL     1      -0.505  -4.450   0.000  0.00  0.00    +0.000 OA
ATOM     12  O   UNL     1       1.145  -4.450   0.000  0.00  0.00    +0.000 OA
ENDBRANCH   6   9
BRANCH   5  13
ATOM     13  C   UNL     1       1.728  -3.042   0.000  0.00  0.00    +0.000 C 
BRANCH  13  14
ATOM     14  O   UNL     1       2.140  -2.327   0.000  0.00  0.00    +0.000 OA
BRANCH  14  15
ATOM     15  C   UNL     1       2.966  -2.327   0.000  0.00  0.00    +0.000 C 
ATOM     16  O   UNL     1       3.378  -1.613   0.000  0.00  0.00    +0.000 OA
ATOM     17  N   UNL     1       3.378  -3.042   0.000  0.00  0.00    +0.000 NA
ENDBRANCH  14  15
ENDBRANCH  13  14
ENDBRANCH   5  13
ENDBRANCH   3   4
BRANCH   1  18
ATOM     18  C   UNL     1      -0.395  -0.396   0.000  0.00  0.00    +0.000 C 
ATOM     19  N   UNL     1      -1.109   0.017   0.000  0.00  0.00    +0.000 NA
BRANCH  18  21
ATOM     20  C   UNL     1       1.073  -0.319   0.000  0.00  0.00    +0.000 A 
ATOM     21  C   UNL     1       0.320   0.017   0.000  0.00  0.00    +0.000 A 
ATOM     22  N   UNL     1       0.406   0.837   0.000  0.00  0.00    +0.000 NA
ATOM     23  C   UNL     1       1.213   1.009   0.000  0.00  0.00    +0.000 A 
ATOM     24  S   UNL     1       1.625   0.294   0.000  0.00  0.00    +0.000 S 
ATOM     25  N   UNL     1       1.548   1.762   0.000  0.00  0.00    +0.000 NA
ENDBRANCH  18  21
BRANCH  19  26
ATOM     26  O   UNL     1      -1.824  -0.396   0.000  0.00  0.00    +0.000 OA
BRANCH  26  27
ATOM     27  C   UNL     1      -2.538   0.017   0.000  0.00  0.00    +0.000 C 
BRANCH  27  28
ATOM     28  C   UNL     1      -3.253  -0.396   0.000  0.00  0.00    +0.000 C 
ATOM     29  O   UNL     1      -3.967   0.017   0.000  0.00  0.00    +0.000 OA
ATOM     30  O   UNL     1      -3.253  -1.221   0.000  0.00  0.00    +0.000 OA
ENDBRANCH  27  28
ENDBRANCH  26  27
ENDBRANCH  19  26
ENDBRANCH   1  18
TORSDOF 10
