REMARK  Name = 
REMARK  10 active torsions:
REMARK  status: ('A' for Active; 'I' for Inactive)
REMARK    1  A    between atoms: C_5  and  C_11
REMARK    2  A    between atoms: C_6  and  C_12
REMARK    3  A    between atoms: C_13  and  O_25
REMARK    4  A    between atoms: C_14  and  O_26
REMARK    5  A    between atoms: C_15  and  O_27
REMARK    6  A    between atoms: C_16  and  O_29
REMARK    7  A    between atoms: C_17  and  O_28
REMARK    8  A    between atoms: C_18  and  O_30
REMARK    9  A    between atoms: O_29  and  P_31
REMARK   10  A    between atoms: O_30  and  P_32
REMARK                            x       y       z     vdW  Elec       q    Type
REMARK                         _______ _______ _______ _____ _____    ______ ____
ROOT
ATOM      1  C   UNL     1       0.000   0.000   0.000  0.00  0.00    +0.000 A 
ATOM      2  C   UNL     1       0.000   0.825   0.000  0.00  0.00    +0.000 A 
ATOM      3  C   UNL     1       0.714  -0.412   0.000  0.00  0.00    +0.000 A 
ATOM      4  C   UNL     1       0.714   1.238   0.000  0.00  0.00    +0.000 A 
ATOM      5  C   UNL     1       1.429   0.000   0.000  0.00  0.00    +0.000 A 
ATOM      6  C   UNL     1       1.429   0.825   0.000  0.00  0.00    +0.000 A 
ENDROOT
BRANCH   3   8
ATOM      7  C   UNL     1       0.000  -1.650   0.000  0.00  0.00    +0.000 C 
ATOM      8  C   UNL     1       0.714  -1.238   0.000  0.00  0.00    +0.000 C 
BRANCH   7  11
ATOM      9  C   UNL     1      -1.429  -1.650   0.000  0.00  0.00    +0.000 A 
ATOM     10  C   UNL     1      -0.714  -0.412   0.000  0.00  0.00    +0.000 A 
ATOM     11  C   UNL     1      -0.714  -1.238   0.000  0.00  0.00    +0.000 A 
ATOM     12  C   UNL     1      -2.143  -1.238   0.000  0.00  0.00    +0.000 A 
ATOM     13  C   UNL     1      -1.429   0.000   0.000  0.00  0.00    +0.000 A 
ATOM     14  C   UNL     1      -2.143  -0.412   0.000  0.00  0.00    +0.000 A 
BRANCH  14  16
ATOM     15  C   UNL     1      -3.572  -0.412   0.000  0.00  0.00    +0.000 C 
ATOM     16  O   UNL     1      -2.858   0.000   0.000  0.00  0.00    +0.000 OA
ENDBRANCH  14  16
BRANCH  13  18
ATOM     17  C   UNL     1      -2.143   1.238   0.000  0.00  0.00    +0.000 C 
ATOM     18  O   UNL     1      -1.429   0.825   0.000  0.00  0.00    +0.000 OA
ENDBRANCH  13  18
BRANCH  12  20
ATOM     19  C   UNL     1      -3.572  -1.238   0.000  0.00  0.00    +0.000 C 
ATOM     20  O   UNL     1      -2.858  -1.650   0.000  0.00  0.00    +0.000 OA
ENDBRANCH  12  20
ENDBRANCH   7  11
ENDBRANCH   3   8
BRANCH   4  22
ATOM     21  C   UNL     1       0.000   2.475   0.000  0.00  0.00    +0.000 C 
ATOM     22  O   UNL     1       0.714   2.062   0.000  0.00  0.00    +0.000 OA
ENDBRANCH   4  22
BRANCH   5  23
ATOM     23  O   UNL     1       2.143  -0.412   0.000  0.00  0.00    +0.000 OA
BRANCH  23  27
ATOM     24  O   UNL     1       2.968  -1.238   0.000  0.00  0.00    +0.000 OA
ATOM     25  O   UNL     1       1.318  -1.238   0.000  0.00  0.00    +0.000 OA
ATOM     26  O   UNL     1       2.143  -2.062   0.000  0.00  0.00    +0.000 OA
ATOM     27  P   UNL     1       2.143  -1.238   0.000  0.00  0.00    +0.000 P 
ENDBRANCH  23  27
ENDBRANCH   5  23
BRANCH   6  28
ATOM     28  O   UNL     1       2.143   1.238   0.000  0.00  0.00    +0.000 OA
BRANCH  28  32
ATOM     29  O   UNL     1       3.572   0.412   0.000  0.00  0.00    +0.000 OA
ATOM     30  O   UNL     1       3.270   1.539   0.000  0.00  0.00    +0.000 OA
ATOM     31  O   UNL     1       2.445   0.111   0.000  0.00  0.00    +0.000 OA
ATOM     32  P   UNL     1       2.858   0.825   0.000  0.00  0.00    +0.000 P 
ENDBRANCH  28  32
ENDBRANCH   6  28
TORSDOF 10
