REMARK  Name = 
REMARK  15 active torsions:
REMARK  status: ('A' for Active; 'I' for Inactive)
REMARK    1  A    between atoms: P_1  and  O_7
REMARK    2  A    between atoms: P_1  and  O_14
REMARK    3  A    between atoms: P_2  and  O_11
REMARK    4  A    between atoms: P_2  and  O_14
REMARK    5  A    between atoms: P_3  and  O_13
REMARK    6  A    between atoms: O_5  and  C_30
REMARK    7  A    between atoms: O_5  and  C_40
REMARK    8  A    between atoms: O_7  and  C_34
REMARK    9  A    between atoms: O_11  and  C_41
REMARK   10  A    between atoms: O_13  and  C_40
REMARK   11  A    between atoms: N_27  and  C_31
REMARK   12  A    between atoms: N_28  and  C_38
REMARK   13  A    between atoms: C_33  and  C_39
REMARK   14  A    between atoms: C_37  and  C_41
REMARK   15  A    between atoms: C_40  and  C_44
REMARK                            x       y       z     vdW  Elec       q    Type
REMARK                         _______ _______ _______ _____ _____    ______ ____
ROOT
ATOM      1  O   UNL     1       1.222   0.571   0.000  0.00  0.00    +0.000 OA
ENDROOT
BRANCH   1   8
ATOM      2  O   UNL     1       2.651   0.571   0.000  0.00  0.00    +0.000 OA
ATOM      3  O   UNL     1       4.080   2.221   0.000  0.00  0.00    +0.000 OA
ATOM      4  C   UNL     1       2.651   2.221   0.000  0.00  0.00    +0.000 C 
ATOM      5  C   UNL     1       1.937   1.808   0.000  0.00  0.00    +0.000 C 
ATOM      6  C   UNL     1       3.365   1.808   0.000  0.00  0.00    +0.000 C 
ATOM      7  C   UNL     1       3.365   0.983   0.000  0.00  0.00    +0.000 C 
ATOM      8  C   UNL     1       1.937   0.983   0.000  0.00  0.00    +0.000 C 
BRANCH   5  10
ATOM      9  O   UNL     1       0.508   0.983   0.000  0.00  0.00    +0.000 OA
ATOM     10  N   UNL     1       1.222   2.221   0.000  0.00  0.00    +0.000 N 
ATOM     11  C   UNL     1       0.508   1.808   0.000  0.00  0.00    +0.000 C 
ATOM     12  C   UNL     1      -0.207   2.221   0.000  0.00  0.00    +0.000 C 
ATOM     13  H   UNL     1       1.222   2.732   0.000  0.00  0.00    +0.000 HD
ENDBRANCH   5  10
BRANCH   7  15
ATOM     14  O   UNL     1       4.080  -0.254   0.000  0.00  0.00    +0.000 OA
ATOM     15  C   UNL     1       4.080   0.571   0.000  0.00  0.00    +0.000 C 
ENDBRANCH   7  15
BRANCH   4  16
ATOM     16  O   UNL     1       2.651   3.046   0.000  0.00  0.00    +0.000 OA
BRANCH  16  17
ATOM     17  C   UNL     1       3.365   3.458   0.000  0.00  0.00    +0.000 C 
ATOM     18  C   UNL     1       3.778   2.744   0.000  0.00  0.00    +0.000 C 
BRANCH  17  21
ATOM     19  O   UNL     1       2.128   4.173   0.000  0.00  0.00    +0.000 OA
ATOM     20  O   UNL     1       3.365   4.887   0.000  0.00  0.00    +0.000 OA
ATOM     21  C   UNL     1       2.953   4.173   0.000  0.00  0.00    +0.000 C 
ENDBRANCH  17  21
BRANCH  17  22
ATOM     22  O   UNL     1       4.080   3.871   0.000  0.00  0.00    +0.000 OA
BRANCH  22  23
ATOM     23  P   UNL     1       4.794   3.458   0.000  0.00  0.00    +0.000 P 
ATOM     24  O   UNL     1       5.509   3.046   0.000  0.00  0.00    +0.000 OA
ATOM     25  O   UNL     1       5.207   4.173   0.000  0.00  0.00    +0.000 OA
ATOM     26  O   UNL     1       4.382   2.744   0.000  0.00  0.00    +0.000 OA
ENDBRANCH  22  23
ENDBRANCH  17  22
ENDBRANCH  16  17
ENDBRANCH   4  16
ENDBRANCH   1   8
BRANCH   1  27
ATOM     27  P   UNL     1       1.222  -0.254   0.000  0.00  0.00    +0.000 P 
ATOM     28  O   UNL     1       0.397  -0.254   0.000  0.00  0.00    +0.000 OA
ATOM     29  O   UNL     1       2.047  -0.254   0.000  0.00  0.00    +0.000 OA
BRANCH  27  30
ATOM     30  O   UNL     1       1.222  -1.079   0.000  0.00  0.00    +0.000 OA
BRANCH  30  31
ATOM     31  P   UNL     1       0.508  -1.492   0.000  0.00  0.00    +0.000 P 
ATOM     32  O   UNL     1       0.920  -2.206   0.000  0.00  0.00    +0.000 OA
ATOM     33  O   UNL     1       0.095  -0.777   0.000  0.00  0.00    +0.000 OA
BRANCH  31  34
ATOM     34  O   UNL     1      -0.207  -1.904   0.000  0.00  0.00    +0.000 OA
BRANCH  34  35
ATOM     35  C   UNL     1      -0.207  -2.729   0.000  0.00  0.00    +0.000 C 
BRANCH  35  41
ATOM     36  O   UNL     1      -1.675  -2.806   0.000  0.00  0.00    +0.000 OA
ATOM     37  O   UNL     1      -0.394  -4.514   0.000  0.00  0.00    +0.000 OA
ATOM     38  O   UNL     1      -2.150  -4.887   0.000  0.00  0.00    +0.000 OA
ATOM     39  C   UNL     1      -1.008  -3.962   0.000  0.00  0.00    +0.000 C 
ATOM     40  C   UNL     1      -1.815  -4.134   0.000  0.00  0.00    +0.000 C 
ATOM     41  C   UNL     1      -0.921  -3.142   0.000  0.00  0.00    +0.000 C 
ATOM     42  C   UNL     1      -2.227  -3.419   0.000  0.00  0.00    +0.000 C 
BRANCH  42  45
ATOM     43  O   UNL     1      -2.898  -1.912   0.000  0.00  0.00    +0.000 OA
ATOM     44  O   UNL     1      -5.509  -3.074   0.000  0.00  0.00    +0.000 OA
ATOM     45  N   UNL     1      -3.047  -3.333   0.000  0.00  0.00    +0.000 N 
ATOM     46  N   UNL     1      -4.204  -2.493   0.000  0.00  0.00    +0.000 N 
ATOM     47  C   UNL     1      -3.383  -2.579   0.000  0.00  0.00    +0.000 A 
ATOM     48  C   UNL     1      -3.532  -4.000   0.000  0.00  0.00    +0.000 A 
ATOM     49  C   UNL     1      -4.353  -3.914   0.000  0.00  0.00    +0.000 A 
ATOM     50  C   UNL     1      -4.688  -3.160   0.000  0.00  0.00    +0.000 A 
ATOM     51  H   UNL     1      -4.412  -2.026   0.000  0.00  0.00    +0.000 HD
ENDBRANCH  42  45
ENDBRANCH  35  41
ENDBRANCH  34  35
ENDBRANCH  31  34
ENDBRANCH  30  31
ENDBRANCH  27  30
ENDBRANCH   1  27
TORSDOF 15
