REMARK  Name = 
REMARK  7 active torsions:
REMARK  status: ('A' for Active; 'I' for Inactive)
REMARK    1  A    between atoms: O_2  and  C_3
REMARK    2  A    between atoms: C_7  and  C_9
REMARK    3  A    between atoms: C_9  and  C_11
REMARK    4  A    between atoms: C_11  and  O_12
REMARK    5  A    between atoms: O_12  and  C_13
REMARK    6  A    between atoms: C_16  and  C_17
REMARK    7  A    between atoms: C_17  and  C_18
REMARK                            x       y       z     vdW  Elec       q    Type
REMARK                         _______ _______ _______ _____ _____    ______ ____
ROOT
ATOM      1  C   UNL     1       1.536   5.590   0.000  0.00  0.00    +0.000 A 
ATOM      2  C   UNL     1       1.536   4.765   0.000  0.00  0.00    +0.000 A 
ATOM      3  C   UNL     1       0.821   4.353   0.000  0.00  0.00    +0.000 A 
ATOM      4  C   UNL     1       0.107   4.765   0.000  0.00  0.00    +0.000 A 
ATOM      5  C   UNL     1       0.107   5.590   0.000  0.00  0.00    +0.000 A 
ATOM      6  C   UNL     1       0.821   6.003   0.000  0.00  0.00    +0.000 A 
ENDROOT
BRANCH   4   7
ATOM      7  C   UNL     1      -0.608   4.353   0.000  0.00  0.00    +0.000 C 
BRANCH   7   8
ATOM      8  C   UNL     1      -0.608   3.528   0.000  0.00  0.00    +0.000 C 
ATOM      9  S   UNL     1       0.060   3.043   0.000  0.00  0.00    +0.000 S 
ATOM     10  C   UNL     1      -0.195   2.258   0.000  0.00  0.00    +0.000 C 
ATOM     11  O   UNL     1       0.290   1.591   0.000  0.00  0.00    +0.000 OA
ATOM     12  N   UNL     1      -1.020   2.258   0.000  0.00  0.00    +0.000 NA
ATOM     13  C   UNL     1      -1.275   3.043   0.000  0.00  0.00    +0.000 C 
ATOM     14  O   UNL     1      -2.060   3.298   0.000  0.00  0.00    +0.000 OA
ENDBRANCH   7   8
ENDBRANCH   4   7
BRANCH   1  15
ATOM     15  O   UNL     1       2.250   6.003   0.000  0.00  0.00    +0.000 OA
BRANCH  15  16
ATOM     16  C   UNL     1       2.250   6.828   0.000  0.00  0.00    +0.000 C 
BRANCH  16  17
ATOM     17  C   UNL     1       2.965   7.240   0.000  0.00  0.00    +0.000 C 
ATOM     18  O   UNL     1       3.679   6.828   0.000  0.00  0.00    +0.000 OA
BRANCH  17  23
ATOM     19  C   UNL     1       2.250   9.303   0.000  0.00  0.00    +0.000 A 
ATOM     20  C   UNL     1       2.965   9.715   0.000  0.00  0.00    +0.000 A 
ATOM     21  C   UNL     1       3.679   9.303   0.000  0.00  0.00    +0.000 A 
ATOM     22  C   UNL     1       3.679   8.478   0.000  0.00  0.00    +0.000 A 
ATOM     23  C   UNL     1       2.965   8.065   0.000  0.00  0.00    +0.000 A 
ATOM     24  C   UNL     1       2.250   8.478   0.000  0.00  0.00    +0.000 A 
BRANCH  19  26
ATOM     25  C   UNL     1       1.536  10.540   0.000  0.00  0.00    +0.000 C 
ATOM     26  O   UNL     1       1.536   9.715   0.000  0.00  0.00    +0.000 OA
ENDBRANCH  19  26
ENDBRANCH  17  23
ENDBRANCH  16  17
ENDBRANCH  15  16
ENDBRANCH   1  15
TORSDOF 7
