REMARK  Name = 
REMARK  4 active torsions:
REMARK  status: ('A' for Active; 'I' for Inactive)
REMARK    1  A    between atoms: N_7  and  C_8
REMARK    2  A    between atoms: C_8  and  C_9
REMARK    3  A    between atoms: C_12  and  C_15
REMARK    4  A    between atoms: C_15  and  N_16
REMARK                            x       y       z     vdW  Elec       q    Type
REMARK                         _______ _______ _______ _____ _____    ______ ____
ROOT
ATOM      1  C   UNL     1       1.429  -4.125   0.000  0.00  0.00    +0.000 A 
ATOM      2  C   UNL     1       0.715  -3.712   0.000  0.00  0.00    +0.000 A 
ATOM      3  C   UNL     1       0.715  -2.888   0.000  0.00  0.00    +0.000 A 
ATOM      4  C   UNL     1       1.429  -2.475   0.000  0.00  0.00    +0.000 A 
ATOM      5  C   UNL     1       2.143  -2.888   0.000  0.00  0.00    +0.000 A 
ATOM      6  C   UNL     1       2.143  -3.712   0.000  0.00  0.00    +0.000 A 
ENDROOT
BRANCH   1   7
ATOM      7  C   UNL     1       1.429  -4.950   0.000  0.00  0.00    +0.000 C 
BRANCH   7  14
ATOM      8  C   UNL     1       2.143  -7.838   0.000  0.00  0.00    +0.000 A 
ATOM      9  C   UNL     1       1.429  -7.425   0.000  0.00  0.00    +0.000 A 
ATOM     10  N   UNL     1       1.429  -6.600   0.000  0.00  0.00    +0.000 NA
ATOM     11  C   UNL     1       2.143  -6.188   0.000  0.00  0.00    +0.000 A 
ATOM     12  N   UNL     1       2.858  -6.600   0.000  0.00  0.00    +0.000 NA
ATOM     13  C   UNL     1       2.858  -7.425   0.000  0.00  0.00    +0.000 A 
ATOM     14  N   UNL     1       2.143  -5.362   0.000  0.00  0.00    +0.000 NA
ENDBRANCH   7  14
ENDBRANCH   1   7
BRANCH   4  15
ATOM     15  C   UNL     1       1.429  -1.650   0.000  0.00  0.00    +0.000 C 
BRANCH  15  16
ATOM     16  N   UNL     1       0.715  -1.238   0.000  0.00  0.00    +0.000 NA
ATOM     17  C   UNL     1       0.715  -0.412   0.000  0.00  0.00    +0.000 A 
ATOM     18  N   UNL     1       0.000   0.000   0.000  0.00  0.00    +0.000 NA
ATOM     19  C   UNL     1       0.000   0.825   0.000  0.00  0.00    +0.000 A 
ATOM     20  C   UNL     1       0.715   1.238   0.000  0.00  0.00    +0.000 A 
ATOM     21  C   UNL     1       1.429   0.825   0.000  0.00  0.00    +0.000 A 
ATOM     22  N   UNL     1       1.429   0.000   0.000  0.00  0.00    +0.000 NA
ENDBRANCH  15  16
ENDBRANCH   4  15
TORSDOF 4
