REMARK  Name = 
REMARK  5 active torsions:
REMARK  status: ('A' for Active; 'I' for Inactive)
REMARK    1  A    between atoms: C_6  and  C_10
REMARK    2  A    between atoms: C_10  and  O_11
REMARK    3  A    between atoms: O_11  and  C_12
REMARK    4  A    between atoms: C_17  and  O_18
REMARK    5  A    between atoms: N_24  and  C_25
REMARK                            x       y       z     vdW  Elec       q    Type
REMARK                         _______ _______ _______ _____ _____    ______ ____
ROOT
ATOM      1  C   UNL     1      -0.715  -1.238   0.000  0.00  0.00    +0.000 A 
ATOM      2  C   UNL     1       0.000  -1.650   0.000  0.00  0.00    +0.000 A 
ATOM      3  C   UNL     1       0.715  -1.238   0.000  0.00  0.00    +0.000 A 
ATOM      4  C   UNL     1       0.715  -0.412   0.000  0.00  0.00    +0.000 A 
ATOM      5  C   UNL     1       0.000   0.000   0.000  0.00  0.00    +0.000 A 
ATOM      6  C   UNL     1      -0.715  -0.412   0.000  0.00  0.00    +0.000 A 
ATOM      7  C   UNL     1       1.429   0.000   0.000  0.00  0.00    +0.000 A 
ATOM      8  N   UNL     1       2.143  -0.412   0.000  0.00  0.00    +0.000 NA
ATOM      9  C   UNL     1       2.143  -1.238   0.000  0.00  0.00    +0.000 A 
ATOM     10  N   UNL     1       1.429  -1.650   0.000  0.00  0.00    +0.000 NA
ATOM     11  N   UNL     1       1.429   0.825   0.000  0.00  0.00    +0.000 NA
ENDROOT
BRANCH  11  12
ATOM     12  C   UNL     1       2.143   1.238   0.000  0.00  0.00    +0.000 A 
ATOM     13  C   UNL     1       2.143   2.062   0.000  0.00  0.00    +0.000 A 
ATOM     14  C   UNL     1       2.858   2.475   0.000  0.00  0.00    +0.000 A 
ATOM     15  C   UNL     1       3.572   2.062   0.000  0.00  0.00    +0.000 A 
ATOM     16  C   UNL     1       3.572   1.238   0.000  0.00  0.00    +0.000 A 
ATOM     17  C   UNL     1       2.858   0.825   0.000  0.00  0.00    +0.000 A 
ATOM     18  F   UNL     1       2.858   0.000   0.000  0.00  0.00    +0.000 F 
ATOM     19 CL   UNL     1       4.287   0.825   0.000  0.00  0.00    +0.000 Cl
ATOM     20 CL   UNL     1       4.287   2.475   0.000  0.00  0.00    +0.000 Cl
ENDBRANCH  11  12
BRANCH   6  21
ATOM     21  O   UNL     1      -1.429   0.000   0.000  0.00  0.00    +0.000 OA
ATOM     22  C   UNL     1      -2.143  -0.412   0.000  0.00  0.00    +0.000 C 
ENDBRANCH   6  21
BRANCH   1  23
ATOM     23  O   UNL     1      -1.429  -1.650   0.000  0.00  0.00    +0.000 OA
BRANCH  23  24
ATOM     24  C   UNL     1      -2.143  -1.238   0.000  0.00  0.00    +0.000 C 
BRANCH  24  30
ATOM     25  C   UNL     1      -5.771  -3.332   0.000  0.00  0.00    +0.000 C 
ATOM     26  N   UNL     1      -5.057  -2.920   0.000  0.00  0.00    +0.000 NA
ATOM     27  C   UNL     1      -4.971  -2.099   0.000  0.00  0.00    +0.000 C 
ATOM     28  C   UNL     1      -4.164  -1.927   0.000  0.00  0.00    +0.000 C 
ATOM     29  C   UNL     1      -3.612  -1.314   0.000  0.00  0.00    +0.000 C 
ATOM     30  C   UNL     1      -2.858  -1.650   0.000  0.00  0.00    +0.000 C 
ATOM     31  C   UNL     1      -2.944  -2.470   0.000  0.00  0.00    +0.000 C 
ATOM     32  C   UNL     1      -3.751  -2.642   0.000  0.00  0.00    +0.000 C 
ATOM     33  C   UNL     1      -4.303  -3.255   0.000  0.00  0.00    +0.000 C 
ENDBRANCH  24  30
ENDBRANCH  23  24
ENDBRANCH   1  23
TORSDOF 5
