REMARK  Name = 
REMARK  3 active torsions:
REMARK  status: ('A' for Active; 'I' for Inactive)
REMARK    1  A    between atoms: C_1  and  C_2
REMARK    2  A    between atoms: C_1  and  C_3
REMARK    3  A    between atoms: C_3  and  C_6
REMARK                            x       y       z     vdW  Elec       q    Type
REMARK                         _______ _______ _______ _____ _____    ______ ____
ROOT
ATOM      1  C   UNL     1       0.727  -0.625   0.000  0.00  0.00    +0.000 C 
ENDROOT
BRANCH   1   2
ATOM      2  C   UNL     1      -0.098  -0.621   0.000  0.00  0.00    +0.000 A 
ATOM      3  C   UNL     1      -1.748  -0.608   0.000  0.00  0.00    +0.000 A 
ATOM      4  C   UNL     1      -0.502   0.100   0.000  0.00  0.00    +0.000 A 
ATOM      5  C   UNL     1      -0.510  -1.325   0.000  0.00  0.00    +0.000 A 
ATOM      6  C   UNL     1      -1.335  -1.325   0.000  0.00  0.00    +0.000 A 
ATOM      7  C   UNL     1      -1.327   0.104   0.000  0.00  0.00    +0.000 A 
ATOM      8  O   UNL     1      -2.573  -0.608   0.000  0.00  0.00    +0.000 OA
ENDBRANCH   1   2
BRANCH   1   9
ATOM      9  C   UNL     1       1.148   0.087   0.000  0.00  0.00    +0.000 C 
ATOM     10  N   UNL     1       0.435   0.500   0.000  0.00  0.00    +0.000 NA
ATOM     11  C   UNL     1       1.552  -0.625   0.000  0.00  0.00    +0.000 C 
BRANCH   9  12
ATOM     12  C   UNL     1       1.860   0.500   0.000  0.00  0.00    +0.000 C 
ATOM     13  O   UNL     1       1.852   1.325   0.000  0.00  0.00    +0.000 OA
ATOM     14  O   UNL     1       2.573   0.092   0.000  0.00  0.00    +0.000 OA
ENDBRANCH   9  12
ENDBRANCH   1   9
TORSDOF 3
