REMARK  Name = 
REMARK  7 active torsions:
REMARK  status: ('A' for Active; 'I' for Inactive)
REMARK    1  A    between atoms: O_4  and  C_27
REMARK    2  A    between atoms: O_4  and  C_30
REMARK    3  A    between atoms: C_10  and  C_19
REMARK    4  A    between atoms: C_19  and  C_27
REMARK    5  A    between atoms: C_30  and  C_31
REMARK    6  A    between atoms: C_31  and  C_32
REMARK    7  A    between atoms: C_32  and  C_33
REMARK                            x       y       z     vdW  Elec       q    Type
REMARK                         _______ _______ _______ _____ _____    ______ ____
ROOT
ATOM      1  O   UNL     1      -2.801  -2.730   0.000  0.00  0.00    +0.000 OA
ATOM      2  O   UNL     1      -0.004  -0.382   0.000  0.00  0.00    +0.000 OA
ATOM      3  O   UNL     1       0.033   3.213   0.000  0.00  0.00    +0.000 OA
ATOM      4  C   UNL     1      -1.981  -1.308   0.000  0.00  0.00    +0.000 C 
ATOM      5  C   UNL     1      -2.466  -1.976   0.000  0.00  0.00    +0.000 C 
ATOM      6  C   UNL     1      -2.466  -0.641   0.000  0.00  0.00    +0.000 C 
ATOM      7  C   UNL     1      -1.310   0.199   0.000  0.00  0.00    +0.000 C 
ATOM      8  C   UNL     1      -2.130   0.113   0.000  0.00  0.00    +0.000 C 
ATOM      9  C   UNL     1      -0.974   0.952   0.000  0.00  0.00    +0.000 C 
ATOM     10  C   UNL     1      -1.160  -1.222   0.000  0.00  0.00    +0.000 C 
ATOM     11  C   UNL     1      -0.825  -0.469   0.000  0.00  0.00    +0.000 C 
ATOM     12  C   UNL     1      -3.250  -1.721   0.000  0.00  0.00    +0.000 C 
ATOM     13  C   UNL     1      -3.250  -0.896   0.000  0.00  0.00    +0.000 C 
ATOM     14  C   UNL     1      -1.459   1.620   0.000  0.00  0.00    +0.000 C 
ATOM     15  C   UNL     1      -2.615   0.780   0.000  0.00  0.00    +0.000 C 
ATOM     16  C   UNL     1      -1.568  -2.023   0.000  0.00  0.00    +0.000 C 
ATOM     17  C   UNL     1      -2.279   1.534   0.000  0.00  0.00    +0.000 C 
ATOM     18  C   UNL     1      -0.153   1.039   0.000  0.00  0.00    +0.000 C 
ATOM     19  C   UNL     1      -0.489   0.285   0.000  0.00  0.00    +0.000 C 
ATOM     20  C   UNL     1      -1.123   2.373   0.000  0.00  0.00    +0.000 C 
ATOM     21  C   UNL     1       0.182   1.792   0.000  0.00  0.00    +0.000 C 
ATOM     22  C   UNL     1      -0.303   2.460   0.000  0.00  0.00    +0.000 C 
ENDROOT
BRANCH   5  24
ATOM     23  O   UNL     1      -1.751  -3.213   0.000  0.00  0.00    +0.000 OA
ATOM     24  C   UNL     1      -1.751  -2.389   0.000  0.00  0.00    +0.000 C 
BRANCH  24  25
ATOM     25  C   UNL     1      -1.037  -1.976   0.000  0.00  0.00    +0.000 C 
BRANCH  25  26
ATOM     26  O   UNL     1      -0.322  -2.389   0.000  0.00  0.00    +0.000 OA
BRANCH  26  28
ATOM     27  O   UNL     1       0.392  -1.151   0.000  0.00  0.00    +0.000 OA
ATOM     28  C   UNL     1       0.392  -1.976   0.000  0.00  0.00    +0.000 C 
BRANCH  28  29
ATOM     29  C   UNL     1       1.107  -2.389   0.000  0.00  0.00    +0.000 C 
BRANCH  29  30
ATOM     30  C   UNL     1       1.821  -1.976   0.000  0.00  0.00    +0.000 C 
BRANCH  30  33
ATOM     31  O   UNL     1       3.250  -1.976   0.000  0.00  0.00    +0.000 OA
ATOM     32  O   UNL     1       2.536  -3.213   0.000  0.00  0.00    +0.000 OA
ATOM     33  C   UNL     1       2.536  -2.389   0.000  0.00  0.00    +0.000 C 
ENDBRANCH  30  33
ENDBRANCH  29  30
ENDBRANCH  28  29
ENDBRANCH  26  28
ENDBRANCH  25  26
ENDBRANCH  24  25
ENDBRANCH   5  24
TORSDOF 7
