REMARK  Name = 
REMARK  19 active torsions:
REMARK  status: ('A' for Active; 'I' for Inactive)
REMARK    1  A    between atoms: C_2  and  O_3
REMARK    2  A    between atoms: O_3  and  C_4
REMARK    3  A    between atoms: C_4  and  C_5
REMARK    4  A    between atoms: C_5  and  P_6
REMARK    5  A    between atoms: P_6  and  C_7
REMARK    6  A    between atoms: P_6  and  C_12
REMARK    7  A    between atoms: C_7  and  C_8
REMARK    8  A    between atoms: C_8  and  O_9
REMARK    9  A    between atoms: O_9  and  C_10
REMARK   10  A    between atoms: C_12  and  C_13
REMARK   11  A    between atoms: C_13  and  P_14
REMARK   12  A    between atoms: P_14  and  C_15
REMARK   13  A    between atoms: P_14  and  C_20
REMARK   14  A    between atoms: C_15  and  C_16
REMARK   15  A    between atoms: C_16  and  O_17
REMARK   16  A    between atoms: O_17  and  C_18
REMARK   17  A    between atoms: C_20  and  C_21
REMARK   18  A    between atoms: C_21  and  O_22
REMARK   19  A    between atoms: O_22  and  C_23
REMARK                            x       y       z     vdW  Elec       q    Type
REMARK                         _______ _______ _______ _____ _____    ______ ____
ROOT
ATOM      1  C   UNL     1       8.994  -2.683   0.000  0.00  0.00    +0.000 C 
ENDROOT
BRANCH   1   2
ATOM      2  P   UNL     1       8.214  -2.954   0.000  0.00  0.00    +0.000 P 
BRANCH   2   3
ATOM      3  C   UNL     1       7.591  -2.413   0.000  0.00  0.00    +0.000 C 
BRANCH   3   4
ATOM      4  C   UNL     1       6.811  -2.683   0.000  0.00  0.00    +0.000 C 
BRANCH   4   5
ATOM      5  O   UNL     1       6.188  -2.143   0.000  0.00  0.00    +0.000 OA
BRANCH   5   6
ATOM      6  C   UNL     1       5.408  -2.413   0.000  0.00  0.00    +0.000 C 
ATOM      7  C   UNL     1       4.784  -1.873   0.000  0.00  0.00    +0.000 C 
ENDBRANCH   5   6
ENDBRANCH   4   5
ENDBRANCH   3   4
ENDBRANCH   2   3
BRANCH   2   8
ATOM      8  C   UNL     1       8.058  -3.764   0.000  0.00  0.00    +0.000 C 
BRANCH   8   9
ATOM      9  C   UNL     1       7.279  -4.034   0.000  0.00  0.00    +0.000 C 
BRANCH   9  10
ATOM     10  O   UNL     1       7.123  -4.844   0.000  0.00  0.00    +0.000 OA
BRANCH  10  12
ATOM     11  C   UNL     1       6.188  -5.924   0.000  0.00  0.00    +0.000 C 
ATOM     12  C   UNL     1       6.343  -5.114   0.000  0.00  0.00    +0.000 C 
ENDBRANCH  10  12
ENDBRANCH   9  10
ENDBRANCH   8   9
ENDBRANCH   2   8
ENDBRANCH   1   2
BRANCH   1  13
ATOM     13  C   UNL     1       9.150  -1.873   0.000  0.00  0.00    +0.000 C 
BRANCH  13  14
ATOM     14  P   UNL     1       9.929  -1.603   0.000  0.00  0.00    +0.000 P 
BRANCH  14  15
ATOM     15  C   UNL     1      10.085  -0.793   0.000  0.00  0.00    +0.000 C 
BRANCH  15  16
ATOM     16  C   UNL     1      10.865  -0.523   0.000  0.00  0.00    +0.000 C 
BRANCH  16  17
ATOM     17  O   UNL     1      11.021   0.287   0.000  0.00  0.00    +0.000 OA
BRANCH  17  18
ATOM     18  C   UNL     1      11.800   0.557   0.000  0.00  0.00    +0.000 C 
ATOM     19  C   UNL     1      11.956   1.367   0.000  0.00  0.00    +0.000 C 
ENDBRANCH  17  18
ENDBRANCH  16  17
ENDBRANCH  15  16
ENDBRANCH  14  15
BRANCH  14  20
ATOM     20  C   UNL     1      10.553  -2.143   0.000  0.00  0.00    +0.000 C 
BRANCH  20  21
ATOM     21  C   UNL     1      11.332  -1.873   0.000  0.00  0.00    +0.000 C 
BRANCH  21  22
ATOM     22  O   UNL     1      11.956  -2.413   0.000  0.00  0.00    +0.000 OA
BRANCH  22  23
ATOM     23  C   UNL     1      12.736  -2.143   0.000  0.00  0.00    +0.000 C 
ATOM     24  C   UNL     1      13.359  -2.683   0.000  0.00  0.00    +0.000 C 
ENDBRANCH  22  23
ENDBRANCH  21  22
ENDBRANCH  20  21
ENDBRANCH  14  20
ENDBRANCH  13  14
ENDBRANCH   1  13
TORSDOF 19
