REMARK  Name = 
REMARK  3 active torsions:
REMARK  status: ('A' for Active; 'I' for Inactive)
REMARK    1  A    between atoms: N_4  and  C_5
REMARK    2  A    between atoms: C_6  and  C_17
REMARK    3  A    between atoms: C_8  and  C_10
REMARK                            x       y       z     vdW  Elec       q    Type
REMARK                         _______ _______ _______ _____ _____    ______ ____
ROOT
ATOM      1  C   UNL     1       0.715  -1.238   0.000  0.00  0.00    +0.000 A 
ATOM      2  C   UNL     1       1.382  -1.722   0.000  0.00  0.00    +0.000 A 
ATOM      3  C   UNL     1       1.127  -2.507   0.000  0.00  0.00    +0.000 A 
ATOM      4  C   UNL     1       0.302  -2.507   0.000  0.00  0.00    +0.000 A 
ATOM      5  S   UNL     1       0.047  -1.722   0.000  0.00  0.00    +0.000 S 
ENDROOT
BRANCH   4   6
ATOM      6  C   UNL     1      -0.183  -3.175   0.000  0.00  0.00    +0.000 A 
ATOM      7  C   UNL     1       0.153  -3.928   0.000  0.00  0.00    +0.000 A 
ATOM      8  C   UNL     1      -0.332  -4.596   0.000  0.00  0.00    +0.000 A 
ATOM      9  C   UNL     1      -1.153  -4.509   0.000  0.00  0.00    +0.000 A 
ATOM     10  F   UNL     1      -1.638  -5.177   0.000  0.00  0.00    +0.000 F 
ATOM     11  C   UNL     1      -1.488  -3.756   0.000  0.00  0.00    +0.000 A 
ATOM     12  C   UNL     1      -1.003  -3.088   0.000  0.00  0.00    +0.000 A 
ENDBRANCH   4   6
BRANCH   1  16
ATOM     13  N   UNL     1       0.000   0.825   0.000  0.00  0.00    +0.000 NA
ATOM     14  C   UNL     1       0.000   0.000   0.000  0.00  0.00    +0.000 C 
ATOM     15  O   UNL     1      -0.715  -0.412   0.000  0.00  0.00    +0.000 OA
ATOM     16  N   UNL     1       0.715  -0.412   0.000  0.00  0.00    +0.000 NA
ENDBRANCH   1  16
BRANCH   2  17
ATOM     17  C   UNL     1       2.167  -1.468   0.000  0.00  0.00    +0.000 C 
ATOM     18  N   UNL     1       2.780  -2.019   0.000  0.00  0.00    +0.000 NA
ATOM     19  O   UNL     1       2.338  -0.660   0.000  0.00  0.00    +0.000 OA
ENDBRANCH   2  17
TORSDOF 3
