REMARK  Name = 
REMARK  5 active torsions:
REMARK  status: ('A' for Active; 'I' for Inactive)
REMARK    1  A    between atoms: N_1  and  N_6
REMARK    2  A    between atoms: C_4  and  C_7
REMARK    3  A    between atoms: N_6  and  C_13
REMARK    4  A    between atoms: O_10  and  C_14
REMARK    5  A    between atoms: O_10  and  C_18
REMARK                            x       y       z     vdW  Elec       q    Type
REMARK                         _______ _______ _______ _____ _____    ______ ____
ROOT
ATOM      1  N   UNL     1       1.985  -0.206   0.000  0.00  0.00    +0.000 N 
ATOM      2  C   UNL     1       1.325   0.278   0.000  0.00  0.00    +0.000 C 
ATOM      3  C   UNL     1       2.644   0.270   0.000  0.00  0.00    +0.000 C 
ATOM      4  C   UNL     1       1.577   1.056   0.000  0.00  0.00    +0.000 C 
ATOM      5  O   UNL     1       2.399   1.056   0.000  0.00  0.00    +0.000 OA
ATOM      6  O   UNL     1       0.532   0.028   0.000  0.00  0.00    +0.000 OA
ATOM      7  O   UNL     1       3.434   0.000   0.000  0.00  0.00    +0.000 OA
ATOM      8  C   UNL     1       1.589   1.874   0.000  0.00  0.00    +0.000 C 
ENDROOT
BRANCH   4   9
ATOM      9  C   UNL     1       0.856   1.472   0.000  0.00  0.00    +0.000 A 
ATOM     10  C   UNL     1       0.142   1.062   0.000  0.00  0.00    +0.000 A 
ATOM     11  C   UNL     1       0.856   2.295   0.000  0.00  0.00    +0.000 A 
ATOM     12  C   UNL     1      -0.575   2.300   0.000  0.00  0.00    +0.000 A 
ATOM     13  C   UNL     1      -0.575   1.477   0.000  0.00  0.00    +0.000 A 
ATOM     14  C   UNL     1       0.138   2.711   0.000  0.00  0.00    +0.000 A 
BRANCH  12  15
ATOM     15  O   UNL     1      -1.289   2.714   0.000  0.00  0.00    +0.000 OA
BRANCH  15  16
ATOM     16  C   UNL     1      -2.004   2.302   0.000  0.00  0.00    +0.000 A 
ATOM     17  C   UNL     1      -2.005   1.477   0.000  0.00  0.00    +0.000 A 
ATOM     18  C   UNL     1      -2.718   2.715   0.000  0.00  0.00    +0.000 A 
ATOM     19  C   UNL     1      -3.433   2.303   0.000  0.00  0.00    +0.000 A 
ATOM     20  C   UNL     1      -2.720   1.065   0.000  0.00  0.00    +0.000 A 
ATOM     21  C   UNL     1      -3.434   1.478   0.000  0.00  0.00    +0.000 A 
ENDBRANCH  15  16
ENDBRANCH  12  15
ENDBRANCH   4   9
BRANCH   1  22
ATOM     22  N   UNL     1       1.992  -1.039   0.000  0.00  0.00    +0.000 NA
BRANCH  22  23
ATOM     23  C   UNL     1       1.275  -1.461   0.000  0.00  0.00    +0.000 A 
ATOM     24  C   UNL     1       1.282  -2.293   0.000  0.00  0.00    +0.000 A 
ATOM     25  C   UNL     1       0.550  -1.050   0.000  0.00  0.00    +0.000 A 
ATOM     26  C   UNL     1      -0.167  -1.473   0.000  0.00  0.00    +0.000 A 
ATOM     27  C   UNL     1       0.564  -2.715   0.000  0.00  0.00    +0.000 A 
ATOM     28  C   UNL     1      -0.160  -2.305   0.000  0.00  0.00    +0.000 A 
ENDBRANCH  22  23
ENDBRANCH   1  22
TORSDOF 5
