REMARK  Name = 
REMARK  4 active torsions:
REMARK  status: ('A' for Active; 'I' for Inactive)
REMARK    1  A    between atoms: C_1  and  N_4
REMARK    2  A    between atoms: C_2  and  C_5
REMARK    3  A    between atoms: N_4  and  C_11
REMARK    4  A    between atoms: C_11  and  C_13
REMARK                            x       y       z     vdW  Elec       q    Type
REMARK                         _______ _______ _______ _____ _____    ______ ____
ROOT
ATOM      1  C   UNL     1       0.659  -0.468   0.000  0.00  0.00    +0.000 C 
ATOM      2  C   UNL     1       1.484  -0.468   0.000  0.00  0.00    +0.000 C 
ATOM      3  C   UNL     1       1.072  -1.182   0.000  0.00  0.00    +0.000 C 
ENDROOT
BRANCH   2   4
ATOM      4  C   UNL     1       2.199  -0.055   0.000  0.00  0.00    +0.000 A 
ATOM      5  C   UNL     1       2.199   0.770   0.000  0.00  0.00    +0.000 A 
ATOM      6  C   UNL     1       2.913   1.182   0.000  0.00  0.00    +0.000 A 
ATOM      7  C   UNL     1       3.628   0.770   0.000  0.00  0.00    +0.000 A 
ATOM      8  C   UNL     1       3.628  -0.055   0.000  0.00  0.00    +0.000 A 
ATOM      9  C   UNL     1       2.913  -0.468   0.000  0.00  0.00    +0.000 A 
ENDBRANCH   2   4
BRANCH   1  10
ATOM     10  N   UNL     1      -0.055  -0.055   0.000  0.00  0.00    +0.000 NA
BRANCH  10  11
ATOM     11  C   UNL     1      -0.770  -0.468   0.000  0.00  0.00    +0.000 C 
BRANCH  11  13
ATOM     12  C   UNL     1      -1.484   0.770   0.000  0.00  0.00    +0.000 C 
ATOM     13  C   UNL     1      -1.484  -0.055   0.000  0.00  0.00    +0.000 C 
ATOM     14  C   UNL     1      -2.199  -0.468   0.000  0.00  0.00    +0.000 C 
ATOM     15  C   UNL     1      -2.913  -0.055   0.000  0.00  0.00    +0.000 C 
ATOM     16  C   UNL     1      -2.913   0.770   0.000  0.00  0.00    +0.000 C 
ATOM     17  C   UNL     1      -2.199   1.182   0.000  0.00  0.00    +0.000 C 
ATOM     18  N   UNL     1      -3.628   1.182   0.000  0.00  0.00    +0.000 NA
ENDBRANCH  11  13
ENDBRANCH  10  11
ENDBRANCH   1  10
TORSDOF 4
