REMARK  Name = 
REMARK  4 active torsions:
REMARK  status: ('A' for Active; 'I' for Inactive)
REMARK    1  A    between atoms: C_1  and  N_8
REMARK    2  A    between atoms: N_8  and  C_12
REMARK    3  A    between atoms: C_15  and  C_18
REMARK    4  A    between atoms: C_16  and  C_22
REMARK                            x       y       z     vdW  Elec       q    Type
REMARK                         _______ _______ _______ _____ _____    ______ ____
ROOT
ATOM      1  C   UNL     1      -0.711   0.205   0.000  0.00  0.00    +0.000 A 
ATOM      2  C   UNL     1      -1.425  -0.207   0.000  0.00  0.00    +0.000 A 
ATOM      3  C   UNL     1      -1.426  -1.029   0.000  0.00  0.00    +0.000 A 
ATOM      4  C   UNL     1      -0.713  -1.444   0.000  0.00  0.00    +0.000 A 
ATOM      5  C   UNL     1       0.003  -1.032   0.000  0.00  0.00    +0.000 A 
ATOM      6  N   UNL     1       0.005  -0.204   0.000  0.00  0.00    +0.000 NA
ENDROOT
BRANCH   5   7
ATOM      7  C   UNL     1       0.717  -1.446   0.000  0.00  0.00    +0.000 A 
ATOM      8  C   UNL     1       0.711  -2.269   0.000  0.00  0.00    +0.000 A 
ATOM      9  C   UNL     1       1.424  -2.683   0.000  0.00  0.00    +0.000 A 
ATOM     10  C   UNL     1       2.140  -2.272   0.000  0.00  0.00    +0.000 A 
ATOM     11  C   UNL     1       2.139  -1.442   0.000  0.00  0.00    +0.000 A 
ATOM     12  C   UNL     1       1.426  -1.032   0.000  0.00  0.00    +0.000 A 
ATOM     13  F   UNL     1       1.423  -0.207   0.000  0.00  0.00    +0.000 F 
ATOM     14  F   UNL     1       2.854  -2.685   0.000  0.00  0.00    +0.000 F 
ENDBRANCH   5   7
BRANCH   1  15
ATOM     15  N   UNL     1      -0.712   1.031   0.000  0.00  0.00    +0.000 N 
ATOM     16  C   UNL     1       0.002   1.444   0.000  0.00  0.00    +0.000 C 
ATOM     17  O   UNL     1       0.001   2.269   0.000  0.00  0.00    +0.000 OA
ATOM     18  N   UNL     1       0.717   1.033   0.000  0.00  0.00    +0.000 NA
BRANCH  15  19
ATOM     19  C   UNL     1      -1.427   1.442   0.000  0.00  0.00    +0.000 A 
ATOM     20  C   UNL     1      -2.853   2.267   0.000  0.00  0.00    +0.000 A 
ATOM     21  C   UNL     1      -2.854   1.440   0.000  0.00  0.00    +0.000 A 
ATOM     22  C   UNL     1      -2.141   1.026   0.000  0.00  0.00    +0.000 A 
ATOM     23  C   UNL     1      -1.426   2.270   0.000  0.00  0.00    +0.000 A 
ATOM     24  C   UNL     1      -2.143   2.678   0.000  0.00  0.00    +0.000 A 
ATOM     25  F   UNL     1      -0.713   2.685   0.000  0.00  0.00    +0.000 F 
ATOM     26  F   UNL     1      -2.141   0.201   0.000  0.00  0.00    +0.000 F 
ENDBRANCH  15  19
ENDBRANCH   1  15
BRANCH   4  27
ATOM     27  C   UNL     1      -0.715  -2.269   0.000  0.00  0.00    +0.000 C 
ATOM     28  N   UNL     1      -1.430  -2.680   0.000  0.00  0.00    +0.000 NA
ATOM     29  O   UNL     1      -0.001  -2.683   0.000  0.00  0.00    +0.000 OA
ENDBRANCH   4  27
TORSDOF 4
