REMARK  Name = 
REMARK  28 active torsions:
REMARK  status: ('A' for Active; 'I' for Inactive)
REMARK    1  A    between atoms: SD_2  and  CG_3
REMARK    2  A    between atoms: CG_3  and  CB_4
REMARK    3  A    between atoms: CB_4  and  CA_5
REMARK    4  A    between atoms: CA_5  and  N_6
REMARK    5  A    between atoms: CA_5  and  C_19
REMARK    6  A    between atoms: C_7  and  CA_9
REMARK    7  A    between atoms: CA_9  and  CB_11
REMARK    8  A    between atoms: CB_11  and  CG_12
REMARK    9  A    between atoms: N_21  and  CA_22
REMARK   10  A    between atoms: CA_22  and  CB_23
REMARK   11  A    between atoms: CA_22  and  C_30
REMARK   12  A    between atoms: CB_23  and  CG_24
REMARK   13  A    between atoms: CA_36  and  C_37
REMARK   14  A    between atoms: N_39  and  CA_40
REMARK   15  A    between atoms: CA_40  and  CB_41
REMARK   16  A    between atoms: CA_40  and  C_45
REMARK   17  A    between atoms: CB_41  and  CG_42
REMARK   18  A    between atoms: N_47  and  CA_48
REMARK   19  A    between atoms: CA_48  and  C_50
REMARK   20  A    between atoms: CA_56  and  C_57
REMARK   21  A    between atoms: N_59  and  CA_60
REMARK   22  A    between atoms: CA_60  and  CB_61
REMARK   23  A    between atoms: CA_60  and  C_69
REMARK   24  A    between atoms: CB_61  and  CG_62
REMARK   25  A    between atoms: N_71  and  CA_72
REMARK   26  A    between atoms: CA_72  and  CB_73
REMARK   27  A    between atoms: CA_72  and  C_77
REMARK   28  A    between atoms: CB_73  and  CG_74
REMARK                            x       y       z     vdW  Elec       q    Type
REMARK                         _______ _______ _______ _____ _____    ______ ____
ROOT
ATOM      1  CA  ASN A   5      18.068 -13.983   0.000  0.00  0.00    +0.000 C 
ENDROOT
BRANCH   1   2
ATOM      2  C   ASN A   5      18.240 -13.176   0.000  0.00  0.00    +0.000 C 
ATOM      3  O   ASN A   5      17.627 -12.624   0.000  0.00  0.00    +0.000 OA
ATOM      4  N   ALA A   6      19.024 -12.921   0.000  0.00  0.00    +0.000 NA
BRANCH   4   5
ATOM      5  CA  ALA A   6      19.196 -12.114   0.000  0.00  0.00    +0.000 C 
ATOM      6  CB  ALA A   6      18.583 -11.562   0.000  0.00  0.00    +0.000 C 
BRANCH   5   7
ATOM      7  C   ALA A   6      19.981 -11.859   0.000  0.00  0.00    +0.000 C 
ATOM      8  O   ALA A   6      20.594 -12.411   0.000  0.00  0.00    +0.000 OA
ATOM      9  N   PRO A   7      20.152 -11.052   0.000  0.00  0.00    +0.000 N 
ATOM     10  CD  PRO A   7      19.600 -10.439   0.000  0.00  0.00    +0.000 C 
ATOM     11  CG  PRO A   7      20.013  -9.724   0.000  0.00  0.00    +0.000 C 
ATOM     12  CB  PRO A   7      20.820  -9.896   0.000  0.00  0.00    +0.000 C 
ATOM     13  CA  PRO A   7      20.906 -10.716   0.000  0.00  0.00    +0.000 C 
BRANCH  13  14
ATOM     14  C   PRO A   7      21.620 -11.129   0.000  0.00  0.00    +0.000 C 
ATOM     15  O   PRO A   7      21.620 -11.954   0.000  0.00  0.00    +0.000 OA
ATOM     16  N   TYR A   8      22.335 -10.716   0.000  0.00  0.00    +0.000 NA
BRANCH  16  17
ATOM     17  CA  TYR A   8      23.049 -11.129   0.000  0.00  0.00    +0.000 C 
BRANCH  17  18
ATOM     18  C   TYR A   8      23.049 -11.954   0.000  0.00  0.00    +0.000 C 
ATOM     19  O   TYR A   8      23.764 -12.366   0.000  0.00  0.00    +0.000 OA
ATOM     20  N   LEU A   9      22.335 -12.366   0.000  0.00  0.00    +0.000 NA
BRANCH  20  21
ATOM     21  CA  LEU A   9      22.335 -13.191   0.000  0.00  0.00    +0.000 C 
BRANCH  21  22
ATOM     22  C   LEU A   9      23.049 -13.604   0.000  0.00  0.00    +0.000 C 
ATOM     23  O   LEU A   9      23.049 -14.429   0.000  0.00  0.00    +0.000 OA
ATOM     24  OXT LEU A   9      23.764 -13.191   0.000  0.00  0.00    +0.000 OA
ENDBRANCH  21  22
BRANCH  21  25
ATOM     25  CB  LEU A   9      21.620 -13.604   0.000  0.00  0.00    +0.000 C 
BRANCH  25  26
ATOM     26  CG  LEU A   9      21.620 -14.429   0.000  0.00  0.00    +0.000 C 
ATOM     27  CD1 LEU A   9      22.335 -14.841   0.000  0.00  0.00    +0.000 C 
ATOM     28  CD2 LEU A   9      20.906 -14.841   0.000  0.00  0.00    +0.000 C 
ENDBRANCH  25  26
ENDBRANCH  21  25
ENDBRANCH  20  21
ENDBRANCH  17  18
BRANCH  17  29
ATOM     29  CB  TYR A   8      23.764 -10.716   0.000  0.00  0.00    +0.000 C 
BRANCH  29  30
ATOM     30  CG  TYR A   8      24.478 -11.129   0.000  0.00  0.00    +0.000 A 
ATOM     31  CD1 TYR A   8      25.193 -10.716   0.000  0.00  0.00    +0.000 A 
ATOM     32  CE1 TYR A   8      25.907 -11.129   0.000  0.00  0.00    +0.000 A 
ATOM     33  CZ  TYR A   8      25.907 -11.954   0.000  0.00  0.00    +0.000 A 
ATOM     34  OH  TYR A   8      26.622 -12.366   0.000  0.00  0.00    +0.000 OA
ATOM     35  CE2 TYR A   8      25.193 -12.366   0.000  0.00  0.00    +0.000 A 
ATOM     36  CD2 TYR A   8      24.478 -11.954   0.000  0.00  0.00    +0.000 A 
ENDBRANCH  29  30
ENDBRANCH  17  29
ENDBRANCH  16  17
ENDBRANCH  13  14
ENDBRANCH   5   7
ENDBRANCH   4   5
ENDBRANCH   1   2
BRANCH   1  39
ATOM     37  C   PRO A   4      16.671 -13.686   0.000  0.00  0.00    +0.000 C 
ATOM     38  O   PRO A   4      16.842 -12.879   0.000  0.00  0.00    +0.000 OA
ATOM     39  N   ASN A   5      17.284 -14.238   0.000  0.00  0.00    +0.000 NA
BRANCH  37  46
ATOM     40  C   PHE A   3      15.219 -12.631   0.000  0.00  0.00    +0.000 C 
ATOM     41  O   PHE A   3      15.933 -12.218   0.000  0.00  0.00    +0.000 OA
ATOM     42  N   PRO A   4      15.219 -13.456   0.000  0.00  0.00    +0.000 N 
ATOM     43  CD  PRO A   4      14.551 -13.941   0.000  0.00  0.00    +0.000 C 
ATOM     44  CG  PRO A   4      14.806 -14.725   0.000  0.00  0.00    +0.000 C 
ATOM     45  CB  PRO A   4      15.631 -14.725   0.000  0.00  0.00    +0.000 C 
ATOM     46  CA  PRO A   4      15.886 -13.941   0.000  0.00  0.00    +0.000 C 
BRANCH  40  47
ATOM     47  CA  PHE A   3      14.504 -12.218   0.000  0.00  0.00    +0.000 C 
BRANCH  47  50
ATOM     48  C   MET A   2      13.075 -12.218   0.000  0.00  0.00    +0.000 C 
ATOM     49  O   MET A   2      13.075 -11.393   0.000  0.00  0.00    +0.000 OA
ATOM     50  N   PHE A   3      13.790 -12.631   0.000  0.00  0.00    +0.000 NA
BRANCH  48  51
ATOM     51  CA  MET A   2      12.361 -12.631   0.000  0.00  0.00    +0.000 C 
BRANCH  51  52
ATOM     52  N   MET A   2      11.646 -12.218   0.000  0.00  0.00    +0.000 NA
ATOM     53  C   TYR A   1      10.932 -12.631   0.000  0.00  0.00    +0.000 C 
ATOM     54  O   TYR A   1      10.932 -13.456   0.000  0.00  0.00    +0.000 OA
BRANCH  53  55
ATOM     55  CA  TYR A   1      10.217 -12.218   0.000  0.00  0.00    +0.000 C 
ATOM     56  N   TYR A   1      10.217 -11.393   0.000  0.00  0.00    +0.000 NA
BRANCH  55  57
ATOM     57  CB  TYR A   1       9.503 -12.631   0.000  0.00  0.00    +0.000 C 
BRANCH  57  58
ATOM     58  CG  TYR A   1       8.788 -12.218   0.000  0.00  0.00    +0.000 A 
ATOM     59  CD1 TYR A   1       8.074 -12.631   0.000  0.00  0.00    +0.000 A 
ATOM     60  CE1 TYR A   1       7.359 -12.218   0.000  0.00  0.00    +0.000 A 
ATOM     61  CZ  TYR A   1       7.359 -11.393   0.000  0.00  0.00    +0.000 A 
ATOM     62  OH  TYR A   1       6.645 -10.981   0.000  0.00  0.00    +0.000 OA
ATOM     63  CE2 TYR A   1       8.074 -10.981   0.000  0.00  0.00    +0.000 A 
ATOM     64  CD2 TYR A   1       8.788 -11.393   0.000  0.00  0.00    +0.000 A 
ENDBRANCH  57  58
ENDBRANCH  55  57
ENDBRANCH  53  55
ENDBRANCH  51  52
BRANCH  51  65
ATOM     65  CB  MET A   2      12.361 -13.456   0.000  0.00  0.00    +0.000 C 
BRANCH  65  66
ATOM     66  CG  MET A   2      13.075 -13.868   0.000  0.00  0.00    +0.000 C 
BRANCH  66  68
ATOM     67  CE  MET A   2      13.790 -15.106   0.000  0.00  0.00    +0.000 C 
ATOM     68  SD  MET A   2      13.075 -14.693   0.000  0.00  0.00    +0.000 S 
ENDBRANCH  66  68
ENDBRANCH  65  66
ENDBRANCH  51  65
ENDBRANCH  48  51
ENDBRANCH  47  50
BRANCH  47  69
ATOM     69  CB  PHE A   3      14.504 -11.393   0.000  0.00  0.00    +0.000 C 
BRANCH  69  70
ATOM     70  CG  PHE A   3      15.219 -10.981   0.000  0.00  0.00    +0.000 A 
ATOM     71  CD1 PHE A   3      15.219 -10.156   0.000  0.00  0.00    +0.000 A 
ATOM     72  CE1 PHE A   3      15.933  -9.743   0.000  0.00  0.00    +0.000 A 
ATOM     73  CZ  PHE A   3      16.648 -10.156   0.000  0.00  0.00    +0.000 A 
ATOM     74  CE2 PHE A   3      16.648 -10.981   0.000  0.00  0.00    +0.000 A 
ATOM     75  CD2 PHE A   3      15.933 -11.393   0.000  0.00  0.00    +0.000 A 
ENDBRANCH  69  70
ENDBRANCH  47  69
ENDBRANCH  40  47
ENDBRANCH  37  46
ENDBRANCH   1  39
BRANCH   1  76
ATOM     76  CB  ASN A   5      18.681 -14.535   0.000  0.00  0.00    +0.000 C 
BRANCH  76  77
ATOM     77  CG  ASN A   5      19.466 -14.280   0.000  0.00  0.00    +0.000 C 
ATOM     78  ND2 ASN A   5      19.637 -13.473   0.000  0.00  0.00    +0.000 NA
ATOM     79  OD1 ASN A   5      20.079 -14.832   0.000  0.00  0.00    +0.000 OA
ENDBRANCH  76  77
ENDBRANCH   1  76
TORSDOF 28
