REMARK  Name = 
REMARK  4 active torsions:
REMARK  status: ('A' for Active; 'I' for Inactive)
REMARK    1  A    between atoms: C_3  and  N_9
REMARK    2  A    between atoms: N_12  and  C_13
REMARK    3  A    between atoms: C_17  and  S_20
REMARK    4  A    between atoms: S_20  and  C_23
REMARK                            x       y       z     vdW  Elec       q    Type
REMARK                         _______ _______ _______ _____ _____    ______ ____
ROOT
ATOM      1  C   UNL     1       5.001  -3.712   0.000  0.00  0.00    +0.000 A 
ATOM      2  C   UNL     1       4.287  -3.300   0.000  0.00  0.00    +0.000 A 
ATOM      3  C   UNL     1       4.287  -2.475   0.000  0.00  0.00    +0.000 A 
ATOM      4  C   UNL     1       5.001  -2.062   0.000  0.00  0.00    +0.000 A 
ATOM      5  C   UNL     1       5.716  -2.475   0.000  0.00  0.00    +0.000 A 
ATOM      6  C   UNL     1       5.716  -3.300   0.000  0.00  0.00    +0.000 A 
ATOM      7  O   UNL     1       6.430  -3.712   0.000  0.00  0.00    +0.000 OA
ATOM      8 CL   UNL     1       5.001  -1.238   0.000  0.00  0.00    +0.000 Cl
ENDROOT
BRANCH   1  12
ATOM      9  N   UNL     1       4.287  -5.775   0.000  0.00  0.00    +0.000 NA
ATOM     10  C   UNL     1       4.287  -4.950   0.000  0.00  0.00    +0.000 C 
ATOM     11  O   UNL     1       3.572  -4.537   0.000  0.00  0.00    +0.000 OA
ATOM     12  N   UNL     1       5.001  -4.537   0.000  0.00  0.00    +0.000 NA
BRANCH   9  15
ATOM     13  C   UNL     1       2.858  -4.950   0.000  0.00  0.00    +0.000 C 
ATOM     14  C   UNL     1       2.858  -5.775   0.000  0.00  0.00    +0.000 A 
ATOM     15  C   UNL     1       3.572  -6.188   0.000  0.00  0.00    +0.000 A 
ATOM     16  C   UNL     1       3.572  -7.013   0.000  0.00  0.00    +0.000 A 
ATOM     17  C   UNL     1       2.858  -7.425   0.000  0.00  0.00    +0.000 A 
ATOM     18  C   UNL     1       2.143  -7.013   0.000  0.00  0.00    +0.000 A 
ATOM     19  C   UNL     1       2.143  -6.188   0.000  0.00  0.00    +0.000 A 
ATOM     20  F   UNL     1       1.429  -5.775   0.000  0.00  0.00    +0.000 F 
ENDBRANCH   9  15
ENDBRANCH   1  12
BRANCH   5  21
ATOM     21  S   UNL     1       6.430  -2.062   0.000  0.00  0.00    +0.000 S 
ATOM     22  O   UNL     1       6.843  -2.777   0.000  0.00  0.00    +0.000 OA
ATOM     23  O   UNL     1       6.018  -1.348   0.000  0.00  0.00    +0.000 OA
BRANCH  21  24
ATOM     24  C   UNL     1       7.145  -1.650   0.000  0.00  0.00    +0.000 C 
ATOM     25  C   UNL     1       7.145  -0.825   0.000  0.00  0.00    +0.000 C 
ATOM     26  C   UNL     1       7.859  -0.412   0.000  0.00  0.00    +0.000 C 
ATOM     27  C   UNL     1       8.574  -0.825   0.000  0.00  0.00    +0.000 C 
ATOM     28  N   UNL     1       8.574  -1.650   0.000  0.00  0.00    +0.000 NA
ATOM     29  C   UNL     1       7.859  -2.062   0.000  0.00  0.00    +0.000 C 
ENDBRANCH  21  24
ENDBRANCH   5  21
TORSDOF 4
