REMARK  Name = 
REMARK  4 active torsions:
REMARK  status: ('A' for Active; 'I' for Inactive)
REMARK    1  A    between atoms: C_2  and  C_3
REMARK    2  A    between atoms: C_3  and  C_4
REMARK    3  A    between atoms: N_5  and  C_6
REMARK    4  A    between atoms: C_8  and  C_9
REMARK                            x       y       z     vdW  Elec       q    Type
REMARK                         _______ _______ _______ _____ _____    ______ ____
ROOT
ATOM      1  C   UNL     1       0.357   0.055   0.000  0.00  0.00    +0.000 A 
ATOM      2  C   UNL     1       1.072   0.468   0.000  0.00  0.00    +0.000 A 
ATOM      3  C   UNL     1       1.786   0.055   0.000  0.00  0.00    +0.000 A 
ATOM      4  C   UNL     1       1.786  -0.770   0.000  0.00  0.00    +0.000 A 
ATOM      5  C   UNL     1       1.072  -1.182   0.000  0.00  0.00    +0.000 A 
ATOM      6  C   UNL     1       0.357  -0.770   0.000  0.00  0.00    +0.000 A 
ATOM      7 CL   UNL     1       2.501  -1.182   0.000  0.00  0.00    +0.000 Cl
ENDROOT
BRANCH   3   8
ATOM      8  C   UNL     1       2.501   0.468   0.000  0.00  0.00    +0.000 C 
ATOM      9  F   UNL     1       3.215   0.880   0.000  0.00  0.00    +0.000 F 
ATOM     10  F   UNL     1       2.913  -0.247   0.000  0.00  0.00    +0.000 F 
ATOM     11  F   UNL     1       2.088   1.182   0.000  0.00  0.00    +0.000 F 
ENDBRANCH   3   8
BRANCH   1  13
ATOM     12  C   UNL     1      -1.072   0.055   0.000  0.00  0.00    +0.000 C 
ATOM     13  N   UNL     1      -0.357   0.468   0.000  0.00  0.00    +0.000 NA
ATOM     14  O   UNL     1      -1.072  -0.770   0.000  0.00  0.00    +0.000 OA
BRANCH  12  15
ATOM     15  C   UNL     1      -1.786   0.468   0.000  0.00  0.00    +0.000 C 
BRANCH  15  17
ATOM     16  C   UNL     1      -3.215   0.468   0.000  0.00  0.00    +0.000 C 
ATOM     17  C   UNL     1      -2.501   0.055   0.000  0.00  0.00    +0.000 C 
ATOM     18  O   UNL     1      -2.501  -0.770   0.000  0.00  0.00    +0.000 OA
ENDBRANCH  15  17
ENDBRANCH  12  15
ENDBRANCH   1  13
TORSDOF 4
