REMARK  Name = 
REMARK  9 active torsions:
REMARK  status: ('A' for Active; 'I' for Inactive)
REMARK    1  A    between atoms: N_1  and  C_2
REMARK    2  A    between atoms: C_5  and  C_11
REMARK    3  A    between atoms: C_11  and  O_13
REMARK    4  A    between atoms: O_13  and  C_14
REMARK    5  A    between atoms: C_17  and  C_20
REMARK    6  A    between atoms: C_20  and  C_21
REMARK    7  A    between atoms: C_21  and  O_22
REMARK    8  A    between atoms: O_22  and  C_23
REMARK    9  A    between atoms: C_23  and  C_24
REMARK                            x       y       z     vdW  Elec       q    Type
REMARK                         _______ _______ _______ _____ _____    ______ ____
ROOT
ATOM      1  C   UNL     1      -0.352  -0.206   0.000  0.00  0.00    +0.000 A 
ATOM      2  C   UNL     1       0.365  -0.618   0.000  0.00  0.00    +0.000 A 
ATOM      3  C   UNL     1       1.077  -0.202   0.000  0.00  0.00    +0.000 A 
ATOM      4  C   UNL     1       1.073   0.625   0.000  0.00  0.00    +0.000 A 
ATOM      5  C   UNL     1       0.350   1.033   0.000  0.00  0.00    +0.000 A 
ATOM      6  C   UNL     1      -0.359   0.615   0.000  0.00  0.00    +0.000 A 
ENDROOT
BRANCH   1   7
ATOM      7  O   UNL     1      -1.065  -0.623   0.000  0.00  0.00    +0.000 OA
BRANCH   7   8
ATOM      8  C   UNL     1      -1.778  -0.210   0.000  0.00  0.00    +0.000 C 
ATOM      9  O   UNL     1      -1.782   0.615   0.000  0.00  0.00    +0.000 OA
BRANCH   8  13
ATOM     10  C   UNL     1      -3.912  -1.461   0.000  0.00  0.00    +0.000 A 
ATOM     11  C   UNL     1      -3.195  -1.873   0.000  0.00  0.00    +0.000 A 
ATOM     12  C   UNL     1      -2.482  -1.456   0.000  0.00  0.00    +0.000 A 
ATOM     13  C   UNL     1      -2.487  -0.630   0.000  0.00  0.00    +0.000 A 
ATOM     14  C   UNL     1      -3.209  -0.221   0.000  0.00  0.00    +0.000 A 
ATOM     15  C   UNL     1      -3.918  -0.640   0.000  0.00  0.00    +0.000 A 
BRANCH  10  16
ATOM     16  N   UNL     1      -4.624  -1.877   0.000  0.00  0.00    +0.000 NA
ATOM     17  C   UNL     1      -5.341  -1.465   0.000  0.00  0.00    +0.000 C 
ATOM     18  N   UNL     1      -5.345  -0.640   0.000  0.00  0.00    +0.000 NA
ATOM     19  N   UNL     1      -6.058  -1.873   0.000  0.00  0.00    +0.000 NA
ENDBRANCH  10  16
ENDBRANCH   8  13
ENDBRANCH   7   8
ENDBRANCH   1   7
BRANCH   4  20
ATOM     20  C   UNL     1       1.782   1.044   0.000  0.00  0.00    +0.000 C 
BRANCH  20  21
ATOM     21  C   UNL     1       2.494   0.631   0.000  0.00  0.00    +0.000 C 
ATOM     22  O   UNL     1       2.496  -0.194   0.000  0.00  0.00    +0.000 OA
BRANCH  21  23
ATOM     23  O   UNL     1       3.207   1.048   0.000  0.00  0.00    +0.000 OA
BRANCH  23  24
ATOM     24  C   UNL     1       3.920   0.636   0.000  0.00  0.00    +0.000 C 
BRANCH  24  25
ATOM     25  C   UNL     1       4.633   1.052   0.000  0.00  0.00    +0.000 C 
ATOM     26  O   UNL     1       4.628   1.877   0.000  0.00  0.00    +0.000 OA
ATOM     27  N   UNL     1       5.345   0.640   0.000  0.00  0.00    +0.000 N 
ATOM     28  C   UNL     1       5.341  -0.185   0.000  0.00  0.00    +0.000 C 
ATOM     29  C   UNL     1       6.058   1.056   0.000  0.00  0.00    +0.000 C 
ENDBRANCH  24  25
ENDBRANCH  23  24
ENDBRANCH  21  23
ENDBRANCH  20  21
ENDBRANCH   4  20
TORSDOF 9
