REMARK  Name = 
REMARK  10 active torsions:
REMARK  status: ('A' for Active; 'I' for Inactive)
REMARK    1  A    between atoms: C_6  and  O_8
REMARK    2  A    between atoms: O_8  and  C_9
REMARK    3  A    between atoms: C_9  and  C_10
REMARK    4  A    between atoms: C_14  and  O_16
REMARK    5  A    between atoms: O_16  and  C_17
REMARK    6  A    between atoms: C_24  and  C_26
REMARK    7  A    between atoms: C_29  and  O_33
REMARK    8  A    between atoms: C_35  and  O_37
REMARK    9  A    between atoms: O_37  and  C_38
REMARK   10  A    between atoms: C_38  and  C_39
REMARK                            x       y       z     vdW  Elec       q    Type
REMARK                         _______ _______ _______ _____ _____    ______ ____
ROOT
ATOM      1  C   UNL     1      -0.715  -1.238   0.000  0.00  0.00    +0.000 A 
ATOM      2  C   UNL     1       0.000  -1.650   0.000  0.00  0.00    +0.000 A 
ATOM      3  C   UNL     1       0.715  -1.238   0.000  0.00  0.00    +0.000 A 
ATOM      4  C   UNL     1       0.715  -0.412   0.000  0.00  0.00    +0.000 A 
ATOM      5  C   UNL     1       1.429   0.000   0.000  0.00  0.00    +0.000 A 
ATOM      6  O   UNL     1       1.429   0.825   0.000  0.00  0.00    +0.000 OA
ATOM      7  C   UNL     1       2.143  -0.412   0.000  0.00  0.00    +0.000 A 
ATOM      8  C   UNL     1       2.143  -1.238   0.000  0.00  0.00    +0.000 A 
ATOM      9  O   UNL     1       1.429  -1.650   0.000  0.00  0.00    +0.000 OA
ATOM     10  C   UNL     1       0.000   0.000   0.000  0.00  0.00    +0.000 A 
ATOM     11  C   UNL     1      -0.715  -0.412   0.000  0.00  0.00    +0.000 A 
ENDROOT
BRANCH   8  12
ATOM     12  C   UNL     1       2.858  -1.650   0.000  0.00  0.00    +0.000 A 
ATOM     13  C   UNL     1       3.572  -1.238   0.000  0.00  0.00    +0.000 A 
ATOM     14  C   UNL     1       4.287  -1.650   0.000  0.00  0.00    +0.000 A 
ATOM     15  C   UNL     1       4.287  -2.475   0.000  0.00  0.00    +0.000 A 
ATOM     16  C   UNL     1       3.572  -2.888   0.000  0.00  0.00    +0.000 A 
ATOM     17  C   UNL     1       2.858  -2.475   0.000  0.00  0.00    +0.000 A 
ATOM     18  O   UNL     1       3.572  -3.712   0.000  0.00  0.00    +0.000 OA
BRANCH  15  19
ATOM     19  O   UNL     1       5.001  -2.888   0.000  0.00  0.00    +0.000 OA
ATOM     20  C   UNL     1       5.001  -3.712   0.000  0.00  0.00    +0.000 C 
ENDBRANCH  15  19
ENDBRANCH   8  12
BRANCH   1  21
ATOM     21  O   UNL     1      -1.429  -1.650   0.000  0.00  0.00    +0.000 OA
BRANCH  21  26
ATOM     22  C   UNL     1      -3.572  -1.238   0.000  0.00  0.00    +0.000 C 
ATOM     23  C   UNL     1      -3.572  -0.412   0.000  0.00  0.00    +0.000 C 
ATOM     24  C   UNL     1      -2.858   0.000   0.000  0.00  0.00    +0.000 C 
ATOM     25  C   UNL     1      -2.143  -0.412   0.000  0.00  0.00    +0.000 C 
ATOM     26  C   UNL     1      -2.143  -1.238   0.000  0.00  0.00    +0.000 C 
ATOM     27  O   UNL     1      -2.858  -1.650   0.000  0.00  0.00    +0.000 OA
ATOM     28  O   UNL     1      -1.429   0.000   0.000  0.00  0.00    +0.000 OA
ATOM     29  O   UNL     1      -2.858   0.825   0.000  0.00  0.00    +0.000 OA
ATOM     30  O   UNL     1      -4.287   0.000   0.000  0.00  0.00    +0.000 OA
BRANCH  22  31
ATOM     31  C   UNL     1      -4.287  -1.650   0.000  0.00  0.00    +0.000 C 
BRANCH  31  32
ATOM     32  O   UNL     1      -5.001  -1.238   0.000  0.00  0.00    +0.000 OA
BRANCH  32  38
ATOM     33  C   UNL     1      -6.430  -3.712   0.000  0.00  0.00    +0.000 C 
ATOM     34  C   UNL     1      -6.430  -2.888   0.000  0.00  0.00    +0.000 C 
ATOM     35  C   UNL     1      -7.145  -2.475   0.000  0.00  0.00    +0.000 C 
ATOM     36  C   UNL     1      -7.145  -1.650   0.000  0.00  0.00    +0.000 C 
ATOM     37  C   UNL     1      -6.430  -1.238   0.000  0.00  0.00    +0.000 C 
ATOM     38  C   UNL     1      -5.716  -1.650   0.000  0.00  0.00    +0.000 C 
ATOM     39  O   UNL     1      -5.716  -2.475   0.000  0.00  0.00    +0.000 OA
ATOM     40  O   UNL     1      -6.430  -0.412   0.000  0.00  0.00    +0.000 OA
ATOM     41  O   UNL     1      -7.859  -1.238   0.000  0.00  0.00    +0.000 OA
ATOM     42  O   UNL     1      -7.859  -2.888   0.000  0.00  0.00    +0.000 OA
ENDBRANCH  32  38
ENDBRANCH  31  32
ENDBRANCH  22  31
ENDBRANCH  21  26
ENDBRANCH   1  21
BRANCH  10  43
ATOM     43  O   UNL     1       0.000   0.825   0.000  0.00  0.00    +0.000 OA
BRANCH  43  44
ATOM     44  C   UNL     1      -0.715   1.238   0.000  0.00  0.00    +0.000 C 
BRANCH  44  45
ATOM     45  C   UNL     1      -1.429   0.825   0.000  0.00  0.00    +0.000 C 
ATOM     46  O   UNL     1      -2.143   1.238   0.000  0.00  0.00    +0.000 OA
ENDBRANCH  44  45
ENDBRANCH  43  44
ENDBRANCH  10  43
TORSDOF 10
