REMARK  Name = 
REMARK  4 active torsions:
REMARK  status: ('A' for Active; 'I' for Inactive)
REMARK    1  A    between atoms: C_6  and  N_8
REMARK    2  A    between atoms: N_8  and  C_10
REMARK    3  A    between atoms: C_10  and  O_12
REMARK    4  A    between atoms: O_12  and  C_13
REMARK                            x       y       z     vdW  Elec       q    Type
REMARK                         _______ _______ _______ _____ _____    ______ ____
ROOT
ATOM      1  O   UNL     1       3.939   1.449   0.000  0.00  0.00    +0.000 OA
ENDROOT
BRANCH   1   2
ATOM      2  C   UNL     1       3.225   1.037   0.000  0.00  0.00    +0.000 A 
ATOM      3  C   UNL     1       3.225   0.212   0.000  0.00  0.00    +0.000 A 
ATOM      4  C   UNL     1       2.510  -0.201   0.000  0.00  0.00    +0.000 A 
ATOM      5  C   UNL     1       1.796   0.212   0.000  0.00  0.00    +0.000 A 
ATOM      6  C   UNL     1       1.796   1.037   0.000  0.00  0.00    +0.000 A 
ATOM      7  C   UNL     1       2.510   1.449   0.000  0.00  0.00    +0.000 A 
ATOM      8  C   UNL     1       1.081   1.449   0.000  0.00  0.00    +0.000 C 
ATOM      9  C   UNL     1       0.367   1.037   0.000  0.00  0.00    +0.000 C 
ATOM     10  C   UNL     1       0.367   0.212   0.000  0.00  0.00    +0.000 C 
ATOM     11  C   UNL     1       1.081  -0.201   0.000  0.00  0.00    +0.000 C 
ATOM     12  C   UNL     1       1.288   0.624   0.000  0.00  0.00    +0.000 C 
ENDBRANCH   1   2
BRANCH   1  13
ATOM     13  C   UNL     1       4.654   1.037   0.000  0.00  0.00    +0.000 C 
ATOM     14  S   UNL     1       4.654   0.212   0.000  0.00  0.00    +0.000 S 
BRANCH  13  15
ATOM     15  N   UNL     1       5.368   1.449   0.000  0.00  0.00    +0.000 N 
ATOM     16  C   UNL     1       5.368   2.274   0.000  0.00  0.00    +0.000 C 
BRANCH  15  22
ATOM     17  C   UNL     1       8.226   1.449   0.000  0.00  0.00    +0.000 C 
ATOM     18  C   UNL     1       7.511   1.037   0.000  0.00  0.00    +0.000 A 
ATOM     19  C   UNL     1       7.511   0.212   0.000  0.00  0.00    +0.000 A 
ATOM     20  C   UNL     1       6.797  -0.201   0.000  0.00  0.00    +0.000 A 
ATOM     21  C   UNL     1       6.083   0.212   0.000  0.00  0.00    +0.000 A 
ATOM     22  C   UNL     1       6.083   1.037   0.000  0.00  0.00    +0.000 A 
ATOM     23  C   UNL     1       6.797   1.449   0.000  0.00  0.00    +0.000 A 
ENDBRANCH  15  22
ENDBRANCH  13  15
ENDBRANCH   1  13
TORSDOF 4
