REMARK  Name = 
REMARK  4 active torsions:
REMARK  status: ('A' for Active; 'I' for Inactive)
REMARK    1  A    between atoms: C_1  and  C_5
REMARK    2  A    between atoms: C_5  and  C_11
REMARK    3  A    between atoms: C_11  and  C_17
REMARK    4  A    between atoms: C_17  and  N_21
REMARK                            x       y       z     vdW  Elec       q    Type
REMARK                         _______ _______ _______ _____ _____    ______ ____
ROOT
ATOM      1  C   UNL     1      -0.007  -0.804   0.000  0.00  0.00    +0.000 C 
ATOM      2  C   UNL     1      -0.709  -1.218   0.000  0.00  0.00    +0.000 A 
ATOM      3  C   UNL     1       0.709  -1.218   0.000  0.00  0.00    +0.000 A 
ATOM      4  C   UNL     1       0.201  -1.426   0.000  0.00  0.00    +0.000 C 
ATOM      5  C   UNL     1      -0.709  -2.046   0.000  0.00  0.00    +0.000 A 
ATOM      6  C   UNL     1      -1.431  -0.804   0.000  0.00  0.00    +0.000 A 
ATOM      7  C   UNL     1       0.709  -2.046   0.000  0.00  0.00    +0.000 A 
ATOM      8  C   UNL     1       1.431  -0.804   0.000  0.00  0.00    +0.000 A 
ATOM      9  C   UNL     1      -0.252  -1.846   0.000  0.00  0.00    +0.000 C 
ATOM     10  C   UNL     1       0.024  -2.502   0.000  0.00  0.00    +0.000 C 
ATOM     11  C   UNL     1      -1.452  -2.451   0.000  0.00  0.00    +0.000 A 
ATOM     12  C   UNL     1      -2.145  -1.218   0.000  0.00  0.00    +0.000 A 
ATOM     13  C   UNL     1       1.431  -2.451   0.000  0.00  0.00    +0.000 A 
ATOM     14  C   UNL     1       2.145  -1.218   0.000  0.00  0.00    +0.000 A 
ATOM     15  C   UNL     1      -2.145  -2.046   0.000  0.00  0.00    +0.000 A 
ATOM     16  C   UNL     1       2.145  -2.046   0.000  0.00  0.00    +0.000 A 
ENDROOT
BRANCH   1  17
ATOM     17  C   UNL     1      -0.011   0.021   0.000  0.00  0.00    +0.000 C 
BRANCH  17  18
ATOM     18  C   UNL     1       0.702   0.437   0.000  0.00  0.00    +0.000 C 
ATOM     19  O   UNL     1       1.418   0.027   0.000  0.00  0.00    +0.000 OA
BRANCH  18  20
ATOM     20  C   UNL     1       0.698   1.262   0.000  0.00  0.00    +0.000 C 
BRANCH  20  21
ATOM     21  N   UNL     1       1.411   1.677   0.000  0.00  0.00    +0.000 NA
ATOM     22  C   UNL     1       1.407   2.502   0.000  0.00  0.00    +0.000 C 
ENDBRANCH  20  21
ENDBRANCH  18  20
ENDBRANCH  17  18
ENDBRANCH   1  17
TORSDOF 4
