REMARK  Name = 
REMARK  14 active torsions:
REMARK  status: ('A' for Active; 'I' for Inactive)
REMARK    1  A    between atoms: C_4  and  C_7
REMARK    2  A    between atoms: C_5  and  N_9
REMARK    3  A    between atoms: C_7  and  O_8
REMARK    4  A    between atoms: O_8  and  P_47
REMARK    5  A    between atoms: C_21  and  C_24
REMARK    6  A    between atoms: C_22  and  N_26
REMARK    7  A    between atoms: C_24  and  O_25
REMARK    8  A    between atoms: O_25  and  P_36
REMARK    9  A    between atoms: O_35  and  P_36
REMARK   10  A    between atoms: O_35  and  P_40
REMARK   11  A    between atoms: P_40  and  O_41
REMARK   12  A    between atoms: O_41  and  P_44
REMARK   13  A    between atoms: O_43  and  P_44
REMARK   14  A    between atoms: O_43  and  P_47
REMARK                            x       y       z     vdW  Elec       q    Type
REMARK                         _______ _______ _______ _____ _____    ______ ____
ROOT
ATOM      1  O   UNL     1      -3.743   1.502   0.000  0.00  0.00    +0.000 OA
ENDROOT
BRANCH   1   3
ATOM      2  O   UNL     1      -5.495   1.432   0.000  0.00  0.00    +0.000 OA
ATOM      3  P   UNL     1      -4.619   1.685   0.000  0.00  0.00    +0.000 P 
ATOM      4  O   UNL     1      -4.840   2.684   0.000  0.00  0.00    +0.000 OA
BRANCH   3   5
ATOM      5  O   UNL     1      -4.902   0.809   0.000  0.00  0.00    +0.000 OA
BRANCH   5   6
ATOM      6  P   UNL     1      -4.524  -0.489   0.000  0.00  0.00    +0.000 P 
ATOM      7  O   UNL     1      -5.370  -0.535   0.000  0.00  0.00    +0.000 OA
ATOM      8  O   UNL     1      -3.623  -0.066   0.000  0.00  0.00    +0.000 OA
BRANCH   6   9
ATOM      9  O   UNL     1      -4.509  -1.298   0.000  0.00  0.00    +0.000 OA
BRANCH   9  10
ATOM     10  C   UNL     1      -4.489  -2.111   0.000  0.00  0.00    +0.000 C 
BRANCH  10  14
ATOM     11  O   UNL     1      -3.943  -3.816   0.000  0.00  0.00    +0.000 OA
ATOM     12  C   UNL     1      -3.461  -3.153   0.000  0.00  0.00    +0.000 C 
ATOM     13  C   UNL     1      -2.636  -3.153   0.000  0.00  0.00    +0.000 C 
ATOM     14  C   UNL     1      -3.705  -2.367   0.000  0.00  0.00    +0.000 C 
ATOM     15  C   UNL     1      -2.393  -2.351   0.000  0.00  0.00    +0.000 C 
ATOM     16  O   UNL     1      -3.038  -1.876   0.000  0.00  0.00    +0.000 OA
ATOM     17  O   UNL     1      -2.150  -3.820   0.000  0.00  0.00    +0.000 OA
BRANCH  15  18
ATOM     18  N   UNL     1      -1.602  -2.090   0.000  0.00  0.00    +0.000 N 
ATOM     19  C   UNL     1      -0.988  -2.638   0.000  0.00  0.00    +0.000 A 
ATOM     20  N   UNL     1      -0.201  -2.378   0.000  0.00  0.00    +0.000 NA
ATOM     21  C   UNL     1      -0.032  -1.573   0.000  0.00  0.00    +0.000 A 
ATOM     22  C   UNL     1      -0.655  -1.025   0.000  0.00  0.00    +0.000 A 
ATOM     23  C   UNL     1      -1.437  -1.281   0.000  0.00  0.00    +0.000 A 
ATOM     24  O   UNL     1      -1.153  -3.447   0.000  0.00  0.00    +0.000 OA
ATOM     25  O   UNL     1       0.750  -1.313   0.000  0.00  0.00    +0.000 OA
ENDBRANCH  15  18
ENDBRANCH  10  14
ENDBRANCH   9  10
ENDBRANCH   6   9
ENDBRANCH   5   6
ENDBRANCH   3   5
ENDBRANCH   1   3
BRANCH   1  26
ATOM     26  P   UNL     1      -2.903   1.745   0.000  0.00  0.00    +0.000 P 
ATOM     27  O   UNL     1      -2.965   0.807   0.000  0.00  0.00    +0.000 OA
ATOM     28  O   UNL     1      -3.153   2.775   0.000  0.00  0.00    +0.000 OA
BRANCH  26  29
ATOM     29  O   UNL     1      -2.194   1.687   0.000  0.00  0.00    +0.000 OA
BRANCH  29  30
ATOM     30  P   UNL     1      -1.531   2.371   0.000  0.00  0.00    +0.000 P 
ATOM     31  O   UNL     1      -0.874   1.621   0.000  0.00  0.00    +0.000 OA
ATOM     32  O   UNL     1      -1.906   3.310   0.000  0.00  0.00    +0.000 OA
BRANCH  30  33
ATOM     33  O   UNL     1      -0.624   2.901   0.000  0.00  0.00    +0.000 OA
BRANCH  33  34
ATOM     34  C   UNL     1       0.255   2.733   0.000  0.00  0.00    +0.000 C 
BRANCH  34  38
ATOM     35  O   UNL     1       0.801   1.028   0.000  0.00  0.00    +0.000 OA
ATOM     36  C   UNL     1       1.283   1.692   0.000  0.00  0.00    +0.000 C 
ATOM     37  C   UNL     1       2.108   1.692   0.000  0.00  0.00    +0.000 C 
ATOM     38  C   UNL     1       1.039   2.478   0.000  0.00  0.00    +0.000 C 
ATOM     39  C   UNL     1       2.351   2.494   0.000  0.00  0.00    +0.000 C 
ATOM     40  O   UNL     1       1.706   2.968   0.000  0.00  0.00    +0.000 OA
ATOM     41  O   UNL     1       2.595   1.025   0.000  0.00  0.00    +0.000 OA
BRANCH  39  42
ATOM     42  N   UNL     1       3.142   2.754   0.000  0.00  0.00    +0.000 N 
ATOM     43  C   UNL     1       3.756   2.206   0.000  0.00  0.00    +0.000 A 
ATOM     44  N   UNL     1       4.543   2.467   0.000  0.00  0.00    +0.000 NA
ATOM     45  C   UNL     1       4.712   3.271   0.000  0.00  0.00    +0.000 A 
ATOM     46  C   UNL     1       4.090   3.820   0.000  0.00  0.00    +0.000 A 
ATOM     47  C   UNL     1       3.307   3.563   0.000  0.00  0.00    +0.000 A 
ATOM     48  O   UNL     1       3.592   1.397   0.000  0.00  0.00    +0.000 OA
ATOM     49  O   UNL     1       5.495   3.532   0.000  0.00  0.00    +0.000 OA
ENDBRANCH  39  42
ENDBRANCH  34  38
ENDBRANCH  33  34
ENDBRANCH  30  33
ENDBRANCH  29  30
ENDBRANCH  26  29
ENDBRANCH   1  26
TORSDOF 14
